MODEL 1
REMARK VINA RESULT:    -7.972      0.000      0.000
REMARK INTER + INTRA:         -12.627
REMARK INTER:                 -11.467
REMARK INTRA:                  -1.160
REMARK UNBOUND:                -1.160
REMARK  Name = 
REMARK  10 active torsions:
REMARK  status: ('A' for Active; 'I' for Inactive)
REMARK    1  A    between atoms: C_1  and  N_2
REMARK    2  A    between atoms: N_2  and  C_3
REMARK    3  A    between atoms: N_2  and  C_4
REMARK    4  A    between atoms: C_4  and  C_5
REMARK    5  A    between atoms: C_5  and  C_6
REMARK    6  A    between atoms: C_6  and  C_7
REMARK    7  A    between atoms: C_7  and  C_8
REMARK    8  A    between atoms: C_8  and  N_9
REMARK    9  A    between atoms: N_9  and  C_10
REMARK   10  A    between atoms: C_20  and  O_21
REMARK                            x       y       z     vdW  Elec       q    Type
REMARK                         _______ _______ _______ _____ _____    ______ ____
ROOT
ATOM      1  C   UNL     1      21.973   0.344  52.200  0.00  0.00    +0.000 A 
ATOM      2  C   UNL     1      21.065  -0.282  53.072  0.00  0.00    +0.000 A 
ATOM      3  C   UNL     1      21.455  -0.875  54.302  0.00  0.00    +0.000 A 
ATOM      4  C   UNL     1      22.836  -0.924  54.607  0.00  0.00    +0.000 A 
ATOM      5  N   UNL     1      23.539  -1.464  55.659  0.00  0.00    +0.000 NA
ATOM      6  C   UNL     1      24.803  -1.174  55.405  0.00  0.00    +0.000 A 
ATOM      7  N   UNL     1      24.942  -0.499  54.233  0.00  0.00    +0.000 N 
ATOM      8  C   UNL     1      26.055   0.105  53.593  0.00  0.00    +0.000 A 
ATOM      9  C   UNL     1      27.359  -0.127  53.947  0.00  0.00    +0.000 A 
ATOM     10  C   UNL     1      28.301   0.754  53.479  0.00  0.00    +0.000 A 
ATOM     11  C   UNL     1      27.875   2.015  53.116  0.00  0.00    +0.000 A 
ATOM     12  C   UNL     1      26.678   2.114  52.406  0.00  0.00    +0.000 A 
ATOM     13  C   UNL     1      25.759   1.099  52.637  0.00  0.00    +0.000 A 
ATOM     14  C   UNL     1      24.427   1.145  51.945  0.00  0.00    +0.000 A 
ATOM     15  O   UNL     1      24.250   1.795  50.930  0.00  0.00    +0.000 OA
ATOM     16  C   UNL     1      23.315   0.395  52.604  0.00  0.00    +0.000 A 
ATOM     17  C   UNL     1      23.692  -0.315  53.718  0.00  0.00    +0.000 A 
ENDROOT
BRANCH   1  18
ATOM     18  N   UNL     1      21.607   0.796  50.912  0.00  0.00    +0.000 N 
ATOM     19  H   UNL     1      22.076   0.447  50.119  0.00  0.00    +0.000 HD
BRANCH  18  20
ATOM     20  C   UNL     1      20.551   1.767  50.751  0.00  0.00    +0.000 C 
BRANCH  20  21
ATOM     21  C   UNL     1      21.140   3.187  50.704  0.00  0.00    +0.000 C 
BRANCH  21  22
ATOM     22  C   UNL     1      21.378   3.843  52.072  0.00  0.00    +0.000 C 
BRANCH  22  23
ATOM     23  C   UNL     1      22.623   4.733  52.182  0.00  0.00    +0.000 C 
BRANCH  23  24
ATOM     24  C   UNL     1      23.327   5.065  50.855  0.00  0.00    +0.000 C 
BRANCH  24  26
ATOM     25  C   UNL     1      25.605   4.972  49.978  0.00  0.00    +0.000 C 
ATOM     26  N   UNL     1      24.711   5.548  50.988  0.00  0.00    +0.000 N 
ATOM     27  C   UNL     1      24.744   7.012  50.877  0.00  0.00    +0.000 C 
ATOM     28  H   UNL     1      25.041   5.252  51.906  0.00  0.00    +0.000 HD
ENDBRANCH  24  26
ENDBRANCH  23  24
ENDBRANCH  22  23
ENDBRANCH  21  22
ENDBRANCH  20  21
ENDBRANCH  18  20
ENDBRANCH   1  18
BRANCH  11  29
ATOM     29  O   UNL     1      27.862   2.921  54.212  0.00  0.00    +0.000 OA
ATOM     30  H   UNL     1      28.218   2.661  55.038  0.00  0.00    +0.000 HD
ENDBRANCH  11  29
TORSDOF 8
ENDMDL
MODEL 2
REMARK VINA RESULT:    -7.631      1.773      2.511
REMARK INTER + INTRA:         -12.137
REMARK INTER:                 -11.525
REMARK INTRA:                  -0.612
REMARK UNBOUND:                -1.160
REMARK  Name = 
REMARK  10 active torsions:
REMARK  status: ('A' for Active; 'I' for Inactive)
REMARK    1  A    between atoms: C_1  and  N_2
REMARK    2  A    between atoms: N_2  and  C_3
REMARK    3  A    between atoms: N_2  and  C_4
REMARK    4  A    between atoms: C_4  and  C_5
REMARK    5  A    between atoms: C_5  and  C_6
REMARK    6  A    between atoms: C_6  and  C_7
REMARK    7  A    between atoms: C_7  and  C_8
REMARK    8  A    between atoms: C_8  and  N_9
REMARK    9  A    between atoms: N_9  and  C_10
REMARK   10  A    between atoms: C_20  and  O_21
REMARK                            x       y       z     vdW  Elec       q    Type
REMARK                         _______ _______ _______ _____ _____    ______ ____
ROOT
ATOM      1  C   UNL     1      23.683   1.729  51.473  0.00  0.00    +0.000 A 
ATOM      2  C   UNL     1      22.476   1.223  51.987  0.00  0.00    +0.000 A 
ATOM      3  C   UNL     1      22.414   0.365  53.115  0.00  0.00    +0.000 A 
ATOM      4  C   UNL     1      23.634  -0.081  53.679  0.00  0.00    +0.000 A 
ATOM      5  N   UNL     1      23.925  -0.940  54.712  0.00  0.00    +0.000 NA
ATOM      6  C   UNL     1      25.243  -0.944  54.790  0.00  0.00    +0.000 A 
ATOM      7  N   UNL     1      25.808  -0.149  53.842  0.00  0.00    +0.000 N 
ATOM      8  C   UNL     1      27.146   0.247  53.586  0.00  0.00    +0.000 A 
ATOM      9  C   UNL     1      28.242  -0.361  54.142  0.00  0.00    +0.000 A 
ATOM     10  C   UNL     1      29.434   0.316  54.075  0.00  0.00    +0.000 A 
ATOM     11  C   UNL     1      29.386   1.685  53.909  0.00  0.00    +0.000 A 
ATOM     12  C   UNL     1      28.451   2.195  53.007  0.00  0.00    +0.000 A 
ATOM     13  C   UNL     1      27.312   1.423  52.824  0.00  0.00    +0.000 A 
ATOM     14  C   UNL     1      26.235   1.913  51.901  0.00  0.00    +0.000 A 
ATOM     15  O   UNL     1      26.456   2.740  51.033  0.00  0.00    +0.000 OA
ATOM     16  C   UNL     1      24.862   1.375  52.144  0.00  0.00    +0.000 A 
ATOM     17  C   UNL     1      24.792   0.425  53.134  0.00  0.00    +0.000 A 
ENDROOT
BRANCH   1  18
ATOM     18  N   UNL     1      23.752   2.457  50.263  0.00  0.00    +0.000 N 
ATOM     19  H   UNL     1      24.247   2.087  49.496  0.00  0.00    +0.000 HD
BRANCH  18  20
ATOM     20  C   UNL     1      23.101   3.741  50.145  0.00  0.00    +0.000 C 
BRANCH  20  21
ATOM     21  C   UNL     1      23.448   4.389  48.794  0.00  0.00    +0.000 C 
BRANCH  21  22
ATOM     22  C   UNL     1      23.634   5.913  48.828  0.00  0.00    +0.000 C 
BRANCH  22  23
ATOM     23  C   UNL     1      25.056   6.422  48.551  0.00  0.00    +0.000 C 
BRANCH  23  24
ATOM     24  C   UNL     1      26.197   5.511  49.036  0.00  0.00    +0.000 C 
BRANCH  24  26
ATOM     25  C   UNL     1      28.544   5.385  48.371  0.00  0.00    +0.000 C 
ATOM     26  N   UNL     1      27.522   6.150  49.092  0.00  0.00    +0.000 N 
ATOM     27  C   UNL     1      27.450   7.504  48.527  0.00  0.00    +0.000 C 
ATOM     28  H   UNL     1      27.792   6.187  50.075  0.00  0.00    +0.000 HD
ENDBRANCH  24  26
ENDBRANCH  23  24
ENDBRANCH  22  23
ENDBRANCH  21  22
ENDBRANCH  20  21
ENDBRANCH  18  20
ENDBRANCH   1  18
BRANCH  11  29
ATOM     29  O   UNL     1      29.290   2.379  55.146  0.00  0.00    +0.000 OA
ATOM     30  H   UNL     1      28.513   2.858  55.356  0.00  0.00    +0.000 HD
ENDBRANCH  11  29
TORSDOF 8
ENDMDL
MODEL 3
REMARK VINA RESULT:    -7.438      1.999      4.426
REMARK INTER + INTRA:         -11.859
REMARK INTER:                 -10.662
REMARK INTRA:                  -1.197
REMARK UNBOUND:                -1.160
REMARK  Name = 
REMARK  10 active torsions:
REMARK  status: ('A' for Active; 'I' for Inactive)
REMARK    1  A    between atoms: C_1  and  N_2
REMARK    2  A    between atoms: N_2  and  C_3
REMARK    3  A    between atoms: N_2  and  C_4
REMARK    4  A    between atoms: C_4  and  C_5
REMARK    5  A    between atoms: C_5  and  C_6
REMARK    6  A    between atoms: C_6  and  C_7
REMARK    7  A    between atoms: C_7  and  C_8
REMARK    8  A    between atoms: C_8  and  N_9
REMARK    9  A    between atoms: N_9  and  C_10
REMARK   10  A    between atoms: C_20  and  O_21
REMARK                            x       y       z     vdW  Elec       q    Type
REMARK                         _______ _______ _______ _____ _____    ______ ____
ROOT
ATOM      1  C   UNL     1      24.021  -0.310  53.663  0.00  0.00    +0.000 A 
ATOM      2  C   UNL     1      24.818  -0.767  54.728  0.00  0.00    +0.000 A 
ATOM      3  C   UNL     1      26.131  -0.289  54.974  0.00  0.00    +0.000 A 
ATOM      4  C   UNL     1      26.695   0.613  54.039  0.00  0.00    +0.000 A 
ATOM      5  N   UNL     1      27.931   1.209  53.949  0.00  0.00    +0.000 NA
ATOM      6  C   UNL     1      27.862   1.970  52.872  0.00  0.00    +0.000 A 
ATOM      7  N   UNL     1      26.653   1.871  52.259  0.00  0.00    +0.000 N 
ATOM      8  C   UNL     1      26.070   2.550  51.157  0.00  0.00    +0.000 A 
ATOM      9  C   UNL     1      26.780   3.316  50.269  0.00  0.00    +0.000 A 
ATOM     10  C   UNL     1      26.065   4.166  49.465  0.00  0.00    +0.000 A 
ATOM     11  C   UNL     1      24.810   4.549  49.892  0.00  0.00    +0.000 A 
ATOM     12  C   UNL     1      23.995   3.571  50.464  0.00  0.00    +0.000 A 
ATOM     13  C   UNL     1      24.661   2.524  51.085  0.00  0.00    +0.000 A 
ATOM     14  C   UNL     1      23.864   1.447  51.761  0.00  0.00    +0.000 A 
ATOM     15  O   UNL     1      22.697   1.236  51.482  0.00  0.00    +0.000 OA
ATOM     16  C   UNL     1      24.565   0.685  52.840  0.00  0.00    +0.000 A 
ATOM     17  C   UNL     1      25.888   1.021  53.003  0.00  0.00    +0.000 A 
ENDROOT
BRANCH   1  18
ATOM     18  N   UNL     1      22.778  -0.898  53.332  0.00  0.00    +0.000 N 
ATOM     19  H   UNL     1      22.612  -1.207  52.412  0.00  0.00    +0.000 HD
BRANCH  18  20
ATOM     20  C   UNL     1      21.750  -1.045  54.336  0.00  0.00    +0.000 C 
BRANCH  20  21
ATOM     21  C   UNL     1      20.640  -0.003  54.114  0.00  0.00    +0.000 C 
BRANCH  21  22
ATOM     22  C   UNL     1      19.473  -0.470  53.232  0.00  0.00    +0.000 C 
BRANCH  22  23
ATOM     23  C   UNL     1      19.389   0.168  51.838  0.00  0.00    +0.000 C 
BRANCH  23  24
ATOM     24  C   UNL     1      19.072   1.673  51.809  0.00  0.00    +0.000 C 
BRANCH  24  26
ATOM     25  C   UNL     1      19.698   2.935  49.814  0.00  0.00    +0.000 C 
ATOM     26  N   UNL     1      20.093   2.512  51.161  0.00  0.00    +0.000 N 
ATOM     27  C   UNL     1      20.356   3.703  51.979  0.00  0.00    +0.000 C 
ATOM     28  H   UNL     1      20.935   1.943  51.078  0.00  0.00    +0.000 HD
ENDBRANCH  24  26
ENDBRANCH  23  24
ENDBRANCH  22  23
ENDBRANCH  21  22
ENDBRANCH  20  21
ENDBRANCH  18  20
ENDBRANCH   1  18
BRANCH  11  29
ATOM     29  O   UNL     1      24.848   5.697  50.732  0.00  0.00    +0.000 OA
ATOM     30  H   UNL     1      25.042   5.603  51.643  0.00  0.00    +0.000 HD
ENDBRANCH  11  29
TORSDOF 8
ENDMDL
MODEL 4
REMARK VINA RESULT:    -7.256      2.354      4.837
REMARK INTER + INTRA:         -11.597
REMARK INTER:                 -10.929
REMARK INTRA:                  -0.668
REMARK UNBOUND:                -1.160
REMARK  Name = 
REMARK  10 active torsions:
REMARK  status: ('A' for Active; 'I' for Inactive)
REMARK    1  A    between atoms: C_1  and  N_2
REMARK    2  A    between atoms: N_2  and  C_3
REMARK    3  A    between atoms: N_2  and  C_4
REMARK    4  A    between atoms: C_4  and  C_5
REMARK    5  A    between atoms: C_5  and  C_6
REMARK    6  A    between atoms: C_6  and  C_7
REMARK    7  A    between atoms: C_7  and  C_8
REMARK    8  A    between atoms: C_8  and  N_9
REMARK    9  A    between atoms: N_9  and  C_10
REMARK   10  A    between atoms: C_20  and  O_21
REMARK                            x       y       z     vdW  Elec       q    Type
REMARK                         _______ _______ _______ _____ _____    ______ ____
ROOT
ATOM      1  C   UNL     1      23.001   0.518  52.607  0.00  0.00    +0.000 A 
ATOM      2  C   UNL     1      22.416   1.065  51.452  0.00  0.00    +0.000 A 
ATOM      3  C   UNL     1      23.119   1.908  50.552  0.00  0.00    +0.000 A 
ATOM      4  C   UNL     1      24.438   2.293  50.896  0.00  0.00    +0.000 A 
ATOM      5  N   UNL     1      25.353   3.123  50.292  0.00  0.00    +0.000 NA
ATOM      6  C   UNL     1      26.421   3.070  51.068  0.00  0.00    +0.000 A 
ATOM      7  N   UNL     1      26.223   2.268  52.148  0.00  0.00    +0.000 N 
ATOM      8  C   UNL     1      27.078   1.820  53.189  0.00  0.00    +0.000 A 
ATOM      9  C   UNL     1      28.302   2.373  53.462  0.00  0.00    +0.000 A 
ATOM     10  C   UNL     1      29.151   1.649  54.260  0.00  0.00    +0.000 A 
ATOM     11  C   UNL     1      28.951   0.286  54.338  0.00  0.00    +0.000 A 
ATOM     12  C   UNL     1      27.636  -0.170  54.436  0.00  0.00    +0.000 A 
ATOM     13  C   UNL     1      26.673   0.652  53.867  0.00  0.00    +0.000 A 
ATOM     14  C   UNL     1      25.235   0.221  53.891  0.00  0.00    +0.000 A 
ATOM     15  O   UNL     1      24.821  -0.600  54.691  0.00  0.00    +0.000 OA
ATOM     16  C   UNL     1      24.351   0.812  52.840  0.00  0.00    +0.000 A 
ATOM     17  C   UNL     1      24.965   1.748  52.044  0.00  0.00    +0.000 A 
ENDROOT
BRANCH   1  18
ATOM     18  N   UNL     1      22.256  -0.193  53.577  0.00  0.00    +0.000 N 
ATOM     19  H   UNL     1      22.657  -0.970  54.029  0.00  0.00    +0.000 HD
BRANCH  18  20
ATOM     20  C   UNL     1      20.910   0.214  53.906  0.00  0.00    +0.000 C 
BRANCH  20  21
ATOM     21  C   UNL     1      19.937  -0.960  53.704  0.00  0.00    +0.000 C 
BRANCH  21  22
ATOM     22  C   UNL     1      18.700  -0.644  52.850  0.00  0.00    +0.000 C 
BRANCH  22  23
ATOM     23  C   UNL     1      18.974  -0.001  51.483  0.00  0.00    +0.000 C 
BRANCH  23  24
ATOM     24  C   UNL     1      17.758   0.128  50.550  0.00  0.00    +0.000 C 
BRANCH  24  26
ATOM     25  C   UNL     1      16.784   1.924  49.211  0.00  0.00    +0.000 C 
ATOM     26  N   UNL     1      17.940   1.046  49.413  0.00  0.00    +0.000 N 
ATOM     27  C   UNL     1      19.138   1.870  49.622  0.00  0.00    +0.000 C 
ATOM     28  H   UNL     1      18.045   0.467  48.580  0.00  0.00    +0.000 HD
ENDBRANCH  24  26
ENDBRANCH  23  24
ENDBRANCH  22  23
ENDBRANCH  21  22
ENDBRANCH  20  21
ENDBRANCH  18  20
ENDBRANCH   1  18
BRANCH  11  29
ATOM     29  O   UNL     1      29.632  -0.424  53.311  0.00  0.00    +0.000 OA
ATOM     30  H   UNL     1      29.545  -0.153  52.419  0.00  0.00    +0.000 HD
ENDBRANCH  11  29
TORSDOF 8
ENDMDL
MODEL 5
REMARK VINA RESULT:    -7.011      2.057      2.882
REMARK INTER + INTRA:         -11.245
REMARK INTER:                 -10.468
REMARK INTRA:                  -0.777
REMARK UNBOUND:                -1.160
REMARK  Name = 
REMARK  10 active torsions:
REMARK  status: ('A' for Active; 'I' for Inactive)
REMARK    1  A    between atoms: C_1  and  N_2
REMARK    2  A    between atoms: N_2  and  C_3
REMARK    3  A    between atoms: N_2  and  C_4
REMARK    4  A    between atoms: C_4  and  C_5
REMARK    5  A    between atoms: C_5  and  C_6
REMARK    6  A    between atoms: C_6  and  C_7
REMARK    7  A    between atoms: C_7  and  C_8
REMARK    8  A    between atoms: C_8  and  N_9
REMARK    9  A    between atoms: N_9  and  C_10
REMARK   10  A    between atoms: C_20  and  O_21
REMARK                            x       y       z     vdW  Elec       q    Type
REMARK                         _______ _______ _______ _____ _____    ______ ____
ROOT
ATOM      1  C   UNL     1      22.060   1.037  51.986  0.00  0.00    +0.000 A 
ATOM      2  C   UNL     1      21.085   0.426  52.795  0.00  0.00    +0.000 A 
ATOM      3  C   UNL     1      21.402  -0.320  53.959  0.00  0.00    +0.000 A 
ATOM      4  C   UNL     1      22.769  -0.541  54.255  0.00  0.00    +0.000 A 
ATOM      5  N   UNL     1      23.405  -1.250  55.247  0.00  0.00    +0.000 NA
ATOM      6  C   UNL     1      24.693  -1.069  55.020  0.00  0.00    +0.000 A 
ATOM      7  N   UNL     1      24.910  -0.301  53.919  0.00  0.00    +0.000 N 
ATOM      8  C   UNL     1      26.084   0.245  53.339  0.00  0.00    +0.000 A 
ATOM      9  C   UNL     1      27.355  -0.154  53.666  0.00  0.00    +0.000 A 
ATOM     10  C   UNL     1      28.386   0.666  53.284  0.00  0.00    +0.000 A 
ATOM     11  C   UNL     1      28.094   1.994  53.047  0.00  0.00    +0.000 A 
ATOM     12  C   UNL     1      26.919   2.284  52.352  0.00  0.00    +0.000 A 
ATOM     13  C   UNL     1      25.899   1.352  52.485  0.00  0.00    +0.000 A 
ATOM     14  C   UNL     1      24.585   1.602  51.804  0.00  0.00    +0.000 A 
ATOM     15  O   UNL     1      24.483   2.363  50.858  0.00  0.00    +0.000 OA
ATOM     16  C   UNL     1      23.396   0.911  52.390  0.00  0.00    +0.000 A 
ATOM     17  C   UNL     1      23.689   0.060  53.428  0.00  0.00    +0.000 A 
ENDROOT
BRANCH   1  18
ATOM     18  N   UNL     1      21.752   1.648  50.748  0.00  0.00    +0.000 N 
ATOM     19  H   UNL     1      21.724   2.629  50.680  0.00  0.00    +0.000 HD
BRANCH  18  20
ATOM     20  C   UNL     1      21.476   0.838  49.584  0.00  0.00    +0.000 C 
BRANCH  20  21
ATOM     21  C   UNL     1      21.897   1.586  48.308  0.00  0.00    +0.000 C 
BRANCH  21  22
ATOM     22  C   UNL     1      20.865   2.586  47.765  0.00  0.00    +0.000 C 
BRANCH  22  23
ATOM     23  C   UNL     1      20.948   4.010  48.333  0.00  0.00    +0.000 C 
BRANCH  23  24
ATOM     24  C   UNL     1      19.671   4.533  49.013  0.00  0.00    +0.000 C 
BRANCH  24  26
ATOM     25  C   UNL     1      19.016   3.782  51.243  0.00  0.00    +0.000 C 
ATOM     26  N   UNL     1      18.931   3.534  49.801  0.00  0.00    +0.000 N 
ATOM     27  C   UNL     1      17.519   3.524  49.399  0.00  0.00    +0.000 C 
ATOM     28  H   UNL     1      19.363   2.629  49.612  0.00  0.00    +0.000 HD
ENDBRANCH  24  26
ENDBRANCH  23  24
ENDBRANCH  22  23
ENDBRANCH  21  22
ENDBRANCH  20  21
ENDBRANCH  18  20
ENDBRANCH   1  18
BRANCH  11  29
ATOM     29  O   UNL     1      28.166   2.786  54.226  0.00  0.00    +0.000 OA
ATOM     30  H   UNL     1      27.583   2.616  54.939  0.00  0.00    +0.000 HD
ENDBRANCH  11  29
TORSDOF 8
ENDMDL
MODEL 6
REMARK VINA RESULT:    -6.874      2.258      4.455
REMARK INTER + INTRA:         -11.048
REMARK INTER:                  -9.627
REMARK INTRA:                  -1.421
REMARK UNBOUND:                -1.160
REMARK  Name = 
REMARK  10 active torsions:
REMARK  status: ('A' for Active; 'I' for Inactive)
REMARK    1  A    between atoms: C_1  and  N_2
REMARK    2  A    between atoms: N_2  and  C_3
REMARK    3  A    between atoms: N_2  and  C_4
REMARK    4  A    between atoms: C_4  and  C_5
REMARK    5  A    between atoms: C_5  and  C_6
REMARK    6  A    between atoms: C_6  and  C_7
REMARK    7  A    between atoms: C_7  and  C_8
REMARK    8  A    between atoms: C_8  and  N_9
REMARK    9  A    between atoms: N_9  and  C_10
REMARK   10  A    between atoms: C_20  and  O_21
REMARK                            x       y       z     vdW  Elec       q    Type
REMARK                         _______ _______ _______ _____ _____    ______ ____
ROOT
ATOM      1  C   UNL     1      22.599   0.777  53.259  0.00  0.00    +0.000 A 
ATOM      2  C   UNL     1      23.455  -0.276  53.627  0.00  0.00    +0.000 A 
ATOM      3  C   UNL     1      24.835  -0.304  53.297  0.00  0.00    +0.000 A 
ATOM      4  C   UNL     1      25.341   0.728  52.470  0.00  0.00    +0.000 A 
ATOM      5  N   UNL     1      26.583   0.964  51.929  0.00  0.00    +0.000 NA
ATOM      6  C   UNL     1      26.454   2.099  51.266  0.00  0.00    +0.000 A 
ATOM      7  N   UNL     1      25.186   2.584  51.336  0.00  0.00    +0.000 N 
ATOM      8  C   UNL     1      24.587   3.790  50.888  0.00  0.00    +0.000 A 
ATOM      9  C   UNL     1      25.174   4.647  49.992  0.00  0.00    +0.000 A 
ATOM     10  C   UNL     1      24.648   5.911  49.900  0.00  0.00    +0.000 A 
ATOM     11  C   UNL     1      23.930   6.388  50.978  0.00  0.00    +0.000 A 
ATOM     12  C   UNL     1      23.051   5.508  51.609  0.00  0.00    +0.000 A 
ATOM     13  C   UNL     1      23.385   4.163  51.525  0.00  0.00    +0.000 A 
ATOM     14  C   UNL     1      22.517   3.147  52.209  0.00  0.00    +0.000 A 
ATOM     15  O   UNL     1      21.359   3.385  52.507  0.00  0.00    +0.000 OA
ATOM     16  C   UNL     1      23.169   1.849  52.559  0.00  0.00    +0.000 A 
ATOM     17  C   UNL     1      24.465   1.729  52.118  0.00  0.00    +0.000 A 
ENDROOT
BRANCH   1  18
ATOM     18  N   UNL     1      21.200   0.728  53.457  0.00  0.00    +0.000 N 
ATOM     19  H   UNL     1      20.785   1.278  54.161  0.00  0.00    +0.000 HD
BRANCH  18  20
ATOM     20  C   UNL     1      20.375  -0.124  52.633  0.00  0.00    +0.000 C 
BRANCH  20  21
ATOM     21  C   UNL     1      19.370   0.723  51.834  0.00  0.00    +0.000 C 
BRANCH  21  22
ATOM     22  C   UNL     1      19.441   0.556  50.309  0.00  0.00    +0.000 C 
BRANCH  22  23
ATOM     23  C   UNL     1      20.614   1.257  49.611  0.00  0.00    +0.000 C 
BRANCH  23  24
ATOM     24  C   UNL     1      20.288   2.608  48.950  0.00  0.00    +0.000 C 
BRANCH  24  26
ATOM     25  C   UNL     1      21.636   4.535  48.290  0.00  0.00    +0.000 C 
ATOM     26  N   UNL     1      21.327   3.123  48.043  0.00  0.00    +0.000 N 
ATOM     27  C   UNL     1      22.555   2.331  48.186  0.00  0.00    +0.000 C 
ATOM     28  H   UNL     1      20.958   3.043  47.095  0.00  0.00    +0.000 HD
ENDBRANCH  24  26
ENDBRANCH  23  24
ENDBRANCH  22  23
ENDBRANCH  21  22
ENDBRANCH  20  21
ENDBRANCH  18  20
ENDBRANCH   1  18
BRANCH  11  29
ATOM     29  O   UNL     1      24.759   7.020  51.946  0.00  0.00    +0.000 OA
ATOM     30  H   UNL     1      25.151   6.513  52.628  0.00  0.00    +0.000 HD
ENDBRANCH  11  29
TORSDOF 8
ENDMDL
MODEL 7
REMARK VINA RESULT:    -6.751      2.252      3.672
REMARK INTER + INTRA:         -10.871
REMARK INTER:                  -9.472
REMARK INTRA:                  -1.399
REMARK UNBOUND:                -1.160
REMARK  Name = 
REMARK  10 active torsions:
REMARK  status: ('A' for Active; 'I' for Inactive)
REMARK    1  A    between atoms: C_1  and  N_2
REMARK    2  A    between atoms: N_2  and  C_3
REMARK    3  A    between atoms: N_2  and  C_4
REMARK    4  A    between atoms: C_4  and  C_5
REMARK    5  A    between atoms: C_5  and  C_6
REMARK    6  A    between atoms: C_6  and  C_7
REMARK    7  A    between atoms: C_7  and  C_8
REMARK    8  A    between atoms: C_8  and  N_9
REMARK    9  A    between atoms: N_9  and  C_10
REMARK   10  A    between atoms: C_20  and  O_21
REMARK                            x       y       z     vdW  Elec       q    Type
REMARK                         _______ _______ _______ _____ _____    ______ ____
ROOT
ATOM      1  C   UNL     1      21.381   1.005  50.554  0.00  0.00    +0.000 A 
ATOM      2  C   UNL     1      21.398   1.670  49.316  0.00  0.00    +0.000 A 
ATOM      3  C   UNL     1      22.523   2.392  48.839  0.00  0.00    +0.000 A 
ATOM      4  C   UNL     1      23.638   2.530  49.702  0.00  0.00    +0.000 A 
ATOM      5  N   UNL     1      24.834   3.197  49.579  0.00  0.00    +0.000 NA
ATOM      6  C   UNL     1      25.482   2.940  50.702  0.00  0.00    +0.000 A 
ATOM      7  N   UNL     1      24.747   2.165  51.543  0.00  0.00    +0.000 N 
ATOM      8  C   UNL     1      25.036   1.552  52.790  0.00  0.00    +0.000 A 
ATOM      9  C   UNL     1      26.119   1.874  53.567  0.00  0.00    +0.000 A 
ATOM     10  C   UNL     1      26.457   0.995  54.565  0.00  0.00    +0.000 A 
ATOM     11  C   UNL     1      26.033  -0.313  54.438  0.00  0.00    +0.000 A 
ATOM     12  C   UNL     1      24.735  -0.530  53.975  0.00  0.00    +0.000 A 
ATOM     13  C   UNL     1      24.219   0.460  53.151  0.00  0.00    +0.000 A 
ATOM     14  C   UNL     1      22.843   0.291  52.575  0.00  0.00    +0.000 A 
ATOM     15  O   UNL     1      22.022  -0.459  53.074  0.00  0.00    +0.000 OA
ATOM     16  C   UNL     1      22.555   1.050  51.320  0.00  0.00    +0.000 A 
ATOM     17  C   UNL     1      23.572   1.878  50.912  0.00  0.00    +0.000 A 
ENDROOT
BRANCH   1  18
ATOM     18  N   UNL     1      20.212   0.418  51.090  0.00  0.00    +0.000 N 
ATOM     19  H   UNL     1      20.192  -0.547  51.283  0.00  0.00    +0.000 HD
BRANCH  18  20
ATOM     20  C   UNL     1      19.045   1.227  51.355  0.00  0.00    +0.000 C 
BRANCH  20  21
ATOM     21  C   UNL     1      19.455   2.538  52.047  0.00  0.00    +0.000 C 
BRANCH  21  22
ATOM     22  C   UNL     1      18.945   3.820  51.373  0.00  0.00    +0.000 C 
BRANCH  22  23
ATOM     23  C   UNL     1      20.021   4.742  50.784  0.00  0.00    +0.000 C 
BRANCH  23  24
ATOM     24  C   UNL     1      21.363   4.770  51.536  0.00  0.00    +0.000 C 
BRANCH  24  26
ATOM     25  C   UNL     1      21.861   7.031  50.758  0.00  0.00    +0.000 C 
ATOM     26  N   UNL     1      22.376   5.675  50.969  0.00  0.00    +0.000 N 
ATOM     27  C   UNL     1      23.544   5.739  51.858  0.00  0.00    +0.000 C 
ATOM     28  H   UNL     1      22.639   5.293  50.061  0.00  0.00    +0.000 HD
ENDBRANCH  24  26
ENDBRANCH  23  24
ENDBRANCH  22  23
ENDBRANCH  21  22
ENDBRANCH  20  21
ENDBRANCH  18  20
ENDBRANCH   1  18
BRANCH  11  29
ATOM     29  O   UNL     1      26.949  -1.111  53.699  0.00  0.00    +0.000 OA
ATOM     30  H   UNL     1      27.845  -0.849  53.625  0.00  0.00    +0.000 HD
ENDBRANCH  11  29
TORSDOF 8
ENDMDL
MODEL 8
REMARK VINA RESULT:    -6.610      2.397      4.625
REMARK INTER + INTRA:         -10.669
REMARK INTER:                  -9.831
REMARK INTRA:                  -0.838
REMARK UNBOUND:                -1.160
REMARK  Name = 
REMARK  10 active torsions:
REMARK  status: ('A' for Active; 'I' for Inactive)
REMARK    1  A    between atoms: C_1  and  N_2
REMARK    2  A    between atoms: N_2  and  C_3
REMARK    3  A    between atoms: N_2  and  C_4
REMARK    4  A    between atoms: C_4  and  C_5
REMARK    5  A    between atoms: C_5  and  C_6
REMARK    6  A    between atoms: C_6  and  C_7
REMARK    7  A    between atoms: C_7  and  C_8
REMARK    8  A    between atoms: C_8  and  N_9
REMARK    9  A    between atoms: N_9  and  C_10
REMARK   10  A    between atoms: C_20  and  O_21
REMARK                            x       y       z     vdW  Elec       q    Type
REMARK                         _______ _______ _______ _____ _____    ______ ____
ROOT
ATOM      1  C   UNL     1      20.877  -0.246  54.071  0.00  0.00    +0.000 A 
ATOM      2  C   UNL     1      21.514  -1.298  54.752  0.00  0.00    +0.000 A 
ATOM      3  C   UNL     1      22.924  -1.455  54.790  0.00  0.00    +0.000 A 
ATOM      4  C   UNL     1      23.712  -0.568  54.018  0.00  0.00    +0.000 A 
ATOM      5  N   UNL     1      25.066  -0.481  53.791  0.00  0.00    +0.000 NA
ATOM      6  C   UNL     1      25.210   0.569  53.003  0.00  0.00    +0.000 A 
ATOM      7  N   UNL     1      24.015   1.140  52.696  0.00  0.00    +0.000 N 
ATOM      8  C   UNL     1      23.660   2.317  51.987  0.00  0.00    +0.000 A 
ATOM      9  C   UNL     1      24.526   3.017  51.188  0.00  0.00    +0.000 A 
ATOM     10  C   UNL     1      24.160   4.291  50.833  0.00  0.00    +0.000 A 
ATOM     11  C   UNL     1      23.246   4.943  51.637  0.00  0.00    +0.000 A 
ATOM     12  C   UNL     1      22.160   4.206  52.111  0.00  0.00    +0.000 A 
ATOM     13  C   UNL     1      22.378   2.842  52.255  0.00  0.00    +0.000 A 
ATOM     14  C   UNL     1      21.277   1.977  52.796  0.00  0.00    +0.000 A 
ATOM     15  O   UNL     1      20.109   2.323  52.762  0.00  0.00    +0.000 OA
ATOM     16  C   UNL     1      21.700   0.692  53.432  0.00  0.00    +0.000 A 
ATOM     17  C   UNL     1      23.047   0.436  53.353  0.00  0.00    +0.000 A 
ENDROOT
BRANCH   1  18
ATOM     18  N   UNL     1      19.474  -0.180  53.909  0.00  0.00    +0.000 N 
ATOM     19  H   UNL     1      18.943   0.421  54.480  0.00  0.00    +0.000 HD
BRANCH  18  20
ATOM     20  C   UNL     1      18.816  -0.991  52.911  0.00  0.00    +0.000 C 
BRANCH  20  21
ATOM     21  C   UNL     1      17.377  -0.494  52.690  0.00  0.00    +0.000 C 
BRANCH  21  22
ATOM     22  C   UNL     1      17.214   0.567  51.592  0.00  0.00    +0.000 C 
BRANCH  22  23
ATOM     23  C   UNL     1      17.880   0.248  50.246  0.00  0.00    +0.000 C 
BRANCH  23  24
ATOM     24  C   UNL     1      19.124   1.085  49.901  0.00  0.00    +0.000 C 
BRANCH  24  26
ATOM     25  C   UNL     1      17.855   2.754  48.647  0.00  0.00    +0.000 C 
ATOM     26  N   UNL     1      19.023   1.867  48.658  0.00  0.00    +0.000 N 
ATOM     27  C   UNL     1      20.237   2.672  48.472  0.00  0.00    +0.000 C 
ATOM     28  H   UNL     1      18.917   1.199  47.895  0.00  0.00    +0.000 HD
ENDBRANCH  24  26
ENDBRANCH  23  24
ENDBRANCH  22  23
ENDBRANCH  21  22
ENDBRANCH  20  21
ENDBRANCH  18  20
ENDBRANCH   1  18
BRANCH  11  29
ATOM     29  O   UNL     1      23.866   5.635  52.714  0.00  0.00    +0.000 OA
ATOM     30  H   UNL     1      24.320   5.156  53.378  0.00  0.00    +0.000 HD
ENDBRANCH  11  29
TORSDOF 8
ENDMDL
MODEL 9
REMARK VINA RESULT:    -6.512      3.464      4.978
REMARK INTER + INTRA:         -10.527
REMARK INTER:                  -9.788
REMARK INTRA:                  -0.739
REMARK UNBOUND:                -1.160
REMARK  Name = 
REMARK  10 active torsions:
REMARK  status: ('A' for Active; 'I' for Inactive)
REMARK    1  A    between atoms: C_1  and  N_2
REMARK    2  A    between atoms: N_2  and  C_3
REMARK    3  A    between atoms: N_2  and  C_4
REMARK    4  A    between atoms: C_4  and  C_5
REMARK    5  A    between atoms: C_5  and  C_6
REMARK    6  A    between atoms: C_6  and  C_7
REMARK    7  A    between atoms: C_7  and  C_8
REMARK    8  A    between atoms: C_8  and  N_9
REMARK    9  A    between atoms: N_9  and  C_10
REMARK   10  A    between atoms: C_20  and  O_21
REMARK                            x       y       z     vdW  Elec       q    Type
REMARK                         _______ _______ _______ _____ _____    ______ ____
ROOT
ATOM      1  C   UNL     1      19.604   0.430  51.294  0.00  0.00    +0.000 A 
ATOM      2  C   UNL     1      18.680  -0.249  52.108  0.00  0.00    +0.000 A 
ATOM      3  C   UNL     1      19.037  -0.877  53.329  0.00  0.00    +0.000 A 
ATOM      4  C   UNL     1      20.407  -0.907  53.685  0.00  0.00    +0.000 A 
ATOM      5  N   UNL     1      21.082  -1.469  54.742  0.00  0.00    +0.000 NA
ATOM      6  C   UNL     1      22.347  -1.143  54.548  0.00  0.00    +0.000 A 
ATOM      7  N   UNL     1      22.514  -0.422  53.407  0.00  0.00    +0.000 N 
ATOM      8  C   UNL     1      23.636   0.231  52.832  0.00  0.00    +0.000 A 
ATOM      9  C   UNL     1      24.931   0.015  53.228  0.00  0.00    +0.000 A 
ATOM     10  C   UNL     1      25.868   0.933  52.829  0.00  0.00    +0.000 A 
ATOM     11  C   UNL     1      25.426   2.198  52.495  0.00  0.00    +0.000 A 
ATOM     12  C   UNL     1      24.255   2.295  51.744  0.00  0.00    +0.000 A 
ATOM     13  C   UNL     1      23.352   1.253  51.902  0.00  0.00    +0.000 A 
ATOM     14  C   UNL     1      22.046   1.295  51.162  0.00  0.00    +0.000 A 
ATOM     15  O   UNL     1      21.892   1.978  50.166  0.00  0.00    +0.000 OA
ATOM     16  C   UNL     1      20.928   0.496  51.751  0.00  0.00    +0.000 A 
ATOM     17  C   UNL     1      21.280  -0.246  52.852  0.00  0.00    +0.000 A 
ENDROOT
BRANCH   1  18
ATOM     18  N   UNL     1      19.276   0.921  50.010  0.00  0.00    +0.000 N 
ATOM     19  H   UNL     1      19.870   0.733  49.247  0.00  0.00    +0.000 HD
BRANCH  18  20
ATOM     20  C   UNL     1      18.075   1.698  49.810  0.00  0.00    +0.000 C 
BRANCH  20  21
ATOM     21  C   UNL     1      18.353   3.184  50.089  0.00  0.00    +0.000 C 
BRANCH  21  22
ATOM     22  C   UNL     1      17.825   3.707  51.433  0.00  0.00    +0.000 C 
BRANCH  22  23
ATOM     23  C   UNL     1      16.357   4.157  51.449  0.00  0.00    +0.000 C 
BRANCH  23  24
ATOM     24  C   UNL     1      15.495   3.583  52.586  0.00  0.00    +0.000 C 
BRANCH  24  26
ATOM     25  C   UNL     1      13.314   4.377  53.348  0.00  0.00    +0.000 C 
ATOM     26  N   UNL     1      14.044   3.604  52.338  0.00  0.00    +0.000 N 
ATOM     27  C   UNL     1      13.771   4.171  51.011  0.00  0.00    +0.000 C 
ATOM     28  H   UNL     1      13.721   2.638  52.388  0.00  0.00    +0.000 HD
ENDBRANCH  24  26
ENDBRANCH  23  24
ENDBRANCH  22  23
ENDBRANCH  21  22
ENDBRANCH  20  21
ENDBRANCH  18  20
ENDBRANCH   1  18
BRANCH  11  29
ATOM     29  O   UNL     1      25.351   3.062  53.622  0.00  0.00    +0.000 OA
ATOM     30  H   UNL     1      24.642   3.669  53.699  0.00  0.00    +0.000 HD
ENDBRANCH  11  29
TORSDOF 8
ENDMDL
