MODEL 1
REMARK VINA RESULT:    -7.949      0.000      0.000
REMARK INTER + INTRA:          -9.638
REMARK INTER:                  -9.343
REMARK INTRA:                  -0.295
REMARK UNBOUND:                -0.295
REMARK  Name = 
REMARK  4 active torsions:
REMARK  status: ('A' for Active; 'I' for Inactive)
REMARK    1  A    between atoms: C_1  and  O_2
REMARK    2  A    between atoms: O_2  and  C_3
REMARK    3  A    between atoms: N_10  and  S_11
REMARK    4  A    between atoms: S_11  and  C_14
REMARK                            x       y       z     vdW  Elec       q    Type
REMARK                         _______ _______ _______ _____ _____    ______ ____
ROOT
ATOM      1  S   UNL     1      22.748   2.317  52.137  0.00  0.00    +0.000 S 
ATOM      2  O   UNL     1      23.769   2.747  53.073  0.00  0.00    +0.000 OA
ATOM      3  O   UNL     1      21.545   3.087  51.926  0.00  0.00    +0.000 OA
ENDROOT
BRANCH   1   4
ATOM      4  C   UNL     1      22.321   0.621  52.525  0.00  0.00    +0.000 A 
ATOM      5  C   UNL     1      20.958   0.336  52.371  0.00  0.00    +0.000 A 
ATOM      6  C   UNL     1      20.322  -0.421  53.339  0.00  0.00    +0.000 A 
ATOM      7  C   UNL     1      21.054  -0.913  54.419  0.00  0.00    +0.000 A 
ATOM      8  C   UNL     1      22.453  -0.785  54.471  0.00  0.00    +0.000 A 
ATOM      9  C   UNL     1      23.182  -1.350  55.530  0.00  0.00    +0.000 A 
ATOM     10  C   UNL     1      24.577  -1.300  55.556  0.00  0.00    +0.000 A 
ATOM     11  C   UNL     1      25.261  -0.674  54.524  0.00  0.00    +0.000 A 
ATOM     12  C   UNL     1      24.549  -0.044  53.503  0.00  0.00    +0.000 A 
ATOM     13  C   UNL     1      23.130  -0.059  53.471  0.00  0.00    +0.000 A 
ENDBRANCH   1   4
BRANCH   1  21
ATOM     14  C   UNL     1      25.727   3.036  50.429  0.00  0.00    +0.000 A 
ATOM     15  N   UNL     1      26.514   4.058  50.009  0.00  0.00    +0.000 NA
ATOM     16  C   UNL     1      25.869   5.058  49.364  0.00  0.00    +0.000 A 
ATOM     17 BR   UNL     1      26.880   6.540  48.761  0.00  0.00    +0.000 Br
ATOM     18  C   UNL     1      24.499   5.026  49.122  0.00  0.00    +0.000 A 
ATOM     19  N   UNL     1      23.700   4.006  49.512  0.00  0.00    +0.000 NA
ATOM     20  C   UNL     1      24.343   3.022  50.181  0.00  0.00    +0.000 A 
ATOM     21  N   UNL     1      23.457   2.015  50.615  0.00  0.00    +0.000 N 
ATOM     22  H   UNL     1      23.263   1.208  50.086  0.00  0.00    +0.000 HD
BRANCH  14  24
ATOM     23  C   UNL     1      27.117   2.293  52.168  0.00  0.00    +0.000 C 
ATOM     24  O   UNL     1      26.308   1.944  51.045  0.00  0.00    +0.000 OA
ENDBRANCH  14  24
ENDBRANCH   1  21
TORSDOF 3
ENDMDL
MODEL 2
REMARK VINA RESULT:    -7.833      2.773      4.787
REMARK INTER + INTRA:          -9.502
REMARK INTER:                  -9.044
REMARK INTRA:                  -0.458
REMARK UNBOUND:                -0.295
REMARK  Name = 
REMARK  4 active torsions:
REMARK  status: ('A' for Active; 'I' for Inactive)
REMARK    1  A    between atoms: C_1  and  O_2
REMARK    2  A    between atoms: O_2  and  C_3
REMARK    3  A    between atoms: N_10  and  S_11
REMARK    4  A    between atoms: S_11  and  C_14
REMARK                            x       y       z     vdW  Elec       q    Type
REMARK                         _______ _______ _______ _____ _____    ______ ____
ROOT
ATOM      1  S   UNL     1      25.761   1.540  51.765  0.00  0.00    +0.000 S 
ATOM      2  O   UNL     1      24.523   0.805  51.949  0.00  0.00    +0.000 OA
ATOM      3  O   UNL     1      26.506   1.466  50.531  0.00  0.00    +0.000 OA
ENDROOT
BRANCH   1   4
ATOM      4  C   UNL     1      26.838   1.162  53.146  0.00  0.00    +0.000 A 
ATOM      5  C   UNL     1      27.427   2.294  53.724  0.00  0.00    +0.000 A 
ATOM      6  C   UNL     1      28.768   2.246  54.064  0.00  0.00    +0.000 A 
ATOM      7  C   UNL     1      29.488   1.070  53.862  0.00  0.00    +0.000 A 
ATOM      8  C   UNL     1      28.849  -0.117  53.460  0.00  0.00    +0.000 A 
ATOM      9  C   UNL     1      29.577  -1.310  53.332  0.00  0.00    +0.000 A 
ATOM     10  C   UNL     1      28.946  -2.513  53.011  0.00  0.00    +0.000 A 
ATOM     11  C   UNL     1      27.574  -2.534  52.805  0.00  0.00    +0.000 A 
ATOM     12  C   UNL     1      26.847  -1.344  52.856  0.00  0.00    +0.000 A 
ATOM     13  C   UNL     1      27.474  -0.105  53.154  0.00  0.00    +0.000 A 
ENDBRANCH   1   4
BRANCH   1  21
ATOM     14  C   UNL     1      23.417   4.062  51.095  0.00  0.00    +0.000 A 
ATOM     15  N   UNL     1      22.811   4.736  50.086  0.00  0.00    +0.000 NA
ATOM     16  C   UNL     1      23.640   5.213  49.128  0.00  0.00    +0.000 A 
ATOM     17 BR   UNL     1      22.885   6.148  47.666  0.00  0.00    +0.000 Br
ATOM     18  C   UNL     1      25.021   5.049  49.190  0.00  0.00    +0.000 A 
ATOM     19  N   UNL     1      25.647   4.401  50.200  0.00  0.00    +0.000 NA
ATOM     20  C   UNL     1      24.813   3.902  51.140  0.00  0.00    +0.000 A 
ATOM     21  N   UNL     1      25.510   3.186  52.134  0.00  0.00    +0.000 N 
ATOM     22  H   UNL     1      25.824   3.600  52.970  0.00  0.00    +0.000 HD
BRANCH  14  24
ATOM     23  C   UNL     1      21.581   2.747  51.732  0.00  0.00    +0.000 C 
ATOM     24  O   UNL     1      22.653   3.591  52.146  0.00  0.00    +0.000 OA
ENDBRANCH  14  24
ENDBRANCH   1  21
TORSDOF 3
ENDMDL
MODEL 3
REMARK VINA RESULT:    -7.630      1.718      2.316
REMARK INTER + INTRA:          -9.264
REMARK INTER:                  -8.801
REMARK INTRA:                  -0.463
REMARK UNBOUND:                -0.295
REMARK  Name = 
REMARK  4 active torsions:
REMARK  status: ('A' for Active; 'I' for Inactive)
REMARK    1  A    between atoms: C_1  and  O_2
REMARK    2  A    between atoms: O_2  and  C_3
REMARK    3  A    between atoms: N_10  and  S_11
REMARK    4  A    between atoms: S_11  and  C_14
REMARK                            x       y       z     vdW  Elec       q    Type
REMARK                         _______ _______ _______ _____ _____    ______ ____
ROOT
ATOM      1  S   UNL     1      24.311   2.763  51.928  0.00  0.00    +0.000 S 
ATOM      2  O   UNL     1      25.725   2.436  51.884  0.00  0.00    +0.000 OA
ATOM      3  O   UNL     1      23.737   3.481  53.040  0.00  0.00    +0.000 OA
ENDROOT
BRANCH   1   4
ATOM      4  C   UNL     1      23.387   1.256  51.638  0.00  0.00    +0.000 A 
ATOM      5  C   UNL     1      22.423   1.374  50.628  0.00  0.00    +0.000 A 
ATOM      6  C   UNL     1      21.171   0.821  50.834  0.00  0.00    +0.000 A 
ATOM      7  C   UNL     1      20.910   0.129  52.016  0.00  0.00    +0.000 A 
ATOM      8  C   UNL     1      21.933  -0.149  52.940  0.00  0.00    +0.000 A 
ATOM      9  C   UNL     1      21.669  -0.910  54.090  0.00  0.00    +0.000 A 
ATOM     10  C   UNL     1      22.688  -1.261  54.976  0.00  0.00    +0.000 A 
ATOM     11  C   UNL     1      23.988  -0.846  54.726  0.00  0.00    +0.000 A 
ATOM     12  C   UNL     1      24.256  -0.029  53.628  0.00  0.00    +0.000 A 
ATOM     13  C   UNL     1      23.229   0.363  52.729  0.00  0.00    +0.000 A 
ENDBRANCH   1   4
BRANCH   1  21
ATOM     14  C   UNL     1      25.638   5.145  49.721  0.00  0.00    +0.000 A 
ATOM     15  N   UNL     1      26.124   6.410  49.659  0.00  0.00    +0.000 NA
ATOM     16  C   UNL     1      25.366   7.353  50.266  0.00  0.00    +0.000 A 
ATOM     17 BR   UNL     1      25.975   9.145  50.253  0.00  0.00    +0.000 Br
ATOM     18  C   UNL     1      24.157   7.050  50.886  0.00  0.00    +0.000 A 
ATOM     19  N   UNL     1      23.643   5.800  50.938  0.00  0.00    +0.000 NA
ATOM     20  C   UNL     1      24.417   4.857  50.355  0.00  0.00    +0.000 A 
ATOM     21  N   UNL     1      23.865   3.566  50.491  0.00  0.00    +0.000 N 
ATOM     22  H   UNL     1      23.273   3.164  49.815  0.00  0.00    +0.000 HD
BRANCH  14  24
ATOM     23  C   UNL     1      27.652   4.479  48.718  0.00  0.00    +0.000 C 
ATOM     24  O   UNL     1      26.316   4.129  49.077  0.00  0.00    +0.000 OA
ENDBRANCH  14  24
ENDBRANCH   1  21
TORSDOF 3
ENDMDL
MODEL 4
REMARK VINA RESULT:    -7.510      2.636      4.316
REMARK INTER + INTRA:          -9.122
REMARK INTER:                  -8.746
REMARK INTRA:                  -0.376
REMARK UNBOUND:                -0.295
REMARK  Name = 
REMARK  4 active torsions:
REMARK  status: ('A' for Active; 'I' for Inactive)
REMARK    1  A    between atoms: C_1  and  O_2
REMARK    2  A    between atoms: O_2  and  C_3
REMARK    3  A    between atoms: N_10  and  S_11
REMARK    4  A    between atoms: S_11  and  C_14
REMARK                            x       y       z     vdW  Elec       q    Type
REMARK                         _______ _______ _______ _____ _____    ______ ____
ROOT
ATOM      1  S   UNL     1      24.783   3.347  51.153  0.00  0.00    +0.000 S 
ATOM      2  O   UNL     1      23.661   2.793  50.417  0.00  0.00    +0.000 OA
ATOM      3  O   UNL     1      25.962   3.835  50.477  0.00  0.00    +0.000 OA
ENDROOT
BRANCH   1   4
ATOM      4  C   UNL     1      25.253   2.166  52.415  0.00  0.00    +0.000 A 
ATOM      5  C   UNL     1      26.615   1.836  52.395  0.00  0.00    +0.000 A 
ATOM      6  C   UNL     1      26.981   0.511  52.548  0.00  0.00    +0.000 A 
ATOM      7  C   UNL     1      25.998  -0.456  52.757  0.00  0.00    +0.000 A 
ATOM      8  C   UNL     1      24.654  -0.096  52.965  0.00  0.00    +0.000 A 
ATOM      9  C   UNL     1      23.690  -1.077  53.246  0.00  0.00    +0.000 A 
ATOM     10  C   UNL     1      22.368  -0.731  53.532  0.00  0.00    +0.000 A 
ATOM     11  C   UNL     1      21.993   0.605  53.532  0.00  0.00    +0.000 A 
ATOM     12  C   UNL     1      22.921   1.586  53.182  0.00  0.00    +0.000 A 
ATOM     13  C   UNL     1      24.264   1.253  52.861  0.00  0.00    +0.000 A 
ENDBRANCH   1   4
BRANCH   1  21
ATOM     14  C   UNL     1      22.062   5.543  51.435  0.00  0.00    +0.000 A 
ATOM     15  N   UNL     1      21.392   6.526  50.781  0.00  0.00    +0.000 NA
ATOM     16  C   UNL     1      22.165   7.506  50.258  0.00  0.00    +0.000 A 
ATOM     17 BR   UNL     1      21.322   8.908  49.308  0.00  0.00    +0.000 Br
ATOM     18  C   UNL     1      23.549   7.520  50.406  0.00  0.00    +0.000 A 
ATOM     19  N   UNL     1      24.234   6.563  51.073  0.00  0.00    +0.000 NA
ATOM     20  C   UNL     1      23.461   5.571  51.570  0.00  0.00    +0.000 A 
ATOM     21  N   UNL     1      24.229   4.572  52.202  0.00  0.00    +0.000 N 
ATOM     22  H   UNL     1      24.428   4.581  53.166  0.00  0.00    +0.000 HD
BRANCH  14  24
ATOM     23  C   UNL     1      20.327   3.978  51.224  0.00  0.00    +0.000 C 
ATOM     24  O   UNL     1      21.348   4.534  52.051  0.00  0.00    +0.000 OA
ENDBRANCH  14  24
ENDBRANCH   1  21
TORSDOF 3
ENDMDL
MODEL 5
REMARK VINA RESULT:    -7.432      2.667      3.652
REMARK INTER + INTRA:          -9.031
REMARK INTER:                  -8.260
REMARK INTRA:                  -0.771
REMARK UNBOUND:                -0.295
REMARK  Name = 
REMARK  4 active torsions:
REMARK  status: ('A' for Active; 'I' for Inactive)
REMARK    1  A    between atoms: C_1  and  O_2
REMARK    2  A    between atoms: O_2  and  C_3
REMARK    3  A    between atoms: N_10  and  S_11
REMARK    4  A    between atoms: S_11  and  C_14
REMARK                            x       y       z     vdW  Elec       q    Type
REMARK                         _______ _______ _______ _____ _____    ______ ____
ROOT
ATOM      1  S   UNL     1      23.772   3.362  52.160  0.00  0.00    +0.000 S 
ATOM      2  O   UNL     1      24.427   3.846  50.960  0.00  0.00    +0.000 OA
ATOM      3  O   UNL     1      24.237   3.732  53.476  0.00  0.00    +0.000 OA
ENDROOT
BRANCH   1   4
ATOM      4  C   UNL     1      23.649   1.578  52.042  0.00  0.00    +0.000 A 
ATOM      5  C   UNL     1      22.358   1.088  52.279  0.00  0.00    +0.000 A 
ATOM      6  C   UNL     1      22.208  -0.037  53.070  0.00  0.00    +0.000 A 
ATOM      7  C   UNL     1      23.337  -0.677  53.579  0.00  0.00    +0.000 A 
ATOM      8  C   UNL     1      24.632  -0.295  53.185  0.00  0.00    +0.000 A 
ATOM      9  C   UNL     1      25.755  -0.996  53.650  0.00  0.00    +0.000 A 
ATOM     10  C   UNL     1      27.041  -0.680  53.208  0.00  0.00    +0.000 A 
ATOM     11  C   UNL     1      27.219   0.352  52.298  0.00  0.00    +0.000 A 
ATOM     12  C   UNL     1      26.122   1.107  51.882  0.00  0.00    +0.000 A 
ATOM     13  C   UNL     1      24.809   0.819  52.341  0.00  0.00    +0.000 A 
ENDBRANCH   1   4
BRANCH   1  21
ATOM     14  C   UNL     1      21.377   4.223  49.746  0.00  0.00    +0.000 A 
ATOM     15  N   UNL     1      21.079   5.149  48.800  0.00  0.00    +0.000 NA
ATOM     16  C   UNL     1      21.184   6.438  49.197  0.00  0.00    +0.000 A 
ATOM     17 BR   UNL     1      20.810   7.802  47.939  0.00  0.00    +0.000 Br
ATOM     18  C   UNL     1      21.544   6.790  50.495  0.00  0.00    +0.000 A 
ATOM     19  N   UNL     1      21.822   5.884  51.459  0.00  0.00    +0.000 NA
ATOM     20  C   UNL     1      21.744   4.597  51.051  0.00  0.00    +0.000 A 
ATOM     21  N   UNL     1      22.101   3.697  52.075  0.00  0.00    +0.000 N 
ATOM     22  H   UNL     1      21.444   3.296  52.689  0.00  0.00    +0.000 HD
BRANCH  14  24
ATOM     23  C   UNL     1      22.250   2.394  48.563  0.00  0.00    +0.000 C 
ATOM     24  O   UNL     1      21.240   2.882  49.445  0.00  0.00    +0.000 OA
ENDBRANCH  14  24
ENDBRANCH   1  21
TORSDOF 3
ENDMDL
MODEL 6
REMARK VINA RESULT:    -7.417      1.645      2.234
REMARK INTER + INTRA:          -9.013
REMARK INTER:                  -8.682
REMARK INTRA:                  -0.331
REMARK UNBOUND:                -0.295
REMARK  Name = 
REMARK  4 active torsions:
REMARK  status: ('A' for Active; 'I' for Inactive)
REMARK    1  A    between atoms: C_1  and  O_2
REMARK    2  A    between atoms: O_2  and  C_3
REMARK    3  A    between atoms: N_10  and  S_11
REMARK    4  A    between atoms: S_11  and  C_14
REMARK                            x       y       z     vdW  Elec       q    Type
REMARK                         _______ _______ _______ _____ _____    ______ ____
ROOT
ATOM      1  S   UNL     1      22.988   3.139  52.146  0.00  0.00    +0.000 S 
ATOM      2  O   UNL     1      24.083   3.692  52.921  0.00  0.00    +0.000 OA
ATOM      3  O   UNL     1      21.626   3.575  52.346  0.00  0.00    +0.000 OA
ENDROOT
BRANCH   1   4
ATOM      4  C   UNL     1      23.075   1.354  52.260  0.00  0.00    +0.000 A 
ATOM      5  C   UNL     1      21.882   0.760  52.695  0.00  0.00    +0.000 A 
ATOM      6  C   UNL     1      21.948  -0.258  53.629  0.00  0.00    +0.000 A 
ATOM      7  C   UNL     1      23.190  -0.696  54.086  0.00  0.00    +0.000 A 
ATOM      8  C   UNL     1      24.385  -0.229  53.509  0.00  0.00    +0.000 A 
ATOM      9  C   UNL     1      25.625  -0.734  53.931  0.00  0.00    +0.000 A 
ATOM     10  C   UNL     1      26.814  -0.340  53.315  0.00  0.00    +0.000 A 
ATOM     11  C   UNL     1      26.778   0.574  52.272  0.00  0.00    +0.000 A 
ATOM     12  C   UNL     1      25.561   1.140  51.890  0.00  0.00    +0.000 A 
ATOM     13  C   UNL     1      24.343   0.774  52.521  0.00  0.00    +0.000 A 
ENDBRANCH   1   4
BRANCH   1  21
ATOM     14  C   UNL     1      24.994   5.078  50.020  0.00  0.00    +0.000 A 
ATOM     15  N   UNL     1      25.245   6.355  49.635  0.00  0.00    +0.000 NA
ATOM     16  C   UNL     1      24.153   7.091  49.322  0.00  0.00    +0.000 A 
ATOM     17 BR   UNL     1      24.400   8.892  48.796  0.00  0.00    +0.000 Br
ATOM     18  C   UNL     1      22.865   6.565  49.363  0.00  0.00    +0.000 A 
ATOM     19  N   UNL     1      22.595   5.289  49.721  0.00  0.00    +0.000 NA
ATOM     20  C   UNL     1      23.686   4.565  50.061  0.00  0.00    +0.000 A 
ATOM     21  N   UNL     1      23.344   3.264  50.482  0.00  0.00    +0.000 N 
ATOM     22  H   UNL     1      23.313   2.494  49.870  0.00  0.00    +0.000 HD
BRANCH  14  24
ATOM     23  C   UNL     1      26.958   4.083  49.208  0.00  0.00    +0.000 C 
ATOM     24  O   UNL     1      26.054   4.237  50.301  0.00  0.00    +0.000 OA
ENDBRANCH  14  24
ENDBRANCH   1  21
TORSDOF 3
ENDMDL
MODEL 7
REMARK VINA RESULT:    -7.367      3.704      5.269
REMARK INTER + INTRA:          -8.955
REMARK INTER:                  -8.596
REMARK INTRA:                  -0.359
REMARK UNBOUND:                -0.295
REMARK  Name = 
REMARK  4 active torsions:
REMARK  status: ('A' for Active; 'I' for Inactive)
REMARK    1  A    between atoms: C_1  and  O_2
REMARK    2  A    between atoms: O_2  and  C_3
REMARK    3  A    between atoms: N_10  and  S_11
REMARK    4  A    between atoms: S_11  and  C_14
REMARK                            x       y       z     vdW  Elec       q    Type
REMARK                         _______ _______ _______ _____ _____    ______ ____
ROOT
ATOM      1  S   UNL     1      22.672   1.282  51.983  0.00  0.00    +0.000 S 
ATOM      2  O   UNL     1      22.176   0.835  50.694  0.00  0.00    +0.000 OA
ATOM      3  O   UNL     1      23.600   2.382  52.095  0.00  0.00    +0.000 OA
ENDROOT
BRANCH   1   4
ATOM      4  C   UNL     1      23.318  -0.146  52.851  0.00  0.00    +0.000 A 
ATOM      5  C   UNL     1      22.360  -0.809  53.631  0.00  0.00    +0.000 A 
ATOM      6  C   UNL     1      22.712  -1.230  54.901  0.00  0.00    +0.000 A 
ATOM      7  C   UNL     1      24.012  -1.023  55.361  0.00  0.00    +0.000 A 
ATOM      8  C   UNL     1      25.016  -0.530  54.509  0.00  0.00    +0.000 A 
ATOM      9  C   UNL     1      26.337  -0.395  54.967  0.00  0.00    +0.000 A 
ATOM     10  C   UNL     1      27.361   0.017  54.113  0.00  0.00    +0.000 A 
ATOM     11  C   UNL     1      27.073   0.311  52.788  0.00  0.00    +0.000 A 
ATOM     12  C   UNL     1      25.754   0.253  52.336  0.00  0.00    +0.000 A 
ATOM     13  C   UNL     1      24.694  -0.138  53.195  0.00  0.00    +0.000 A 
ENDBRANCH   1   4
BRANCH   1  21
ATOM     14  C   UNL     1      19.169   1.106  51.931  0.00  0.00    +0.000 A 
ATOM     15  N   UNL     1      18.073   1.554  51.269  0.00  0.00    +0.000 NA
ATOM     16  C   UNL     1      18.037   2.889  51.044  0.00  0.00    +0.000 A 
ATOM     17 BR   UNL     1      16.557   3.606  50.108  0.00  0.00    +0.000 Br
ATOM     18  C   UNL     1      19.041   3.745  51.487  0.00  0.00    +0.000 A 
ATOM     19  N   UNL     1      20.131   3.321  52.169  0.00  0.00    +0.000 NA
ATOM     20  C   UNL     1      20.176   1.984  52.366  0.00  0.00    +0.000 A 
ATOM     21  N   UNL     1      21.358   1.590  53.026  0.00  0.00    +0.000 N 
ATOM     22  H   UNL     1      21.420   1.500  54.005  0.00  0.00    +0.000 HD
BRANCH  14  24
ATOM     23  C   UNL     1      17.999  -0.831  52.553  0.00  0.00    +0.000 C 
ATOM     24  O   UNL     1      19.260  -0.234  52.255  0.00  0.00    +0.000 OA
ENDBRANCH  14  24
ENDBRANCH   1  21
TORSDOF 3
ENDMDL
MODEL 8
REMARK VINA RESULT:    -7.234      2.448      3.750
REMARK INTER + INTRA:          -8.798
REMARK INTER:                  -8.033
REMARK INTRA:                  -0.765
REMARK UNBOUND:                -0.295
REMARK  Name = 
REMARK  4 active torsions:
REMARK  status: ('A' for Active; 'I' for Inactive)
REMARK    1  A    between atoms: C_1  and  O_2
REMARK    2  A    between atoms: O_2  and  C_3
REMARK    3  A    between atoms: N_10  and  S_11
REMARK    4  A    between atoms: S_11  and  C_14
REMARK                            x       y       z     vdW  Elec       q    Type
REMARK                         _______ _______ _______ _____ _____    ______ ____
ROOT
ATOM      1  S   UNL     1      22.991   4.689  50.902  0.00  0.00    +0.000 S 
ATOM      2  O   UNL     1      24.089   4.889  51.829  0.00  0.00    +0.000 OA
ATOM      3  O   UNL     1      21.629   4.998  51.268  0.00  0.00    +0.000 OA
ENDROOT
BRANCH   1   4
ATOM      4  C   UNL     1      23.085   3.009  50.288  0.00  0.00    +0.000 A 
ATOM      5  C   UNL     1      23.025   2.918  48.891  0.00  0.00    +0.000 A 
ATOM      6  C   UNL     1      22.238   1.932  48.322  0.00  0.00    +0.000 A 
ATOM      7  C   UNL     1      21.559   1.033  49.142  0.00  0.00    +0.000 A 
ATOM      8  C   UNL     1      21.772   1.010  50.532  0.00  0.00    +0.000 A 
ATOM      9  C   UNL     1      21.136   0.050  51.335  0.00  0.00    +0.000 A 
ATOM     10  C   UNL     1      21.397  -0.037  52.704  0.00  0.00    +0.000 A 
ATOM     11  C   UNL     1      22.295   0.844  53.289  0.00  0.00    +0.000 A 
ATOM     12  C   UNL     1      22.880   1.850  52.519  0.00  0.00    +0.000 A 
ATOM     13  C   UNL     1      22.607   1.974  51.131  0.00  0.00    +0.000 A 
ENDBRANCH   1   4
BRANCH   1  21
ATOM     14  C   UNL     1      25.764   5.996  49.199  0.00  0.00    +0.000 A 
ATOM     15  N   UNL     1      26.780   6.889  49.309  0.00  0.00    +0.000 NA
ATOM     16  C   UNL     1      26.422   8.124  49.733  0.00  0.00    +0.000 A 
ATOM     17 BR   UNL     1      27.774   9.432  49.940  0.00  0.00    +0.000 Br
ATOM     18  C   UNL     1      25.100   8.462  50.007  0.00  0.00    +0.000 A 
ATOM     19  N   UNL     1      24.070   7.595  49.881  0.00  0.00    +0.000 NA
ATOM     20  C   UNL     1      24.435   6.354  49.485  0.00  0.00    +0.000 A 
ATOM     21  N   UNL     1      23.335   5.475  49.428  0.00  0.00    +0.000 N 
ATOM     22  H   UNL     1      22.810   5.328  48.609  0.00  0.00    +0.000 HD
BRANCH  14  24
ATOM     23  C   UNL     1      26.728   3.905  49.648  0.00  0.00    +0.000 C 
ATOM     24  O   UNL     1      26.029   4.729  48.717  0.00  0.00    +0.000 OA
ENDBRANCH  14  24
ENDBRANCH   1  21
TORSDOF 3
ENDMDL
MODEL 9
REMARK VINA RESULT:    -7.091      2.129      3.710
REMARK INTER + INTRA:          -8.629
REMARK INTER:                  -8.295
REMARK INTRA:                  -0.335
REMARK UNBOUND:                -0.295
REMARK  Name = 
REMARK  4 active torsions:
REMARK  status: ('A' for Active; 'I' for Inactive)
REMARK    1  A    between atoms: C_1  and  O_2
REMARK    2  A    between atoms: O_2  and  C_3
REMARK    3  A    between atoms: N_10  and  S_11
REMARK    4  A    between atoms: S_11  and  C_14
REMARK                            x       y       z     vdW  Elec       q    Type
REMARK                         _______ _______ _______ _____ _____    ______ ____
ROOT
ATOM      1  S   UNL     1      22.900   2.210  50.622  0.00  0.00    +0.000 S 
ATOM      2  O   UNL     1      21.949   1.203  50.188  0.00  0.00    +0.000 OA
ATOM      3  O   UNL     1      23.982   2.643  49.770  0.00  0.00    +0.000 OA
ENDROOT
BRANCH   1   4
ATOM      4  C   UNL     1      23.547   1.709  52.216  0.00  0.00    +0.000 A 
ATOM      5  C   UNL     1      24.946   1.636  52.256  0.00  0.00    +0.000 A 
ATOM      6  C   UNL     1      25.538   0.557  52.888  0.00  0.00    +0.000 A 
ATOM      7  C   UNL     1      24.738  -0.407  53.501  0.00  0.00    +0.000 A 
ATOM      8  C   UNL     1      23.348  -0.230  53.623  0.00  0.00    +0.000 A 
ATOM      9  C   UNL     1      22.567  -1.175  54.307  0.00  0.00    +0.000 A 
ATOM     10  C   UNL     1      21.199  -0.976  54.505  0.00  0.00    +0.000 A 
ATOM     11  C   UNL     1      20.593   0.169  54.010  0.00  0.00    +0.000 A 
ATOM     12  C   UNL     1      21.340   1.082  53.264  0.00  0.00    +0.000 A 
ATOM     13  C   UNL     1      22.726   0.886  53.028  0.00  0.00    +0.000 A 
ENDBRANCH   1   4
BRANCH   1  21
ATOM     14  C   UNL     1      22.339   5.515  49.587  0.00  0.00    +0.000 A 
ATOM     15  N   UNL     1      22.973   6.667  49.257  0.00  0.00    +0.000 NA
ATOM     16  C   UNL     1      23.930   7.072  50.125  0.00  0.00    +0.000 A 
ATOM     17 BR   UNL     1      24.886   8.658  49.738  0.00  0.00    +0.000 Br
ATOM     18  C   UNL     1      24.221   6.369  51.291  0.00  0.00    +0.000 A 
ATOM     19  N   UNL     1      23.585   5.231  51.650  0.00  0.00    +0.000 NA
ATOM     20  C   UNL     1      22.650   4.815  50.766  0.00  0.00    +0.000 A 
ATOM     21  N   UNL     1      22.061   3.595  51.158  0.00  0.00    +0.000 N 
ATOM     22  H   UNL     1      21.237   3.547  51.695  0.00  0.00    +0.000 HD
BRANCH  14  24
ATOM     23  C   UNL     1      21.757   4.445  47.581  0.00  0.00    +0.000 C 
ATOM     24  O   UNL     1      21.308   5.058  48.788  0.00  0.00    +0.000 OA
ENDBRANCH  14  24
ENDBRANCH   1  21
TORSDOF 3
ENDMDL
