MODEL 1
REMARK VINA RESULT:    -6.427      0.000      0.000
REMARK INTER + INTRA:         -13.236
REMARK INTER:                 -10.936
REMARK INTRA:                  -2.300
REMARK UNBOUND:                -2.300
REMARK  Name = 
REMARK  16 active torsions:
REMARK  status: ('A' for Active; 'I' for Inactive)
REMARK    1  A    between atoms: C_1  and  C_2
REMARK    2  A    between atoms: C_2  and  C_3
REMARK    3  A    between atoms: C_2  and  C_4
REMARK    4  A    between atoms: C_2  and  C_26
REMARK    5  A    between atoms: C_4  and  C_5
REMARK    6  A    between atoms: C_5  and  C_6
REMARK    7  A    between atoms: C_6  and  O_7
REMARK    8  A    between atoms: O_7  and  C_8
REMARK    9  A    between atoms: C_11  and  S_12
REMARK   10  A    between atoms: S_12  and  C_15
REMARK   11  A    between atoms: C_15  and  C_16
REMARK   12  A    between atoms: C_16  and  C_17
REMARK   13  A    between atoms: C_17  and  C_18
REMARK   14  A    between atoms: C_18  and  C_19
REMARK   15  A    between atoms: C_18  and  C_20
REMARK   16  A    between atoms: C_18  and  C_21
REMARK                            x       y       z     vdW  Elec       q    Type
REMARK                         _______ _______ _______ _____ _____    ______ ____
ROOT
ATOM      1  C   UNL     1      24.492   3.993  50.345  0.00  0.00    +0.000 A 
ATOM      2  C   UNL     1      23.664   4.807  51.125  0.00  0.00    +0.000 A 
ATOM      3  C   UNL     1      22.269   4.627  51.134  0.00  0.00    +0.000 A 
ATOM      4  C   UNL     1      21.676   3.656  50.321  0.00  0.00    +0.000 A 
ATOM      5  C   UNL     1      22.487   2.900  49.467  0.00  0.00    +0.000 A 
ATOM      6  C   UNL     1      23.886   3.078  49.475  0.00  0.00    +0.000 A 
ENDROOT
BRANCH   4   7
ATOM      7  S   UNL     1      20.006   3.112  50.684  0.00  0.00    +0.000 S 
ATOM      8  O   UNL     1      19.818   3.251  52.120  0.00  0.00    +0.000 OA
ATOM      9  O   UNL     1      19.147   3.857  49.780  0.00  0.00    +0.000 OA
BRANCH   7  10
ATOM     10  C   UNL     1      19.802   1.399  50.270  0.00  0.00    +0.000 C 
BRANCH  10  11
ATOM     11  C   UNL     1      19.998   0.385  51.403  0.00  0.00    +0.000 C 
BRANCH  11  12
ATOM     12  C   UNL     1      21.500   0.028  51.531  0.00  0.00    +0.000 C 
BRANCH  12  13
ATOM     13  C   UNL     1      22.162   0.080  52.940  0.00  0.00    +0.000 C 
ATOM     14  C   UNL     1      23.302  -0.940  53.074  0.00  0.00    +0.000 C 
ATOM     15  C   UNL     1      22.751   1.498  53.132  0.00  0.00    +0.000 C 
BRANCH  13  16
ATOM     16  C   UNL     1      21.197  -0.134  54.105  0.00  0.00    +0.000 C 
ATOM     17  O   UNL     1      20.722   0.741  54.810  0.00  0.00    +0.000 OA
ATOM     18  O   UNL     1      20.866  -1.415  54.336  0.00  0.00    +0.000 OA
ENDBRANCH  13  16
ENDBRANCH  12  13
ENDBRANCH  11  12
ENDBRANCH  10  11
ENDBRANCH   7  10
ENDBRANCH   4   7
BRANCH   1  19
ATOM     19  O   UNL     1      25.876   3.981  50.391  0.00  0.00    +0.000 OA
BRANCH  19  20
ATOM     20  C   UNL     1      26.471   2.705  50.684  0.00  0.00    +0.000 C 
BRANCH  20  21
ATOM     21  C   UNL     1      26.346   2.262  52.153  0.00  0.00    +0.000 C 
BRANCH  21  22
ATOM     22  C   UNL     1      27.540   1.642  52.899  0.00  0.00    +0.000 C 
BRANCH  22  24
ATOM     23  C   UNL     1      26.599   0.018  54.652  0.00  0.00    +0.000 C 
ATOM     24  C   UNL     1      27.452   0.170  53.382  0.00  0.00    +0.000 C 
ATOM     25  C   UNL     1      26.790  -0.692  52.282  0.00  0.00    +0.000 C 
BRANCH  24  26
ATOM     26  C   UNL     1      28.850  -0.383  53.622  0.00  0.00    +0.000 C 
ATOM     27  O   UNL     1      29.824   0.249  53.994  0.00  0.00    +0.000 OA
ATOM     28  O   UNL     1      28.954  -1.693  53.333  0.00  0.00    +0.000 OA
ENDBRANCH  24  26
ENDBRANCH  22  24
ENDBRANCH  21  22
ENDBRANCH  20  21
ENDBRANCH  19  20
ENDBRANCH   1  19
TORSDOF 12
ENDMDL
MODEL 2
REMARK VINA RESULT:    -6.325      1.507      4.610
REMARK INTER + INTRA:         -13.062
REMARK INTER:                 -10.573
REMARK INTRA:                  -2.489
REMARK UNBOUND:                -2.300
REMARK  Name = 
REMARK  16 active torsions:
REMARK  status: ('A' for Active; 'I' for Inactive)
REMARK    1  A    between atoms: C_1  and  C_2
REMARK    2  A    between atoms: C_2  and  C_3
REMARK    3  A    between atoms: C_2  and  C_4
REMARK    4  A    between atoms: C_2  and  C_26
REMARK    5  A    between atoms: C_4  and  C_5
REMARK    6  A    between atoms: C_5  and  C_6
REMARK    7  A    between atoms: C_6  and  O_7
REMARK    8  A    between atoms: O_7  and  C_8
REMARK    9  A    between atoms: C_11  and  S_12
REMARK   10  A    between atoms: S_12  and  C_15
REMARK   11  A    between atoms: C_15  and  C_16
REMARK   12  A    between atoms: C_16  and  C_17
REMARK   13  A    between atoms: C_17  and  C_18
REMARK   14  A    between atoms: C_18  and  C_19
REMARK   15  A    between atoms: C_18  and  C_20
REMARK   16  A    between atoms: C_18  and  C_21
REMARK                            x       y       z     vdW  Elec       q    Type
REMARK                         _______ _______ _______ _____ _____    ______ ____
ROOT
ATOM      1  C   UNL     1      22.473  -0.566  54.351  0.00  0.00    +0.000 A 
ATOM      2  C   UNL     1      22.818  -0.608  52.996  0.00  0.00    +0.000 A 
ATOM      3  C   UNL     1      21.984  -0.038  52.016  0.00  0.00    +0.000 A 
ATOM      4  C   UNL     1      20.763   0.542  52.377  0.00  0.00    +0.000 A 
ATOM      5  C   UNL     1      20.366   0.505  53.718  0.00  0.00    +0.000 A 
ATOM      6  C   UNL     1      21.215  -0.056  54.695  0.00  0.00    +0.000 A 
ENDROOT
BRANCH   4   7
ATOM      7  S   UNL     1      19.957   1.664  51.234  0.00  0.00    +0.000 S 
ATOM      8  O   UNL     1      19.997   1.035  49.924  0.00  0.00    +0.000 OA
ATOM      9  O   UNL     1      18.671   1.976  51.835  0.00  0.00    +0.000 OA
BRANCH   7  10
ATOM     10  C   UNL     1      20.846   3.196  51.132  0.00  0.00    +0.000 C 
BRANCH  10  11
ATOM     11  C   UNL     1      21.708   3.413  49.884  0.00  0.00    +0.000 C 
BRANCH  11  12
ATOM     12  C   UNL     1      23.085   2.730  50.074  0.00  0.00    +0.000 C 
BRANCH  12  13
ATOM     13  C   UNL     1      24.179   3.471  50.900  0.00  0.00    +0.000 C 
ATOM     14  C   UNL     1      24.197   3.012  52.365  0.00  0.00    +0.000 C 
ATOM     15  C   UNL     1      25.552   3.141  50.268  0.00  0.00    +0.000 C 
BRANCH  13  16
ATOM     16  C   UNL     1      24.065   4.995  50.885  0.00  0.00    +0.000 C 
ATOM     17  O   UNL     1      24.365   5.724  49.953  0.00  0.00    +0.000 OA
ATOM     18  O   UNL     1      23.583   5.537  52.015  0.00  0.00    +0.000 OA
ENDBRANCH  13  16
ENDBRANCH  12  13
ENDBRANCH  11  12
ENDBRANCH  10  11
ENDBRANCH   7  10
ENDBRANCH   4   7
BRANCH   1  19
ATOM     19  O   UNL     1      23.294  -0.947  55.398  0.00  0.00    +0.000 OA
BRANCH  19  20
ATOM     20  C   UNL     1      24.602  -1.407  55.018  0.00  0.00    +0.000 C 
BRANCH  20  21
ATOM     21  C   UNL     1      25.749  -0.442  55.372  0.00  0.00    +0.000 C 
BRANCH  21  22
ATOM     22  C   UNL     1      26.088   0.753  54.465  0.00  0.00    +0.000 C 
BRANCH  22  24
ATOM     23  C   UNL     1      26.544   0.004  52.050  0.00  0.00    +0.000 C 
ATOM     24  C   UNL     1      27.147   0.579  53.343  0.00  0.00    +0.000 C 
ATOM     25  C   UNL     1      27.752   1.957  52.991  0.00  0.00    +0.000 C 
BRANCH  24  26
ATOM     26  C   UNL     1      28.281  -0.311  53.831  0.00  0.00    +0.000 C 
ATOM     27  O   UNL     1      29.089  -0.039  54.703  0.00  0.00    +0.000 OA
ATOM     28  O   UNL     1      28.363  -1.474  53.161  0.00  0.00    +0.000 OA
ENDBRANCH  24  26
ENDBRANCH  22  24
ENDBRANCH  21  22
ENDBRANCH  20  21
ENDBRANCH  19  20
ENDBRANCH   1  19
TORSDOF 12
ENDMDL
MODEL 3
REMARK VINA RESULT:    -6.276      1.806      5.774
REMARK INTER + INTRA:         -12.979
REMARK INTER:                 -10.832
REMARK INTRA:                  -2.146
REMARK UNBOUND:                -2.300
REMARK  Name = 
REMARK  16 active torsions:
REMARK  status: ('A' for Active; 'I' for Inactive)
REMARK    1  A    between atoms: C_1  and  C_2
REMARK    2  A    between atoms: C_2  and  C_3
REMARK    3  A    between atoms: C_2  and  C_4
REMARK    4  A    between atoms: C_2  and  C_26
REMARK    5  A    between atoms: C_4  and  C_5
REMARK    6  A    between atoms: C_5  and  C_6
REMARK    7  A    between atoms: C_6  and  O_7
REMARK    8  A    between atoms: O_7  and  C_8
REMARK    9  A    between atoms: C_11  and  S_12
REMARK   10  A    between atoms: S_12  and  C_15
REMARK   11  A    between atoms: C_15  and  C_16
REMARK   12  A    between atoms: C_16  and  C_17
REMARK   13  A    between atoms: C_17  and  C_18
REMARK   14  A    between atoms: C_18  and  C_19
REMARK   15  A    between atoms: C_18  and  C_20
REMARK   16  A    between atoms: C_18  and  C_21
REMARK                            x       y       z     vdW  Elec       q    Type
REMARK                         _______ _______ _______ _____ _____    ______ ____
ROOT
ATOM      1  C   UNL     1      19.539   2.244  50.762  0.00  0.00    +0.000 A 
ATOM      2  C   UNL     1      20.167   2.734  51.912  0.00  0.00    +0.000 A 
ATOM      3  C   UNL     1      20.540   1.872  52.959  0.00  0.00    +0.000 A 
ATOM      4  C   UNL     1      20.243   0.506  52.891  0.00  0.00    +0.000 A 
ATOM      5  C   UNL     1      19.532   0.023  51.787  0.00  0.00    +0.000 A 
ATOM      6  C   UNL     1      19.175   0.892  50.736  0.00  0.00    +0.000 A 
ENDROOT
BRANCH   4   7
ATOM      7  S   UNL     1      21.121  -0.633  53.961  0.00  0.00    +0.000 S 
ATOM      8  O   UNL     1      21.382   0.071  55.207  0.00  0.00    +0.000 OA
ATOM      9  O   UNL     1      20.320  -1.845  53.982  0.00  0.00    +0.000 OA
BRANCH   7  10
ATOM     10  C   UNL     1      22.684  -1.080  53.250  0.00  0.00    +0.000 C 
BRANCH  10  11
ATOM     11  C   UNL     1      23.766   0.006  53.219  0.00  0.00    +0.000 C 
BRANCH  11  12
ATOM     12  C   UNL     1      25.058  -0.524  53.888  0.00  0.00    +0.000 C 
BRANCH  12  13
ATOM     13  C   UNL     1      26.402  -0.416  53.106  0.00  0.00    +0.000 C 
ATOM     14  C   UNL     1      26.821  -1.765  52.504  0.00  0.00    +0.000 C 
ATOM     15  C   UNL     1      26.195   0.592  51.950  0.00  0.00    +0.000 C 
BRANCH  13  16
ATOM     16  C   UNL     1      27.574   0.120  53.925  0.00  0.00    +0.000 C 
ATOM     17  O   UNL     1      27.703   0.026  55.135  0.00  0.00    +0.000 OA
ATOM     18  O   UNL     1      28.527   0.740  53.210  0.00  0.00    +0.000 OA
ENDBRANCH  13  16
ENDBRANCH  12  13
ENDBRANCH  11  12
ENDBRANCH  10  11
ENDBRANCH   7  10
ENDBRANCH   4   7
BRANCH   1  19
ATOM     19  O   UNL     1      19.283   2.977  49.615  0.00  0.00    +0.000 OA
BRANCH  19  20
ATOM     20  C   UNL     1      20.142   4.110  49.405  0.00  0.00    +0.000 C 
BRANCH  20  21
ATOM     21  C   UNL     1      21.488   3.778  48.735  0.00  0.00    +0.000 C 
BRANCH  21  22
ATOM     22  C   UNL     1      22.808   4.349  49.280  0.00  0.00    +0.000 C 
BRANCH  22  24
ATOM     23  C   UNL     1      23.214   2.008  50.257  0.00  0.00    +0.000 C 
ATOM     24  C   UNL     1      23.693   3.468  50.203  0.00  0.00    +0.000 C 
ATOM     25  C   UNL     1      25.141   3.454  49.663  0.00  0.00    +0.000 C 
BRANCH  24  26
ATOM     26  C   UNL     1      23.730   4.058  51.605  0.00  0.00    +0.000 C 
ATOM     27  O   UNL     1      23.879   3.440  52.646  0.00  0.00    +0.000 OA
ATOM     28  O   UNL     1      23.529   5.388  51.623  0.00  0.00    +0.000 OA
ENDBRANCH  24  26
ENDBRANCH  22  24
ENDBRANCH  21  22
ENDBRANCH  20  21
ENDBRANCH  19  20
ENDBRANCH   1  19
TORSDOF 12
ENDMDL
MODEL 4
REMARK VINA RESULT:    -6.159      1.868      5.605
REMARK INTER + INTRA:         -12.780
REMARK INTER:                 -10.481
REMARK INTRA:                  -2.300
REMARK UNBOUND:                -2.300
REMARK  Name = 
REMARK  16 active torsions:
REMARK  status: ('A' for Active; 'I' for Inactive)
REMARK    1  A    between atoms: C_1  and  C_2
REMARK    2  A    between atoms: C_2  and  C_3
REMARK    3  A    between atoms: C_2  and  C_4
REMARK    4  A    between atoms: C_2  and  C_26
REMARK    5  A    between atoms: C_4  and  C_5
REMARK    6  A    between atoms: C_5  and  C_6
REMARK    7  A    between atoms: C_6  and  O_7
REMARK    8  A    between atoms: O_7  and  C_8
REMARK    9  A    between atoms: C_11  and  S_12
REMARK   10  A    between atoms: S_12  and  C_15
REMARK   11  A    between atoms: C_15  and  C_16
REMARK   12  A    between atoms: C_16  and  C_17
REMARK   13  A    between atoms: C_17  and  C_18
REMARK   14  A    between atoms: C_18  and  C_19
REMARK   15  A    between atoms: C_18  and  C_20
REMARK   16  A    between atoms: C_18  and  C_21
REMARK                            x       y       z     vdW  Elec       q    Type
REMARK                         _______ _______ _______ _____ _____    ______ ____
ROOT
ATOM      1  C   UNL     1      20.362   2.052  50.281  0.00  0.00    +0.000 A 
ATOM      2  C   UNL     1      20.895   0.761  50.203  0.00  0.00    +0.000 A 
ATOM      3  C   UNL     1      21.288   0.066  51.361  0.00  0.00    +0.000 A 
ATOM      4  C   UNL     1      21.198   0.677  52.617  0.00  0.00    +0.000 A 
ATOM      5  C   UNL     1      20.755   2.001  52.695  0.00  0.00    +0.000 A 
ATOM      6  C   UNL     1      20.350   2.685  51.530  0.00  0.00    +0.000 A 
ENDROOT
BRANCH   4   7
ATOM      7  S   UNL     1      21.235  -0.345  54.090  0.00  0.00    +0.000 S 
ATOM      8  O   UNL     1      20.883   0.513  55.210  0.00  0.00    +0.000 OA
ATOM      9  O   UNL     1      20.402  -1.497  53.787  0.00  0.00    +0.000 OA
BRANCH   7  10
ATOM     10  C   UNL     1      22.870  -0.972  54.375  0.00  0.00    +0.000 C 
BRANCH  10  11
ATOM     11  C   UNL     1      24.009  -0.319  53.584  0.00  0.00    +0.000 C 
BRANCH  11  12
ATOM     12  C   UNL     1      25.332  -0.432  54.382  0.00  0.00    +0.000 C 
BRANCH  12  13
ATOM     13  C   UNL     1      26.641   0.116  53.737  0.00  0.00    +0.000 C 
ATOM     14  C   UNL     1      27.853  -0.072  54.661  0.00  0.00    +0.000 C 
ATOM     15  C   UNL     1      26.893  -0.678  52.433  0.00  0.00    +0.000 C 
BRANCH  13  16
ATOM     16  C   UNL     1      26.582   1.586  53.328  0.00  0.00    +0.000 C 
ATOM     17  O   UNL     1      25.994   2.472  53.928  0.00  0.00    +0.000 OA
ATOM     18  O   UNL     1      27.256   1.888  52.206  0.00  0.00    +0.000 OA
ENDBRANCH  13  16
ENDBRANCH  12  13
ENDBRANCH  11  12
ENDBRANCH  10  11
ENDBRANCH   7  10
ENDBRANCH   4   7
BRANCH   1  19
ATOM     19  O   UNL     1      19.799   2.750  49.227  0.00  0.00    +0.000 OA
BRANCH  19  20
ATOM     20  C   UNL     1      20.685   3.032  48.130  0.00  0.00    +0.000 C 
BRANCH  20  21
ATOM     21  C   UNL     1      21.836   3.997  48.468  0.00  0.00    +0.000 C 
BRANCH  21  22
ATOM     22  C   UNL     1      23.276   3.485  48.644  0.00  0.00    +0.000 C 
BRANCH  22  24
ATOM     23  C   UNL     1      23.294   4.773  50.867  0.00  0.00    +0.000 C 
ATOM     24  C   UNL     1      24.013   3.738  49.986  0.00  0.00    +0.000 C 
ATOM     25  C   UNL     1      24.077   2.420  50.792  0.00  0.00    +0.000 C 
BRANCH  24  26
ATOM     26  C   UNL     1      25.443   4.184  49.718  0.00  0.00    +0.000 C 
ATOM     27  O   UNL     1      25.861   5.329  49.746  0.00  0.00    +0.000 OA
ATOM     28  O   UNL     1      26.257   3.168  49.383  0.00  0.00    +0.000 OA
ENDBRANCH  24  26
ENDBRANCH  22  24
ENDBRANCH  21  22
ENDBRANCH  20  21
ENDBRANCH  19  20
ENDBRANCH   1  19
TORSDOF 12
ENDMDL
MODEL 5
REMARK VINA RESULT:    -6.145      1.460      4.591
REMARK INTER + INTRA:         -12.756
REMARK INTER:                 -10.463
REMARK INTRA:                  -2.293
REMARK UNBOUND:                -2.300
REMARK  Name = 
REMARK  16 active torsions:
REMARK  status: ('A' for Active; 'I' for Inactive)
REMARK    1  A    between atoms: C_1  and  C_2
REMARK    2  A    between atoms: C_2  and  C_3
REMARK    3  A    between atoms: C_2  and  C_4
REMARK    4  A    between atoms: C_2  and  C_26
REMARK    5  A    between atoms: C_4  and  C_5
REMARK    6  A    between atoms: C_5  and  C_6
REMARK    7  A    between atoms: C_6  and  O_7
REMARK    8  A    between atoms: O_7  and  C_8
REMARK    9  A    between atoms: C_11  and  S_12
REMARK   10  A    between atoms: S_12  and  C_15
REMARK   11  A    between atoms: C_15  and  C_16
REMARK   12  A    between atoms: C_16  and  C_17
REMARK   13  A    between atoms: C_17  and  C_18
REMARK   14  A    between atoms: C_18  and  C_19
REMARK   15  A    between atoms: C_18  and  C_20
REMARK   16  A    between atoms: C_18  and  C_21
REMARK                            x       y       z     vdW  Elec       q    Type
REMARK                         _______ _______ _______ _____ _____    ______ ____
ROOT
ATOM      1  C   UNL     1      21.350   0.679  52.530  0.00  0.00    +0.000 A 
ATOM      2  C   UNL     1      21.340   0.342  51.172  0.00  0.00    +0.000 A 
ATOM      3  C   UNL     1      20.943   1.274  50.195  0.00  0.00    +0.000 A 
ATOM      4  C   UNL     1      20.501   2.548  50.571  0.00  0.00    +0.000 A 
ATOM      5  C   UNL     1      20.418   2.861  51.932  0.00  0.00    +0.000 A 
ATOM      6  C   UNL     1      20.832   1.925  52.903  0.00  0.00    +0.000 A 
ENDROOT
BRANCH   4   7
ATOM      7  S   UNL     1      20.463   3.856  49.346  0.00  0.00    +0.000 S 
ATOM      8  O   UNL     1      19.160   3.798  48.703  0.00  0.00    +0.000 OA
ATOM      9  O   UNL     1      20.855   5.064  50.052  0.00  0.00    +0.000 OA
BRANCH   7  10
ATOM     10  C   UNL     1      21.698   3.582  48.101  0.00  0.00    +0.000 C 
BRANCH  10  11
ATOM     11  C   UNL     1      23.090   4.162  48.368  0.00  0.00    +0.000 C 
BRANCH  11  12
ATOM     12  C   UNL     1      23.885   3.211  49.296  0.00  0.00    +0.000 C 
BRANCH  12  13
ATOM     13  C   UNL     1      24.803   3.831  50.391  0.00  0.00    +0.000 C 
ATOM     14  C   UNL     1      24.280   3.543  51.806  0.00  0.00    +0.000 C 
ATOM     15  C   UNL     1      26.205   3.192  50.250  0.00  0.00    +0.000 C 
BRANCH  13  16
ATOM     16  C   UNL     1      25.016   5.339  50.265  0.00  0.00    +0.000 C 
ATOM     17  O   UNL     1      24.322   6.204  50.775  0.00  0.00    +0.000 OA
ATOM     18  O   UNL     1      26.074   5.700  49.521  0.00  0.00    +0.000 OA
ENDBRANCH  13  16
ENDBRANCH  12  13
ENDBRANCH  11  12
ENDBRANCH  10  11
ENDBRANCH   7  10
ENDBRANCH   4   7
BRANCH   1  19
ATOM     19  O   UNL     1      21.874  -0.103  53.544  0.00  0.00    +0.000 OA
BRANCH  19  20
ATOM     20  C   UNL     1      23.180  -0.647  53.290  0.00  0.00    +0.000 C 
BRANCH  20  21
ATOM     21  C   UNL     1      24.323   0.384  53.328  0.00  0.00    +0.000 C 
BRANCH  21  22
ATOM     22  C   UNL     1      25.634   0.145  52.559  0.00  0.00    +0.000 C 
BRANCH  22  24
ATOM     23  C   UNL     1      27.847   1.364  53.020  0.00  0.00    +0.000 C 
ATOM     24  C   UNL     1      26.978   0.136  53.335  0.00  0.00    +0.000 C 
ATOM     25  C   UNL     1      26.693   0.156  54.854  0.00  0.00    +0.000 C 
BRANCH  24  26
ATOM     26  C   UNL     1      27.747  -1.141  53.027  0.00  0.00    +0.000 C 
ATOM     27  O   UNL     1      28.937  -1.331  53.214  0.00  0.00    +0.000 OA
ATOM     28  O   UNL     1      26.984  -2.090  52.457  0.00  0.00    +0.000 OA
ENDBRANCH  24  26
ENDBRANCH  22  24
ENDBRANCH  21  22
ENDBRANCH  20  21
ENDBRANCH  19  20
ENDBRANCH   1  19
TORSDOF 12
ENDMDL
MODEL 6
REMARK VINA RESULT:    -5.978      1.881      4.798
REMARK INTER + INTRA:         -12.471
REMARK INTER:                 -10.029
REMARK INTRA:                  -2.442
REMARK UNBOUND:                -2.300
REMARK  Name = 
REMARK  16 active torsions:
REMARK  status: ('A' for Active; 'I' for Inactive)
REMARK    1  A    between atoms: C_1  and  C_2
REMARK    2  A    between atoms: C_2  and  C_3
REMARK    3  A    between atoms: C_2  and  C_4
REMARK    4  A    between atoms: C_2  and  C_26
REMARK    5  A    between atoms: C_4  and  C_5
REMARK    6  A    between atoms: C_5  and  C_6
REMARK    7  A    between atoms: C_6  and  O_7
REMARK    8  A    between atoms: O_7  and  C_8
REMARK    9  A    between atoms: C_11  and  S_12
REMARK   10  A    between atoms: S_12  and  C_15
REMARK   11  A    between atoms: C_15  and  C_16
REMARK   12  A    between atoms: C_16  and  C_17
REMARK   13  A    between atoms: C_17  and  C_18
REMARK   14  A    between atoms: C_18  and  C_19
REMARK   15  A    between atoms: C_18  and  C_20
REMARK   16  A    between atoms: C_18  and  C_21
REMARK                            x       y       z     vdW  Elec       q    Type
REMARK                         _______ _______ _______ _____ _____    ______ ____
ROOT
ATOM      1  C   UNL     1      22.095   0.817  53.043  0.00  0.00    +0.000 A 
ATOM      2  C   UNL     1      20.907   1.546  53.160  0.00  0.00    +0.000 A 
ATOM      3  C   UNL     1      20.349   2.208  52.051  0.00  0.00    +0.000 A 
ATOM      4  C   UNL     1      21.003   2.189  50.814  0.00  0.00    +0.000 A 
ATOM      5  C   UNL     1      22.238   1.542  50.711  0.00  0.00    +0.000 A 
ATOM      6  C   UNL     1      22.783   0.870  51.825  0.00  0.00    +0.000 A 
ENDROOT
BRANCH   4   7
ATOM      7  S   UNL     1      20.081   2.603  49.333  0.00  0.00    +0.000 S 
ATOM      8  O   UNL     1      20.743   1.939  48.221  0.00  0.00    +0.000 OA
ATOM      9  O   UNL     1      18.696   2.280  49.632  0.00  0.00    +0.000 OA
BRANCH   7  10
ATOM     10  C   UNL     1      20.133   4.351  49.032  0.00  0.00    +0.000 C 
BRANCH  10  11
ATOM     11  C   UNL     1      21.518   4.981  48.853  0.00  0.00    +0.000 C 
BRANCH  11  12
ATOM     12  C   UNL     1      21.938   5.703  50.158  0.00  0.00    +0.000 C 
BRANCH  12  13
ATOM     13  C   UNL     1      23.385   5.492  50.696  0.00  0.00    +0.000 C 
ATOM     14  C   UNL     1      23.387   4.859  52.094  0.00  0.00    +0.000 C 
ATOM     15  C   UNL     1      24.114   4.533  49.724  0.00  0.00    +0.000 C 
BRANCH  13  16
ATOM     16  C   UNL     1      24.235   6.760  50.750  0.00  0.00    +0.000 C 
ATOM     17  O   UNL     1      25.448   6.813  50.623  0.00  0.00    +0.000 OA
ATOM     18  O   UNL     1      23.546   7.895  50.952  0.00  0.00    +0.000 OA
ENDBRANCH  13  16
ENDBRANCH  12  13
ENDBRANCH  11  12
ENDBRANCH  10  11
ENDBRANCH   7  10
ENDBRANCH   4   7
BRANCH   1  19
ATOM     19  O   UNL     1      22.633   0.002  54.024  0.00  0.00    +0.000 OA
BRANCH  19  20
ATOM     20  C   UNL     1      23.687  -0.873  53.587  0.00  0.00    +0.000 C 
BRANCH  20  21
ATOM     21  C   UNL     1      25.096  -0.460  54.050  0.00  0.00    +0.000 C 
BRANCH  21  22
ATOM     22  C   UNL     1      26.195  -0.112  53.031  0.00  0.00    +0.000 C 
BRANCH  22  24
ATOM     23  C   UNL     1      26.567   1.840  51.403  0.00  0.00    +0.000 C 
ATOM     24  C   UNL     1      26.635   1.367  52.864  0.00  0.00    +0.000 C 
ATOM     25  C   UNL     1      25.690   2.278  53.683  0.00  0.00    +0.000 C 
BRANCH  24  26
ATOM     26  C   UNL     1      28.043   1.556  53.409  0.00  0.00    +0.000 C 
ATOM     27  O   UNL     1      28.575   2.617  53.686  0.00  0.00    +0.000 OA
ATOM     28  O   UNL     1      28.720   0.400  53.530  0.00  0.00    +0.000 OA
ENDBRANCH  24  26
ENDBRANCH  22  24
ENDBRANCH  21  22
ENDBRANCH  20  21
ENDBRANCH  19  20
ENDBRANCH   1  19
TORSDOF 12
ENDMDL
MODEL 7
REMARK VINA RESULT:    -5.920      1.765      5.941
REMARK INTER + INTRA:         -12.373
REMARK INTER:                 -10.072
REMARK INTRA:                  -2.301
REMARK UNBOUND:                -2.300
REMARK  Name = 
REMARK  16 active torsions:
REMARK  status: ('A' for Active; 'I' for Inactive)
REMARK    1  A    between atoms: C_1  and  C_2
REMARK    2  A    between atoms: C_2  and  C_3
REMARK    3  A    between atoms: C_2  and  C_4
REMARK    4  A    between atoms: C_2  and  C_26
REMARK    5  A    between atoms: C_4  and  C_5
REMARK    6  A    between atoms: C_5  and  C_6
REMARK    7  A    between atoms: C_6  and  O_7
REMARK    8  A    between atoms: O_7  and  C_8
REMARK    9  A    between atoms: C_11  and  S_12
REMARK   10  A    between atoms: S_12  and  C_15
REMARK   11  A    between atoms: C_15  and  C_16
REMARK   12  A    between atoms: C_16  and  C_17
REMARK   13  A    between atoms: C_17  and  C_18
REMARK   14  A    between atoms: C_18  and  C_19
REMARK   15  A    between atoms: C_18  and  C_20
REMARK   16  A    between atoms: C_18  and  C_21
REMARK                            x       y       z     vdW  Elec       q    Type
REMARK                         _______ _______ _______ _____ _____    ______ ____
ROOT
ATOM      1  C   UNL     1      20.673   2.479  48.940  0.00  0.00    +0.000 A 
ATOM      2  C   UNL     1      21.868   2.013  48.382  0.00  0.00    +0.000 A 
ATOM      3  C   UNL     1      23.086   2.681  48.610  0.00  0.00    +0.000 A 
ATOM      4  C   UNL     1      23.115   3.860  49.363  0.00  0.00    +0.000 A 
ATOM      5  C   UNL     1      21.912   4.385  49.846  0.00  0.00    +0.000 A 
ATOM      6  C   UNL     1      20.698   3.701  49.625  0.00  0.00    +0.000 A 
ENDROOT
BRANCH   4   7
ATOM      7  S   UNL     1      24.676   4.424  50.043  0.00  0.00    +0.000 S 
ATOM      8  O   UNL     1      25.404   5.063  48.958  0.00  0.00    +0.000 OA
ATOM      9  O   UNL     1      24.331   5.198  51.222  0.00  0.00    +0.000 OA
BRANCH   7  10
ATOM     10  C   UNL     1      25.642   3.049  50.612  0.00  0.00    +0.000 C 
BRANCH  10  11
ATOM     11  C   UNL     1      24.936   2.035  51.519  0.00  0.00    +0.000 C 
BRANCH  11  12
ATOM     12  C   UNL     1      25.635   1.993  52.901  0.00  0.00    +0.000 C 
BRANCH  12  13
ATOM     13  C   UNL     1      26.443   0.718  53.289  0.00  0.00    +0.000 C 
ATOM     14  C   UNL     1      25.747  -0.081  54.401  0.00  0.00    +0.000 C 
ATOM     15  C   UNL     1      26.542  -0.179  52.032  0.00  0.00    +0.000 C 
BRANCH  13  16
ATOM     16  C   UNL     1      27.881   0.984  53.729  0.00  0.00    +0.000 C 
ATOM     17  O   UNL     1      28.610   1.862  53.296  0.00  0.00    +0.000 OA
ATOM     18  O   UNL     1      28.343   0.160  54.684  0.00  0.00    +0.000 OA
ENDBRANCH  13  16
ENDBRANCH  12  13
ENDBRANCH  11  12
ENDBRANCH  10  11
ENDBRANCH   7  10
ENDBRANCH   4   7
BRANCH   1  19
ATOM     19  O   UNL     1      19.462   1.809  48.912  0.00  0.00    +0.000 OA
BRANCH  19  20
ATOM     20  C   UNL     1      18.761   1.753  50.166  0.00  0.00    +0.000 C 
BRANCH  20  21
ATOM     21  C   UNL     1      18.969   0.450  50.959  0.00  0.00    +0.000 C 
BRANCH  21  22
ATOM     22  C   UNL     1      19.524   0.474  52.394  0.00  0.00    +0.000 C 
BRANCH  22  24
ATOM     23  C   UNL     1      21.856  -0.006  51.429  0.00  0.00    +0.000 C 
ATOM     24  C   UNL     1      21.057   0.563  52.614  0.00  0.00    +0.000 C 
ATOM     25  C   UNL     1      21.467   2.046  52.771  0.00  0.00    +0.000 C 
BRANCH  24  26
ATOM     26  C   UNL     1      21.442  -0.159  53.898  0.00  0.00    +0.000 C 
ATOM     27  O   UNL     1      21.015   0.075  55.015  0.00  0.00    +0.000 OA
ATOM     28  O   UNL     1      22.379  -1.105  53.709  0.00  0.00    +0.000 OA
ENDBRANCH  24  26
ENDBRANCH  22  24
ENDBRANCH  21  22
ENDBRANCH  20  21
ENDBRANCH  19  20
ENDBRANCH   1  19
TORSDOF 12
ENDMDL
MODEL 8
REMARK VINA RESULT:    -5.885      2.324      7.892
REMARK INTER + INTRA:         -12.315
REMARK INTER:                 -10.966
REMARK INTRA:                  -1.348
REMARK UNBOUND:                -2.300
REMARK  Name = 
REMARK  16 active torsions:
REMARK  status: ('A' for Active; 'I' for Inactive)
REMARK    1  A    between atoms: C_1  and  C_2
REMARK    2  A    between atoms: C_2  and  C_3
REMARK    3  A    between atoms: C_2  and  C_4
REMARK    4  A    between atoms: C_2  and  C_26
REMARK    5  A    between atoms: C_4  and  C_5
REMARK    6  A    between atoms: C_5  and  C_6
REMARK    7  A    between atoms: C_6  and  O_7
REMARK    8  A    between atoms: O_7  and  C_8
REMARK    9  A    between atoms: C_11  and  S_12
REMARK   10  A    between atoms: S_12  and  C_15
REMARK   11  A    between atoms: C_15  and  C_16
REMARK   12  A    between atoms: C_16  and  C_17
REMARK   13  A    between atoms: C_17  and  C_18
REMARK   14  A    between atoms: C_18  and  C_19
REMARK   15  A    between atoms: C_18  and  C_20
REMARK   16  A    between atoms: C_18  and  C_21
REMARK                            x       y       z     vdW  Elec       q    Type
REMARK                         _______ _______ _______ _____ _____    ______ ____
ROOT
ATOM      1  C   UNL     1      22.675  -0.847  54.643  0.00  0.00    +0.000 A 
ATOM      2  C   UNL     1      23.652  -1.203  55.579  0.00  0.00    +0.000 A 
ATOM      3  C   UNL     1      25.022  -1.096  55.276  0.00  0.00    +0.000 A 
ATOM      4  C   UNL     1      25.434  -0.675  54.007  0.00  0.00    +0.000 A 
ATOM      5  C   UNL     1      24.465  -0.407  53.035  0.00  0.00    +0.000 A 
ATOM      6  C   UNL     1      23.094  -0.504  53.352  0.00  0.00    +0.000 A 
ENDROOT
BRANCH   4   7
ATOM      7  S   UNL     1      27.114  -0.089  53.785  0.00  0.00    +0.000 S 
ATOM      8  O   UNL     1      27.670   0.119  55.113  0.00  0.00    +0.000 OA
ATOM      9  O   UNL     1      27.746  -1.044  52.891  0.00  0.00    +0.000 OA
BRANCH   7  10
ATOM     10  C   UNL     1      27.125   1.471  52.939  0.00  0.00    +0.000 C 
BRANCH  10  11
ATOM     11  C   UNL     1      26.442   1.518  51.567  0.00  0.00    +0.000 C 
BRANCH  11  12
ATOM     12  C   UNL     1      25.978   2.964  51.264  0.00  0.00    +0.000 C 
BRANCH  12  13
ATOM     13  C   UNL     1      24.459   3.298  51.368  0.00  0.00    +0.000 C 
ATOM     14  C   UNL     1      23.597   2.267  50.625  0.00  0.00    +0.000 C 
ATOM     15  C   UNL     1      24.072   3.270  52.866  0.00  0.00    +0.000 C 
BRANCH  13  16
ATOM     16  C   UNL     1      24.075   4.687  50.862  0.00  0.00    +0.000 C 
ATOM     17  O   UNL     1      24.049   5.040  49.694  0.00  0.00    +0.000 OA
ATOM     18  O   UNL     1      23.740   5.565  51.821  0.00  0.00    +0.000 OA
ENDBRANCH  13  16
ENDBRANCH  12  13
ENDBRANCH  11  12
ENDBRANCH  10  11
ENDBRANCH   7  10
ENDBRANCH   4   7
BRANCH   1  19
ATOM     19  O   UNL     1      21.317  -0.760  54.898  0.00  0.00    +0.000 OA
BRANCH  19  20
ATOM     20  C   UNL     1      20.477  -1.534  54.025  0.00  0.00    +0.000 C 
BRANCH  20  21
ATOM     21  C   UNL     1      19.397  -0.721  53.287  0.00  0.00    +0.000 C 
BRANCH  21  22
ATOM     22  C   UNL     1      19.724   0.645  52.658  0.00  0.00    +0.000 C 
BRANCH  22  24
ATOM     23  C   UNL     1      19.994   1.116  50.147  0.00  0.00    +0.000 C 
ATOM     24  C   UNL     1      19.022   1.060  51.337  0.00  0.00    +0.000 C 
ATOM     25  C   UNL     1      17.932   0.021  50.988  0.00  0.00    +0.000 C 
BRANCH  24  26
ATOM     26  C   UNL     1      18.335   2.406  51.515  0.00  0.00    +0.000 C 
ATOM     27  O   UNL     1      18.883   3.491  51.614  0.00  0.00    +0.000 OA
ATOM     28  O   UNL     1      16.997   2.306  51.605  0.00  0.00    +0.000 OA
ENDBRANCH  24  26
ENDBRANCH  22  24
ENDBRANCH  21  22
ENDBRANCH  20  21
ENDBRANCH  19  20
ENDBRANCH   1  19
TORSDOF 12
ENDMDL
MODEL 9
REMARK VINA RESULT:    -5.777      2.737      6.623
REMARK INTER + INTRA:         -12.131
REMARK INTER:                 -10.256
REMARK INTRA:                  -1.874
REMARK UNBOUND:                -2.300
REMARK  Name = 
REMARK  16 active torsions:
REMARK  status: ('A' for Active; 'I' for Inactive)
REMARK    1  A    between atoms: C_1  and  C_2
REMARK    2  A    between atoms: C_2  and  C_3
REMARK    3  A    between atoms: C_2  and  C_4
REMARK    4  A    between atoms: C_2  and  C_26
REMARK    5  A    between atoms: C_4  and  C_5
REMARK    6  A    between atoms: C_5  and  C_6
REMARK    7  A    between atoms: C_6  and  O_7
REMARK    8  A    between atoms: O_7  and  C_8
REMARK    9  A    between atoms: C_11  and  S_12
REMARK   10  A    between atoms: S_12  and  C_15
REMARK   11  A    between atoms: C_15  and  C_16
REMARK   12  A    between atoms: C_16  and  C_17
REMARK   13  A    between atoms: C_17  and  C_18
REMARK   14  A    between atoms: C_18  and  C_19
REMARK   15  A    between atoms: C_18  and  C_20
REMARK   16  A    between atoms: C_18  and  C_21
REMARK                            x       y       z     vdW  Elec       q    Type
REMARK                         _______ _______ _______ _____ _____    ______ ____
ROOT
ATOM      1  C   UNL     1      25.266   3.184  51.014  0.00  0.00    +0.000 A 
ATOM      2  C   UNL     1      26.273   2.229  50.838  0.00  0.00    +0.000 A 
ATOM      3  C   UNL     1      26.512   1.238  51.808  0.00  0.00    +0.000 A 
ATOM      4  C   UNL     1      25.775   1.220  52.997  0.00  0.00    +0.000 A 
ATOM      5  C   UNL     1      24.830   2.226  53.223  0.00  0.00    +0.000 A 
ATOM      6  C   UNL     1      24.587   3.207  52.239  0.00  0.00    +0.000 A 
ENDROOT
BRANCH   4   7
ATOM      7  S   UNL     1      25.741  -0.279  53.980  0.00  0.00    +0.000 S 
ATOM      8  O   UNL     1      26.268  -1.347  53.145  0.00  0.00    +0.000 OA
ATOM      9  O   UNL     1      26.420   0.053  55.221  0.00  0.00    +0.000 OA
BRANCH   7  10
ATOM     10  C   UNL     1      24.075  -0.701  54.419  0.00  0.00    +0.000 C 
BRANCH  10  11
ATOM     11  C   UNL     1      23.043  -0.712  53.287  0.00  0.00    +0.000 C 
BRANCH  11  12
ATOM     12  C   UNL     1      21.879   0.251  53.630  0.00  0.00    +0.000 C 
BRANCH  12  13
ATOM     13  C   UNL     1      21.028   0.839  52.465  0.00  0.00    +0.000 C 
ATOM     14  C   UNL     1      20.697   2.321  52.691  0.00  0.00    +0.000 C 
ATOM     15  C   UNL     1      21.859   0.716  51.165  0.00  0.00    +0.000 C 
BRANCH  13  16
ATOM     16  C   UNL     1      19.719   0.099  52.196  0.00  0.00    +0.000 C 
ATOM     17  O   UNL     1      19.065   0.153  51.167  0.00  0.00    +0.000 OA
ATOM     18  O   UNL     1      19.287  -0.672  53.208  0.00  0.00    +0.000 OA
ENDBRANCH  13  16
ENDBRANCH  12  13
ENDBRANCH  11  12
ENDBRANCH  10  11
ENDBRANCH   7  10
ENDBRANCH   4   7
BRANCH   1  19
ATOM     19  O   UNL     1      24.845   4.089  50.055  0.00  0.00    +0.000 OA
BRANCH  19  20
ATOM     20  C   UNL     1      23.854   3.598  49.137  0.00  0.00    +0.000 C 
BRANCH  20  21
ATOM     21  C   UNL     1      22.892   4.672  48.596  0.00  0.00    +0.000 C 
BRANCH  21  22
ATOM     22  C   UNL     1      23.143   6.167  48.860  0.00  0.00    +0.000 C 
BRANCH  22  24
ATOM     23  C   UNL     1      21.824   5.809  51.034  0.00  0.00    +0.000 C 
ATOM     24  C   UNL     1      22.557   6.821  50.139  0.00  0.00    +0.000 C 
ATOM     25  C   UNL     1      23.706   7.425  50.978  0.00  0.00    +0.000 C 
BRANCH  24  26
ATOM     26  C   UNL     1      21.618   7.957  49.758  0.00  0.00    +0.000 C 
ATOM     27  O   UNL     1      20.637   8.324  50.381  0.00  0.00    +0.000 OA
ATOM     28  O   UNL     1      21.941   8.537  48.588  0.00  0.00    +0.000 OA
ENDBRANCH  24  26
ENDBRANCH  22  24
ENDBRANCH  21  22
ENDBRANCH  20  21
ENDBRANCH  19  20
ENDBRANCH   1  19
TORSDOF 12
ENDMDL
