MODEL 1
REMARK VINA RESULT:    -7.985      0.000      0.000
REMARK INTER + INTRA:         -14.391
REMARK INTER:                 -12.887
REMARK INTRA:                  -1.505
REMARK UNBOUND:                -1.505
REMARK  Name = 
REMARK  13 active torsions:
REMARK  status: ('A' for Active; 'I' for Inactive)
REMARK    1  A    between atoms: C_1  and  O_2
REMARK    2  A    between atoms: O_2  and  C_3
REMARK    3  A    between atoms: C_6  and  C_7
REMARK    4  A    between atoms: C_7  and  C_8
REMARK    5  A    between atoms: C_8  and  N_9
REMARK    6  A    between atoms: N_9  and  C_10
REMARK    7  A    between atoms: C_10  and  C_11
REMARK    8  A    between atoms: C_11  and  O_12
REMARK    9  A    between atoms: C_11  and  C_13
REMARK   10  A    between atoms: C_13  and  O_15
REMARK   11  A    between atoms: O_15  and  C_16
REMARK   12  A    between atoms: C_27  and  O_28
REMARK   13  A    between atoms: O_28  and  C_29
REMARK                            x       y       z     vdW  Elec       q    Type
REMARK                         _______ _______ _______ _____ _____    ______ ____
ROOT
ATOM      1  C   UNL     1      27.592   1.533  52.930  0.00  0.00    +0.000 C 
ENDROOT
BRANCH   1   2
ATOM      2  N   UNL     1      26.905   1.423  51.630  0.00  0.00    +0.000 N 
ATOM      3  H   UNL     1      27.570   1.094  50.930  0.00  0.00    +0.000 HD
ATOM      4  H   UNL     1      26.130   0.768  51.730  0.00  0.00    +0.000 HD
BRANCH   2   5
ATOM      5  C   UNL     1      26.357   2.729  51.197  0.00  0.00    +0.000 C 
BRANCH   5   6
ATOM      6  C   UNL     1      26.480   3.004  49.688  0.00  0.00    +0.000 C 
BRANCH   6  10
ATOM      7  C   UNL     1      27.056   7.219  48.840  0.00  0.00    +0.000 A 
ATOM      8  C   UNL     1      27.933   6.251  48.324  0.00  0.00    +0.000 A 
ATOM      9  C   UNL     1      27.732   4.891  48.574  0.00  0.00    +0.000 A 
ATOM     10  C   UNL     1      26.662   4.467  49.362  0.00  0.00    +0.000 A 
ATOM     11  C   UNL     1      25.781   5.429  49.869  0.00  0.00    +0.000 A 
ATOM     12  C   UNL     1      25.963   6.798  49.613  0.00  0.00    +0.000 A 
BRANCH   7  14
ATOM     13  C   UNL     1      28.429   9.124  49.259  0.00  0.00    +0.000 C 
ATOM     14  O   UNL     1      27.259   8.564  48.674  0.00  0.00    +0.000 OA
ENDBRANCH   7  14
BRANCH  12  15
ATOM     15  O   UNL     1      25.017   7.579  50.230  0.00  0.00    +0.000 OA
ATOM     16  C   UNL     1      23.749   6.996  50.489  0.00  0.00    +0.000 C 
ENDBRANCH  12  15
ENDBRANCH   6  10
ENDBRANCH   5   6
ENDBRANCH   2   5
ENDBRANCH   1   2
BRANCH   1  17
ATOM     17  C   UNL     1      27.577   0.208  53.723  0.00  0.00    +0.000 C 
BRANCH  17  18
ATOM     18  O   UNL     1      27.640   0.468  55.125  0.00  0.00    +0.000 OA
ATOM     19  H   UNL     1      26.743   0.473  55.494  0.00  0.00    +0.000 HD
ENDBRANCH  17  18
BRANCH  17  20
ATOM     20  C   UNL     1      26.309  -0.507  53.259  0.00  0.00    +0.000 C 
ATOM     21  O   UNL     1      26.288  -1.525  52.585  0.00  0.00    +0.000 OA
BRANCH  20  22
ATOM     22  O   UNL     1      25.214   0.303  53.585  0.00  0.00    +0.000 OA
BRANCH  22  23
ATOM     23  C   UNL     1      23.888  -0.155  53.804  0.00  0.00    +0.000 A 
ATOM     24  C   UNL     1      23.576  -0.999  54.870  0.00  0.00    +0.000 A 
ATOM     25  C   UNL     1      22.297  -1.539  54.954  0.00  0.00    +0.000 A 
ATOM     26  C   UNL     1      21.326  -1.193  54.012  0.00  0.00    +0.000 A 
ATOM     27  C   UNL     1      21.620  -0.302  52.963  0.00  0.00    +0.000 A 
ATOM     28  C   UNL     1      20.623   0.108  52.065  0.00  0.00    +0.000 A 
ATOM     29  C   UNL     1      20.920   0.975  51.016  0.00  0.00    +0.000 A 
ATOM     30  C   UNL     1      22.234   1.380  50.800  0.00  0.00    +0.000 A 
ATOM     31  C   UNL     1      23.234   0.986  51.689  0.00  0.00    +0.000 A 
ATOM     32  C   UNL     1      22.934   0.188  52.814  0.00  0.00    +0.000 A 
ENDBRANCH  22  23
ENDBRANCH  20  22
ENDBRANCH  17  20
ENDBRANCH   1  17
TORSDOF 11
ENDMDL
MODEL 2
REMARK VINA RESULT:    -7.936      2.610      3.949
REMARK INTER + INTRA:         -14.312
REMARK INTER:                 -11.344
REMARK INTRA:                  -2.968
REMARK UNBOUND:                -1.505
REMARK  Name = 
REMARK  13 active torsions:
REMARK  status: ('A' for Active; 'I' for Inactive)
REMARK    1  A    between atoms: C_1  and  O_2
REMARK    2  A    between atoms: O_2  and  C_3
REMARK    3  A    between atoms: C_6  and  C_7
REMARK    4  A    between atoms: C_7  and  C_8
REMARK    5  A    between atoms: C_8  and  N_9
REMARK    6  A    between atoms: N_9  and  C_10
REMARK    7  A    between atoms: C_10  and  C_11
REMARK    8  A    between atoms: C_11  and  O_12
REMARK    9  A    between atoms: C_11  and  C_13
REMARK   10  A    between atoms: C_13  and  O_15
REMARK   11  A    between atoms: O_15  and  C_16
REMARK   12  A    between atoms: C_27  and  O_28
REMARK   13  A    between atoms: O_28  and  C_29
REMARK                            x       y       z     vdW  Elec       q    Type
REMARK                         _______ _______ _______ _____ _____    ______ ____
ROOT
ATOM      1  C   UNL     1      27.494   1.609  52.153  0.00  0.00    +0.000 C 
ENDROOT
BRANCH   1   2
ATOM      2  N   UNL     1      27.229   2.960  51.626  0.00  0.00    +0.000 N 
ATOM      3  H   UNL     1      26.678   3.481  52.308  0.00  0.00    +0.000 HD
ATOM      4  H   UNL     1      28.124   3.420  51.458  0.00  0.00    +0.000 HD
BRANCH   2   5
ATOM      5  C   UNL     1      26.486   2.905  50.347  0.00  0.00    +0.000 C 
BRANCH   5   6
ATOM      6  C   UNL     1      25.858   4.241  49.916  0.00  0.00    +0.000 C 
BRANCH   6  10
ATOM      7  C   UNL     1      21.949   3.794  48.089  0.00  0.00    +0.000 A 
ATOM      8  C   UNL     1      22.679   2.673  48.518  0.00  0.00    +0.000 A 
ATOM      9  C   UNL     1      23.927   2.819  49.132  0.00  0.00    +0.000 A 
ATOM     10  C   UNL     1      24.482   4.085  49.312  0.00  0.00    +0.000 A 
ATOM     11  C   UNL     1      23.752   5.203  48.894  0.00  0.00    +0.000 A 
ATOM     12  C   UNL     1      22.491   5.072  48.290  0.00  0.00    +0.000 A 
BRANCH   7  14
ATOM     13  C   UNL     1      19.655   3.140  48.138  0.00  0.00    +0.000 C 
ATOM     14  O   UNL     1      20.757   3.687  47.422  0.00  0.00    +0.000 OA
ENDBRANCH   7  14
BRANCH  12  15
ATOM     15  O   UNL     1      21.957   6.282  47.918  0.00  0.00    +0.000 OA
ATOM     16  C   UNL     1      21.079   6.921  48.831  0.00  0.00    +0.000 C 
ENDBRANCH  12  15
ENDBRANCH   6  10
ENDBRANCH   5   6
ENDBRANCH   2   5
ENDBRANCH   1   2
BRANCH   1  17
ATOM     17  C   UNL     1      27.846   1.615  53.657  0.00  0.00    +0.000 C 
BRANCH  17  18
ATOM     18  O   UNL     1      28.338   2.897  54.046  0.00  0.00    +0.000 OA
ATOM     19  H   UNL     1      28.406   2.937  55.013  0.00  0.00    +0.000 HD
ENDBRANCH  17  18
BRANCH  17  20
ATOM     20  C   UNL     1      26.558   1.182  54.356  0.00  0.00    +0.000 C 
ATOM     21  O   UNL     1      26.440   0.181  55.045  0.00  0.00    +0.000 OA
BRANCH  20  22
ATOM     22  O   UNL     1      25.527   2.024  53.921  0.00  0.00    +0.000 OA
BRANCH  22  23
ATOM     23  C   UNL     1      24.283   1.596  53.388  0.00  0.00    +0.000 A 
ATOM     24  C   UNL     1      23.968   0.242  53.272  0.00  0.00    +0.000 A 
ATOM     25  C   UNL     1      22.804  -0.129  52.608  0.00  0.00    +0.000 A 
ATOM     26  C   UNL     1      21.939   0.848  52.112  0.00  0.00    +0.000 A 
ATOM     27  C   UNL     1      22.225   2.217  52.270  0.00  0.00    +0.000 A 
ATOM     28  C   UNL     1      21.316   3.198  51.844  0.00  0.00    +0.000 A 
ATOM     29  C   UNL     1      21.610   4.552  51.983  0.00  0.00    +0.000 A 
ATOM     30  C   UNL     1      22.850   4.946  52.474  0.00  0.00    +0.000 A 
ATOM     31  C   UNL     1      23.762   3.983  52.907  0.00  0.00    +0.000 A 
ATOM     32  C   UNL     1      23.442   2.609  52.866  0.00  0.00    +0.000 A 
ENDBRANCH  22  23
ENDBRANCH  20  22
ENDBRANCH  17  20
ENDBRANCH   1  17
TORSDOF 11
ENDMDL
MODEL 3
REMARK VINA RESULT:    -7.834      2.388      6.657
REMARK INTER + INTRA:         -14.147
REMARK INTER:                 -11.796
REMARK INTRA:                  -2.351
REMARK UNBOUND:                -1.505
REMARK  Name = 
REMARK  13 active torsions:
REMARK  status: ('A' for Active; 'I' for Inactive)
REMARK    1  A    between atoms: C_1  and  O_2
REMARK    2  A    between atoms: O_2  and  C_3
REMARK    3  A    between atoms: C_6  and  C_7
REMARK    4  A    between atoms: C_7  and  C_8
REMARK    5  A    between atoms: C_8  and  N_9
REMARK    6  A    between atoms: N_9  and  C_10
REMARK    7  A    between atoms: C_10  and  C_11
REMARK    8  A    between atoms: C_11  and  O_12
REMARK    9  A    between atoms: C_11  and  C_13
REMARK   10  A    between atoms: C_13  and  O_15
REMARK   11  A    between atoms: O_15  and  C_16
REMARK   12  A    between atoms: C_27  and  O_28
REMARK   13  A    between atoms: O_28  and  C_29
REMARK                            x       y       z     vdW  Elec       q    Type
REMARK                         _______ _______ _______ _____ _____    ______ ____
ROOT
ATOM      1  C   UNL     1      24.542   6.126  50.653  0.00  0.00    +0.000 C 
ENDROOT
BRANCH   1   2
ATOM      2  N   UNL     1      25.720   5.304  50.320  0.00  0.00    +0.000 N 
ATOM      3  H   UNL     1      26.139   5.658  49.461  0.00  0.00    +0.000 HD
ATOM      4  H   UNL     1      26.380   5.360  51.096  0.00  0.00    +0.000 HD
BRANCH   2   5
ATOM      5  C   UNL     1      25.350   3.883  50.127  0.00  0.00    +0.000 C 
BRANCH   5   6
ATOM      6  C   UNL     1      26.453   2.880  50.502  0.00  0.00    +0.000 C 
BRANCH   6  10
ATOM      7  C   UNL     1      25.224   0.097  53.595  0.00  0.00    +0.000 A 
ATOM      8  C   UNL     1      24.275   0.828  52.861  0.00  0.00    +0.000 A 
ATOM      9  C   UNL     1      24.670   1.705  51.846  0.00  0.00    +0.000 A 
ATOM     10  C   UNL     1      26.021   1.886  51.554  0.00  0.00    +0.000 A 
ATOM     11  C   UNL     1      26.967   1.151  52.277  0.00  0.00    +0.000 A 
ATOM     12  C   UNL     1      26.584   0.256  53.289  0.00  0.00    +0.000 A 
BRANCH   7  14
ATOM     13  C   UNL     1      23.505  -1.049  54.787  0.00  0.00    +0.000 C 
ATOM     14  O   UNL     1      24.881  -0.717  54.642  0.00  0.00    +0.000 OA
ENDBRANCH   7  14
BRANCH  12  15
ATOM     15  O   UNL     1      27.661  -0.336  53.903  0.00  0.00    +0.000 OA
ATOM     16  C   UNL     1      28.705   0.510  54.358  0.00  0.00    +0.000 C 
ENDBRANCH  12  15
ENDBRANCH   6  10
ENDBRANCH   5   6
ENDBRANCH   2   5
ENDBRANCH   1   2
BRANCH   1  17
ATOM     17  C   UNL     1      23.528   5.378  51.547  0.00  0.00    +0.000 C 
BRANCH  17  18
ATOM     18  O   UNL     1      23.862   5.547  52.924  0.00  0.00    +0.000 OA
ATOM     19  H   UNL     1      24.135   4.694  53.298  0.00  0.00    +0.000 HD
ENDBRANCH  17  18
BRANCH  17  20
ATOM     20  C   UNL     1      22.167   5.941  51.142  0.00  0.00    +0.000 C 
ATOM     21  O   UNL     1      21.909   7.129  51.023  0.00  0.00    +0.000 OA
BRANCH  20  22
ATOM     22  O   UNL     1      21.253   4.880  51.112  0.00  0.00    +0.000 OA
BRANCH  22  23
ATOM     23  C   UNL     1      21.454   3.638  50.453  0.00  0.00    +0.000 A 
ATOM     24  C   UNL     1      21.839   3.579  49.114  0.00  0.00    +0.000 A 
ATOM     25  C   UNL     1      21.877   2.345  48.474  0.00  0.00    +0.000 A 
ATOM     26  C   UNL     1      21.585   1.178  49.182  0.00  0.00    +0.000 A 
ATOM     27  C   UNL     1      21.245   1.226  50.547  0.00  0.00    +0.000 A 
ATOM     28  C   UNL     1      21.031   0.048  51.279  0.00  0.00    +0.000 A 
ATOM     29  C   UNL     1      20.675   0.098  52.625  0.00  0.00    +0.000 A 
ATOM     30  C   UNL     1      20.448   1.326  53.238  0.00  0.00    +0.000 A 
ATOM     31  C   UNL     1      20.664   2.506  52.525  0.00  0.00    +0.000 A 
ATOM     32  C   UNL     1      21.119   2.475  51.190  0.00  0.00    +0.000 A 
ENDBRANCH  22  23
ENDBRANCH  20  22
ENDBRANCH  17  20
ENDBRANCH   1  17
TORSDOF 11
ENDMDL
MODEL 4
REMARK VINA RESULT:    -7.809      1.393      2.411
REMARK INTER + INTRA:         -14.107
REMARK INTER:                 -13.090
REMARK INTRA:                  -1.017
REMARK UNBOUND:                -1.505
REMARK  Name = 
REMARK  13 active torsions:
REMARK  status: ('A' for Active; 'I' for Inactive)
REMARK    1  A    between atoms: C_1  and  O_2
REMARK    2  A    between atoms: O_2  and  C_3
REMARK    3  A    between atoms: C_6  and  C_7
REMARK    4  A    between atoms: C_7  and  C_8
REMARK    5  A    between atoms: C_8  and  N_9
REMARK    6  A    between atoms: N_9  and  C_10
REMARK    7  A    between atoms: C_10  and  C_11
REMARK    8  A    between atoms: C_11  and  O_12
REMARK    9  A    between atoms: C_11  and  C_13
REMARK   10  A    between atoms: C_13  and  O_15
REMARK   11  A    between atoms: O_15  and  C_16
REMARK   12  A    between atoms: C_27  and  O_28
REMARK   13  A    between atoms: O_28  and  C_29
REMARK                            x       y       z     vdW  Elec       q    Type
REMARK                         _______ _______ _______ _____ _____    ______ ____
ROOT
ATOM      1  C   UNL     1      26.870   1.761  52.248  0.00  0.00    +0.000 C 
ENDROOT
BRANCH   1   2
ATOM      2  N   UNL     1      27.238   3.012  51.562  0.00  0.00    +0.000 N 
ATOM      3  H   UNL     1      27.330   3.756  52.253  0.00  0.00    +0.000 HD
ATOM      4  H   UNL     1      28.120   2.862  51.072  0.00  0.00    +0.000 HD
BRANCH   2   5
ATOM      5  C   UNL     1      26.214   3.403  50.566  0.00  0.00    +0.000 C 
BRANCH   5   6
ATOM      6  C   UNL     1      26.742   3.537  49.127  0.00  0.00    +0.000 C 
BRANCH   6  10
ATOM      7  C   UNL     1      28.078   7.526  48.069  0.00  0.00    +0.000 A 
ATOM      8  C   UNL     1      26.764   7.296  48.508  0.00  0.00    +0.000 A 
ATOM      9  C   UNL     1      26.341   6.015  48.875  0.00  0.00    +0.000 A 
ATOM     10  C   UNL     1      27.215   4.932  48.793  0.00  0.00    +0.000 A 
ATOM     11  C   UNL     1      28.527   5.161  48.366  0.00  0.00    +0.000 A 
ATOM     12  C   UNL     1      28.970   6.444  48.009  0.00  0.00    +0.000 A 
BRANCH   7  14
ATOM     13  C   UNL     1      29.017   9.650  48.616  0.00  0.00    +0.000 C 
ATOM     14  O   UNL     1      28.508   8.753  47.636  0.00  0.00    +0.000 OA
ENDBRANCH   7  14
BRANCH  12  15
ATOM     15  O   UNL     1      30.275   6.452  47.581  0.00  0.00    +0.000 OA
ATOM     16  C   UNL     1      31.021   5.254  47.728  0.00  0.00    +0.000 C 
ENDBRANCH  12  15
ENDBRANCH   6  10
ENDBRANCH   5   6
ENDBRANCH   2   5
ENDBRANCH   1   2
BRANCH   1  17
ATOM     17  C   UNL     1      26.470   1.987  53.723  0.00  0.00    +0.000 C 
BRANCH  17  18
ATOM     18  O   UNL     1      25.400   2.928  53.807  0.00  0.00    +0.000 OA
ATOM     19  H   UNL     1      25.603   3.588  54.489  0.00  0.00    +0.000 HD
ENDBRANCH  17  18
BRANCH  17  20
ATOM     20  C   UNL     1      26.142   0.592  54.252  0.00  0.00    +0.000 C 
ATOM     21  O   UNL     1      26.704   0.051  55.192  0.00  0.00    +0.000 OA
BRANCH  20  22
ATOM     22  O   UNL     1      25.230  -0.001  53.369  0.00  0.00    +0.000 OA
BRANCH  22  23
ATOM     23  C   UNL     1      23.859  -0.247  53.643  0.00  0.00    +0.000 A 
ATOM     24  C   UNL     1      23.465  -1.098  54.676  0.00  0.00    +0.000 A 
ATOM     25  C   UNL     1      22.119  -1.424  54.808  0.00  0.00    +0.000 A 
ATOM     26  C   UNL     1      21.174  -0.860  53.949  0.00  0.00    +0.000 A 
ATOM     27  C   UNL     1      21.559   0.038  52.937  0.00  0.00    +0.000 A 
ATOM     28  C   UNL     1      20.601   0.666  52.127  0.00  0.00    +0.000 A 
ATOM     29  C   UNL     1      20.985   1.540  51.113  0.00  0.00    +0.000 A 
ATOM     30  C   UNL     1      22.335   1.736  50.840  0.00  0.00    +0.000 A 
ATOM     31  C   UNL     1      23.300   1.124  51.641  0.00  0.00    +0.000 A 
ATOM     32  C   UNL     1      22.928   0.314  52.735  0.00  0.00    +0.000 A 
ENDBRANCH  22  23
ENDBRANCH  20  22
ENDBRANCH  17  20
ENDBRANCH   1  17
TORSDOF 11
ENDMDL
MODEL 5
REMARK VINA RESULT:    -7.673      2.425      4.008
REMARK INTER + INTRA:         -13.888
REMARK INTER:                 -12.297
REMARK INTRA:                  -1.592
REMARK UNBOUND:                -1.505
REMARK  Name = 
REMARK  13 active torsions:
REMARK  status: ('A' for Active; 'I' for Inactive)
REMARK    1  A    between atoms: C_1  and  O_2
REMARK    2  A    between atoms: O_2  and  C_3
REMARK    3  A    between atoms: C_6  and  C_7
REMARK    4  A    between atoms: C_7  and  C_8
REMARK    5  A    between atoms: C_8  and  N_9
REMARK    6  A    between atoms: N_9  and  C_10
REMARK    7  A    between atoms: C_10  and  C_11
REMARK    8  A    between atoms: C_11  and  O_12
REMARK    9  A    between atoms: C_11  and  C_13
REMARK   10  A    between atoms: C_13  and  O_15
REMARK   11  A    between atoms: O_15  and  C_16
REMARK   12  A    between atoms: C_27  and  O_28
REMARK   13  A    between atoms: O_28  and  C_29
REMARK                            x       y       z     vdW  Elec       q    Type
REMARK                         _______ _______ _______ _____ _____    ______ ____
ROOT
ATOM      1  C   UNL     1      23.950   5.768  51.263  0.00  0.00    +0.000 C 
ENDROOT
BRANCH   1   2
ATOM      2  N   UNL     1      23.283   5.365  50.011  0.00  0.00    +0.000 N 
ATOM      3  H   UNL     1      22.908   4.424  50.123  0.00  0.00    +0.000 HD
ATOM      4  H   UNL     1      22.536   6.032  49.817  0.00  0.00    +0.000 HD
BRANCH   2   5
ATOM      5  C   UNL     1      24.225   5.376  48.869  0.00  0.00    +0.000 C 
BRANCH   5   6
ATOM      6  C   UNL     1      25.568   4.678  49.143  0.00  0.00    +0.000 C 
BRANCH   6  10
ATOM      7  C   UNL     1      29.031   7.104  48.173  0.00  0.00    +0.000 A 
ATOM      8  C   UNL     1      29.091   5.702  48.114  0.00  0.00    +0.000 A 
ATOM      9  C   UNL     1      27.967   4.921  48.400  0.00  0.00    +0.000 A 
ATOM     10  C   UNL     1      26.764   5.521  48.771  0.00  0.00    +0.000 A 
ATOM     11  C   UNL     1      26.700   6.918  48.821  0.00  0.00    +0.000 A 
ATOM     12  C   UNL     1      27.816   7.715  48.521  0.00  0.00    +0.000 A 
BRANCH   7  14
ATOM     13  C   UNL     1      31.223   7.746  48.863  0.00  0.00    +0.000 C 
ATOM     14  O   UNL     1      30.127   7.900  47.968  0.00  0.00    +0.000 OA
ENDBRANCH   7  14
BRANCH  12  15
ATOM     15  O   UNL     1      27.560   9.057  48.666  0.00  0.00    +0.000 OA
ATOM     16  C   UNL     1      26.274   9.524  48.288  0.00  0.00    +0.000 C 
ENDBRANCH  12  15
ENDBRANCH   6  10
ENDBRANCH   5   6
ENDBRANCH   2   5
ENDBRANCH   1   2
BRANCH   1  17
ATOM     17  C   UNL     1      23.838   4.697  52.369  0.00  0.00    +0.000 C 
BRANCH  17  18
ATOM     18  O   UNL     1      23.840   5.311  53.657  0.00  0.00    +0.000 OA
ATOM     19  H   UNL     1      24.711   5.702  53.828  0.00  0.00    +0.000 HD
ENDBRANCH  17  18
BRANCH  17  20
ATOM     20  C   UNL     1      22.566   3.922  52.028  0.00  0.00    +0.000 C 
ATOM     21  O   UNL     1      21.432   4.286  52.298  0.00  0.00    +0.000 OA
BRANCH  20  22
ATOM     22  O   UNL     1      22.945   2.669  51.529  0.00  0.00    +0.000 OA
BRANCH  22  23
ATOM     23  C   UNL     1      23.073   1.481  52.295  0.00  0.00    +0.000 A 
ATOM     24  C   UNL     1      21.992   0.947  52.996  0.00  0.00    +0.000 A 
ATOM     25  C   UNL     1      22.204  -0.129  53.851  0.00  0.00    +0.000 A 
ATOM     26  C   UNL     1      23.474  -0.698  53.960  0.00  0.00    +0.000 A 
ATOM     27  C   UNL     1      24.559  -0.196  53.218  0.00  0.00    +0.000 A 
ATOM     28  C   UNL     1      25.816  -0.818  53.266  0.00  0.00    +0.000 A 
ATOM     29  C   UNL     1      26.893  -0.308  52.546  0.00  0.00    +0.000 A 
ATOM     30  C   UNL     1      26.752   0.878  51.832  0.00  0.00    +0.000 A 
ATOM     31  C   UNL     1      25.507   1.504  51.769  0.00  0.00    +0.000 A 
ATOM     32  C   UNL     1      24.381   0.948  52.411  0.00  0.00    +0.000 A 
ENDBRANCH  22  23
ENDBRANCH  20  22
ENDBRANCH  17  20
ENDBRANCH   1  17
TORSDOF 11
ENDMDL
MODEL 6
REMARK VINA RESULT:    -7.666      3.334      6.300
REMARK INTER + INTRA:         -13.876
REMARK INTER:                 -12.049
REMARK INTRA:                  -1.827
REMARK UNBOUND:                -1.505
REMARK  Name = 
REMARK  13 active torsions:
REMARK  status: ('A' for Active; 'I' for Inactive)
REMARK    1  A    between atoms: C_1  and  O_2
REMARK    2  A    between atoms: O_2  and  C_3
REMARK    3  A    between atoms: C_6  and  C_7
REMARK    4  A    between atoms: C_7  and  C_8
REMARK    5  A    between atoms: C_8  and  N_9
REMARK    6  A    between atoms: N_9  and  C_10
REMARK    7  A    between atoms: C_10  and  C_11
REMARK    8  A    between atoms: C_11  and  O_12
REMARK    9  A    between atoms: C_11  and  C_13
REMARK   10  A    between atoms: C_13  and  O_15
REMARK   11  A    between atoms: O_15  and  C_16
REMARK   12  A    between atoms: C_27  and  O_28
REMARK   13  A    between atoms: O_28  and  C_29
REMARK                            x       y       z     vdW  Elec       q    Type
REMARK                         _______ _______ _______ _____ _____    ______ ____
ROOT
ATOM      1  C   UNL     1      23.434   3.060  49.287  0.00  0.00    +0.000 C 
ENDROOT
BRANCH   1   2
ATOM      2  N   UNL     1      23.365   3.753  50.587  0.00  0.00    +0.000 N 
ATOM      3  H   UNL     1      23.603   4.736  50.453  0.00  0.00    +0.000 HD
ATOM      4  H   UNL     1      22.417   3.657  50.951  0.00  0.00    +0.000 HD
BRANCH   2   5
ATOM      5  C   UNL     1      24.302   3.159  51.567  0.00  0.00    +0.000 C 
BRANCH   5   6
ATOM      6  C   UNL     1      25.665   2.753  50.981  0.00  0.00    +0.000 C 
BRANCH   6  10
ATOM      7  C   UNL     1      28.135   0.386  53.649  0.00  0.00    +0.000 A 
ATOM      8  C   UNL     1      28.459   1.722  53.359  0.00  0.00    +0.000 A 
ATOM      9  C   UNL     1      27.648   2.493  52.520  0.00  0.00    +0.000 A 
ATOM     10  C   UNL     1      26.507   1.942  51.938  0.00  0.00    +0.000 A 
ATOM     11  C   UNL     1      26.177   0.615  52.235  0.00  0.00    +0.000 A 
ATOM     12  C   UNL     1      26.975  -0.166  53.087  0.00  0.00    +0.000 A 
BRANCH   7  14
ATOM     13  C   UNL     1      30.017  -1.077  53.749  0.00  0.00    +0.000 C 
ATOM     14  O   UNL     1      28.941  -0.420  54.409  0.00  0.00    +0.000 OA
ENDBRANCH   7  14
BRANCH  12  15
ATOM     15  O   UNL     1      26.503  -1.450  53.219  0.00  0.00    +0.000 OA
ATOM     16  C   UNL     1      26.866  -2.389  52.219  0.00  0.00    +0.000 C 
ENDBRANCH  12  15
ENDBRANCH   6  10
ENDBRANCH   5   6
ENDBRANCH   2   5
ENDBRANCH   1   2
BRANCH   1  17
ATOM     17  C   UNL     1      22.039   2.713  48.724  0.00  0.00    +0.000 C 
BRANCH  17  18
ATOM     18  O   UNL     1      22.124   1.589  47.848  0.00  0.00    +0.000 OA
ATOM     19  H   UNL     1      21.368   1.594  47.241  0.00  0.00    +0.000 HD
ENDBRANCH  17  18
BRANCH  17  20
ATOM     20  C   UNL     1      21.165   2.500  49.959  0.00  0.00    +0.000 C 
ATOM     21  O   UNL     1      20.465   3.357  50.475  0.00  0.00    +0.000 OA
BRANCH  20  22
ATOM     22  O   UNL     1      21.452   1.231  50.477  0.00  0.00    +0.000 OA
BRANCH  22  23
ATOM     23  C   UNL     1      20.616   0.491  51.354  0.00  0.00    +0.000 A 
ATOM     24  C   UNL     1      19.243   0.388  51.136  0.00  0.00    +0.000 A 
ATOM     25  C   UNL     1      18.447  -0.218  52.102  0.00  0.00    +0.000 A 
ATOM     26  C   UNL     1      19.029  -0.764  53.248  0.00  0.00    +0.000 A 
ATOM     27  C   UNL     1      20.421  -0.708  53.450  0.00  0.00    +0.000 A 
ATOM     28  C   UNL     1      21.013  -1.328  54.561  0.00  0.00    +0.000 A 
ATOM     29  C   UNL     1      22.388  -1.255  54.770  0.00  0.00    +0.000 A 
ATOM     30  C   UNL     1      23.181  -0.493  53.917  0.00  0.00    +0.000 A 
ATOM     31  C   UNL     1      22.607   0.122  52.804  0.00  0.00    +0.000 A 
ATOM     32  C   UNL     1      21.232  -0.023  52.522  0.00  0.00    +0.000 A 
ENDBRANCH  22  23
ENDBRANCH  20  22
ENDBRANCH  17  20
ENDBRANCH   1  17
TORSDOF 11
ENDMDL
MODEL 7
REMARK VINA RESULT:    -7.640      1.758      2.657
REMARK INTER + INTRA:         -13.834
REMARK INTER:                 -12.906
REMARK INTRA:                  -0.927
REMARK UNBOUND:                -1.505
REMARK  Name = 
REMARK  13 active torsions:
REMARK  status: ('A' for Active; 'I' for Inactive)
REMARK    1  A    between atoms: C_1  and  O_2
REMARK    2  A    between atoms: O_2  and  C_3
REMARK    3  A    between atoms: C_6  and  C_7
REMARK    4  A    between atoms: C_7  and  C_8
REMARK    5  A    between atoms: C_8  and  N_9
REMARK    6  A    between atoms: N_9  and  C_10
REMARK    7  A    between atoms: C_10  and  C_11
REMARK    8  A    between atoms: C_11  and  O_12
REMARK    9  A    between atoms: C_11  and  C_13
REMARK   10  A    between atoms: C_13  and  O_15
REMARK   11  A    between atoms: O_15  and  C_16
REMARK   12  A    between atoms: C_27  and  O_28
REMARK   13  A    between atoms: O_28  and  C_29
REMARK                            x       y       z     vdW  Elec       q    Type
REMARK                         _______ _______ _______ _____ _____    ______ ____
ROOT
ATOM      1  C   UNL     1      27.160   1.731  52.039  0.00  0.00    +0.000 C 
ENDROOT
BRANCH   1   2
ATOM      2  N   UNL     1      27.233   3.049  51.382  0.00  0.00    +0.000 N 
ATOM      3  H   UNL     1      26.835   3.753  52.004  0.00  0.00    +0.000 HD
ATOM      4  H   UNL     1      28.213   3.254  51.183  0.00  0.00    +0.000 HD
BRANCH   2   5
ATOM      5  C   UNL     1      26.487   3.058  50.103  0.00  0.00    +0.000 C 
BRANCH   5   6
ATOM      6  C   UNL     1      26.603   4.368  49.306  0.00  0.00    +0.000 C 
BRANCH   6  10
ATOM      7  C   UNL     1      23.253   7.059  49.903  0.00  0.00    +0.000 A 
ATOM      8  C   UNL     1      24.142   7.238  48.830  0.00  0.00    +0.000 A 
ATOM      9  C   UNL     1      25.206   6.355  48.622  0.00  0.00    +0.000 A 
ATOM     10  C   UNL     1      25.417   5.285  49.491  0.00  0.00    +0.000 A 
ATOM     11  C   UNL     1      24.527   5.100  50.554  0.00  0.00    +0.000 A 
ATOM     12  C   UNL     1      23.446   5.970  50.767  0.00  0.00    +0.000 A 
BRANCH   7  14
ATOM     13  C   UNL     1      20.954   7.645  49.655  0.00  0.00    +0.000 C 
ATOM     14  O   UNL     1      22.243   7.942  50.180  0.00  0.00    +0.000 OA
ENDBRANCH   7  14
BRANCH  12  15
ATOM     15  O   UNL     1      22.716   5.640  51.882  0.00  0.00    +0.000 OA
ATOM     16  C   UNL     1      23.256   4.662  52.756  0.00  0.00    +0.000 C 
ENDBRANCH  12  15
ENDBRANCH   6  10
ENDBRANCH   5   6
ENDBRANCH   2   5
ENDBRANCH   1   2
BRANCH   1  17
ATOM     17  C   UNL     1      27.913   1.695  53.387  0.00  0.00    +0.000 C 
BRANCH  17  18
ATOM     18  O   UNL     1      27.840   2.968  54.029  0.00  0.00    +0.000 OA
ATOM     19  H   UNL     1      28.325   2.935  54.868  0.00  0.00    +0.000 HD
ENDBRANCH  17  18
BRANCH  17  20
ATOM     20  C   UNL     1      27.267   0.547  54.160  0.00  0.00    +0.000 C 
ATOM     21  O   UNL     1      27.739   0.023  55.156  0.00  0.00    +0.000 OA
BRANCH  20  22
ATOM     22  O   UNL     1      26.159   0.103  53.426  0.00  0.00    +0.000 OA
BRANCH  22  23
ATOM     23  C   UNL     1      24.883  -0.205  53.966  0.00  0.00    +0.000 A 
ATOM     24  C   UNL     1      24.748  -0.979  55.118  0.00  0.00    +0.000 A 
ATOM     25  C   UNL     1      23.478  -1.377  55.521  0.00  0.00    +0.000 A 
ATOM     26  C   UNL     1      22.353  -0.959  54.809  0.00  0.00    +0.000 A 
ATOM     27  C   UNL     1      22.479  -0.136  53.674  0.00  0.00    +0.000 A 
ATOM     28  C   UNL     1      21.344   0.351  53.007  0.00  0.00    +0.000 A 
ATOM     29  C   UNL     1      21.471   1.149  51.872  0.00  0.00    +0.000 A 
ATOM     30  C   UNL     1      22.731   1.405  51.341  0.00  0.00    +0.000 A 
ATOM     31  C   UNL     1      23.869   0.934  51.998  0.00  0.00    +0.000 A 
ATOM     32  C   UNL     1      23.763   0.207  53.202  0.00  0.00    +0.000 A 
ENDBRANCH  22  23
ENDBRANCH  20  22
ENDBRANCH  17  20
ENDBRANCH   1  17
TORSDOF 11
ENDMDL
MODEL 8
REMARK VINA RESULT:    -7.634      1.882      2.813
REMARK INTER + INTRA:         -13.824
REMARK INTER:                 -12.646
REMARK INTRA:                  -1.178
REMARK UNBOUND:                -1.505
REMARK  Name = 
REMARK  13 active torsions:
REMARK  status: ('A' for Active; 'I' for Inactive)
REMARK    1  A    between atoms: C_1  and  O_2
REMARK    2  A    between atoms: O_2  and  C_3
REMARK    3  A    between atoms: C_6  and  C_7
REMARK    4  A    between atoms: C_7  and  C_8
REMARK    5  A    between atoms: C_8  and  N_9
REMARK    6  A    between atoms: N_9  and  C_10
REMARK    7  A    between atoms: C_10  and  C_11
REMARK    8  A    between atoms: C_11  and  O_12
REMARK    9  A    between atoms: C_11  and  C_13
REMARK   10  A    between atoms: C_13  and  O_15
REMARK   11  A    between atoms: O_15  and  C_16
REMARK   12  A    between atoms: C_27  and  O_28
REMARK   13  A    between atoms: O_28  and  C_29
REMARK                            x       y       z     vdW  Elec       q    Type
REMARK                         _______ _______ _______ _____ _____    ______ ____
ROOT
ATOM      1  C   UNL     1      25.032   3.414  50.477  0.00  0.00    +0.000 C 
ENDROOT
BRANCH   1   2
ATOM      2  N   UNL     1      24.914   4.697  51.195  0.00  0.00    +0.000 N 
ATOM      3  H   UNL     1      24.012   4.731  51.668  0.00  0.00    +0.000 HD
ATOM      4  H   UNL     1      25.679   4.760  51.866  0.00  0.00    +0.000 HD
BRANCH   2   5
ATOM      5  C   UNL     1      25.015   5.846  50.266  0.00  0.00    +0.000 C 
BRANCH   5   6
ATOM      6  C   UNL     1      25.584   5.498  48.880  0.00  0.00    +0.000 C 
BRANCH   6  10
ATOM      7  C   UNL     1      29.633   6.971  48.369  0.00  0.00    +0.000 A 
ATOM      8  C   UNL     1      29.346   5.598  48.285  0.00  0.00    +0.000 A 
ATOM      9  C   UNL     1      28.037   5.126  48.423  0.00  0.00    +0.000 A 
ATOM     10  C   UNL     1      26.988   6.011  48.666  0.00  0.00    +0.000 A 
ATOM     11  C   UNL     1      27.270   7.380  48.740  0.00  0.00    +0.000 A 
ATOM     12  C   UNL     1      28.577   7.869  48.589  0.00  0.00    +0.000 A 
BRANCH   7  14
ATOM     13  C   UNL     1      31.722   7.315  49.467  0.00  0.00    +0.000 C 
ATOM     14  O   UNL     1      30.909   7.464  48.309  0.00  0.00    +0.000 OA
ENDBRANCH   7  14
BRANCH  12  15
ATOM     15  O   UNL     1      28.649   9.233  48.733  0.00  0.00    +0.000 OA
ATOM     16  C   UNL     1      27.530   9.998  48.315  0.00  0.00    +0.000 C 
ENDBRANCH  12  15
ENDBRANCH   6  10
ENDBRANCH   5   6
ENDBRANCH   2   5
ENDBRANCH   1   2
BRANCH   1  17
ATOM     17  C   UNL     1      25.981   2.422  51.185  0.00  0.00    +0.000 C 
BRANCH  17  18
ATOM     18  O   UNL     1      27.251   3.030  51.417  0.00  0.00    +0.000 OA
ATOM     19  H   UNL     1      27.585   3.408  50.589  0.00  0.00    +0.000 HD
ENDBRANCH  17  18
BRANCH  17  20
ATOM     20  C   UNL     1      25.229   2.002  52.447  0.00  0.00    +0.000 C 
ATOM     21  O   UNL     1      25.308   2.564  53.528  0.00  0.00    +0.000 OA
BRANCH  20  22
ATOM     22  O   UNL     1      24.595   0.780  52.184  0.00  0.00    +0.000 OA
BRANCH  22  23
ATOM     23  C   UNL     1      23.549   0.212  52.958  0.00  0.00    +0.000 A 
ATOM     24  C   UNL     1      23.809  -0.456  54.154  0.00  0.00    +0.000 A 
ATOM     25  C   UNL     1      22.772  -1.123  54.797  0.00  0.00    +0.000 A 
ATOM     26  C   UNL     1      21.478  -1.076  54.275  0.00  0.00    +0.000 A 
ATOM     27  C   UNL     1      21.199  -0.362  53.094  0.00  0.00    +0.000 A 
ATOM     28  C   UNL     1      19.886  -0.247  52.615  0.00  0.00    +0.000 A 
ATOM     29  C   UNL     1      19.614   0.444  51.436  0.00  0.00    +0.000 A 
ATOM     30  C   UNL     1      20.659   0.959  50.677  0.00  0.00    +0.000 A 
ATOM     31  C   UNL     1      21.970   0.859  51.145  0.00  0.00    +0.000 A 
ATOM     32  C   UNL     1      22.254   0.250  52.385  0.00  0.00    +0.000 A 
ENDBRANCH  22  23
ENDBRANCH  20  22
ENDBRANCH  17  20
ENDBRANCH   1  17
TORSDOF 11
ENDMDL
MODEL 9
REMARK VINA RESULT:    -7.604      1.412      2.439
REMARK INTER + INTRA:         -13.777
REMARK INTER:                 -12.799
REMARK INTRA:                  -0.978
REMARK UNBOUND:                -1.505
REMARK  Name = 
REMARK  13 active torsions:
REMARK  status: ('A' for Active; 'I' for Inactive)
REMARK    1  A    between atoms: C_1  and  O_2
REMARK    2  A    between atoms: O_2  and  C_3
REMARK    3  A    between atoms: C_6  and  C_7
REMARK    4  A    between atoms: C_7  and  C_8
REMARK    5  A    between atoms: C_8  and  N_9
REMARK    6  A    between atoms: N_9  and  C_10
REMARK    7  A    between atoms: C_10  and  C_11
REMARK    8  A    between atoms: C_11  and  O_12
REMARK    9  A    between atoms: C_11  and  C_13
REMARK   10  A    between atoms: C_13  and  O_15
REMARK   11  A    between atoms: O_15  and  C_16
REMARK   12  A    between atoms: C_27  and  O_28
REMARK   13  A    between atoms: O_28  and  C_29
REMARK                            x       y       z     vdW  Elec       q    Type
REMARK                         _______ _______ _______ _____ _____    ______ ____
ROOT
ATOM      1  C   UNL     1      27.222   1.667  51.980  0.00  0.00    +0.000 C 
ENDROOT
BRANCH   1   2
ATOM      2  N   UNL     1      27.046   3.025  51.435  0.00  0.00    +0.000 N 
ATOM      3  H   UNL     1      26.376   3.531  52.013  0.00  0.00    +0.000 HD
ATOM      4  H   UNL     1      27.952   3.493  51.438  0.00  0.00    +0.000 HD
BRANCH   2   5
ATOM      5  C   UNL     1      26.547   2.988  50.041  0.00  0.00    +0.000 C 
BRANCH   5   6
ATOM      6  C   UNL     1      25.705   4.208  49.631  0.00  0.00    +0.000 C 
BRANCH   6  10
ATOM      7  C   UNL     1      28.154   7.595  48.466  0.00  0.00    +0.000 A 
ATOM      8  C   UNL     1      28.534   6.282  48.142  0.00  0.00    +0.000 A 
ATOM      9  C   UNL     1      27.731   5.193  48.494  0.00  0.00    +0.000 A 
ATOM     10  C   UNL     1      26.541   5.388  49.194  0.00  0.00    +0.000 A 
ATOM     11  C   UNL     1      26.156   6.696  49.508  0.00  0.00    +0.000 A 
ATOM     12  C   UNL     1      26.945   7.800  49.148  0.00  0.00    +0.000 A 
BRANCH   7  14
ATOM     13  C   UNL     1      29.885   9.064  49.198  0.00  0.00    +0.000 C 
ATOM     14  O   UNL     1      28.946   8.680  48.200  0.00  0.00    +0.000 OA
ENDBRANCH   7  14
BRANCH  12  15
ATOM     15  O   UNL     1      26.413   8.990  49.581  0.00  0.00    +0.000 OA
ATOM     16  C   UNL     1      25.569   9.697  48.687  0.00  0.00    +0.000 C 
ENDBRANCH  12  15
ENDBRANCH   6  10
ENDBRANCH   5   6
ENDBRANCH   2   5
ENDBRANCH   1   2
BRANCH   1  17
ATOM     17  C   UNL     1      27.382   1.658  53.515  0.00  0.00    +0.000 C 
BRANCH  17  18
ATOM     18  O   UNL     1      27.530   2.990  54.006  0.00  0.00    +0.000 OA
ATOM     19  H   UNL     1      26.729   3.499  53.807  0.00  0.00    +0.000 HD
ENDBRANCH  17  18
BRANCH  17  20
ATOM     20  C   UNL     1      26.147   0.918  54.028  0.00  0.00    +0.000 C 
ATOM     21  O   UNL     1      26.020   0.469  55.156  0.00  0.00    +0.000 OA
BRANCH  20  22
ATOM     22  O   UNL     1      25.293   0.700  52.939  0.00  0.00    +0.000 OA
BRANCH  22  23
ATOM     23  C   UNL     1      23.975   1.211  52.812  0.00  0.00    +0.000 A 
ATOM     24  C   UNL     1      23.735   2.490  52.311  0.00  0.00    +0.000 A 
ATOM     25  C   UNL     1      22.442   3.001  52.347  0.00  0.00    +0.000 A 
ATOM     26  C   UNL     1      21.392   2.217  52.828  0.00  0.00    +0.000 A 
ATOM     27  C   UNL     1      21.618   0.906  53.288  0.00  0.00    +0.000 A 
ATOM     28  C   UNL     1      20.552   0.090  53.695  0.00  0.00    +0.000 A 
ATOM     29  C   UNL     1      20.780  -1.200  54.169  0.00  0.00    +0.000 A 
ATOM     30  C   UNL     1      22.083  -1.664  54.319  0.00  0.00    +0.000 A 
ATOM     31  C   UNL     1      23.153  -0.867  53.912  0.00  0.00    +0.000 A 
ATOM     32  C   UNL     1      22.936   0.404  53.338  0.00  0.00    +0.000 A 
ENDBRANCH  22  23
ENDBRANCH  20  22
ENDBRANCH  17  20
ENDBRANCH   1  17
TORSDOF 11
ENDMDL
