MODEL 1
REMARK VINA RESULT:    -8.223      0.000      0.000
REMARK INTER + INTRA:         -10.303
REMARK INTER:                 -10.146
REMARK INTRA:                  -0.157
REMARK UNBOUND:                -0.157
REMARK  Name = 
REMARK  8 active torsions:
REMARK  status: ('A' for Active; 'I' for Inactive)
REMARK    1  A    between atoms: C_1  and  C_2
REMARK    2  A    between atoms: C_5  and  N_6
REMARK    3  A    between atoms: N_6  and  S_7
REMARK    4  A    between atoms: S_7  and  C_10
REMARK    5  A    between atoms: C_15  and  N_16
REMARK    6  A    between atoms: N_16  and  C_17
REMARK    7  A    between atoms: N_16  and  C_18
REMARK    8  A    between atoms: C_23  and  C_24
REMARK                            x       y       z     vdW  Elec       q    Type
REMARK                         _______ _______ _______ _____ _____    ______ ____
ROOT
ATOM      1  C   UNL     1      23.427   1.449  51.674  0.00  0.00    +0.000 A 
ATOM      2  C   UNL     1      23.465   1.927  50.359  0.00  0.00    +0.000 A 
ATOM      3  C   UNL     1      22.340   1.828  49.563  0.00  0.00    +0.000 A 
ATOM      4  C   UNL     1      21.154   1.338  50.109  0.00  0.00    +0.000 A 
ATOM      5  C   UNL     1      21.068   0.797  51.414  0.00  0.00    +0.000 A 
ATOM      6  C   UNL     1      19.839   0.330  52.002  0.00  0.00    +0.000 A 
ATOM      7  C   UNL     1      19.927  -0.372  53.220  0.00  0.00    +0.000 A 
ATOM      8  C   UNL     1      21.137  -0.574  53.873  0.00  0.00    +0.000 A 
ATOM      9  C   UNL     1      22.289   0.006  53.368  0.00  0.00    +0.000 A 
ATOM     10  C   UNL     1      22.283   0.752  52.172  0.00  0.00    +0.000 A 
ENDROOT
BRANCH   1  11
ATOM     11  S   UNL     1      24.858   1.836  52.696  0.00  0.00    +0.000 S 
ATOM     12  O   UNL     1      24.487   2.914  53.588  0.00  0.00    +0.000 OA
ATOM     13  O   UNL     1      25.977   1.979  51.796  0.00  0.00    +0.000 OA
BRANCH  11  14
ATOM     14  N   UNL     1      25.200   0.481  53.676  0.00  0.00    +0.000 N 
ATOM     15  H   UNL     1      24.490  -0.073  54.075  0.00  0.00    +0.000 HD
BRANCH  14  20
ATOM     16  C   UNL     1      29.913  -1.230  53.472  0.00  0.00    +0.000 C 
ATOM     17  C   UNL     1      28.629  -0.585  53.836  0.00  0.00    +0.000 A 
ATOM     18  N   UNL     1      28.620   0.362  54.780  0.00  0.00    +0.000 NA
ATOM     19  O   UNL     1      27.324   0.827  54.831  0.00  0.00    +0.000 OA
ATOM     20  C   UNL     1      26.578   0.209  53.878  0.00  0.00    +0.000 A 
ATOM     21  C   UNL     1      27.324  -0.802  53.306  0.00  0.00    +0.000 A 
ATOM     22  C   UNL     1      26.883  -1.892  52.403  0.00  0.00    +0.000 C 
ENDBRANCH  14  20
ENDBRANCH  11  14
ENDBRANCH   1  11
BRANCH   6  23
ATOM     23  N   UNL     1      18.565   0.638  51.474  0.00  0.00    +0.000 N 
ATOM     24  C   UNL     1      18.050   1.994  51.686  0.00  0.00    +0.000 C 
ATOM     25  C   UNL     1      17.539  -0.401  51.397  0.00  0.00    +0.000 C 
ENDBRANCH   6  23
TORSDOF 4
ENDMDL
MODEL 2
REMARK VINA RESULT:    -7.790      4.208      6.220
REMARK INTER + INTRA:          -9.769
REMARK INTER:                  -9.695
REMARK INTRA:                  -0.074
REMARK UNBOUND:                -0.157
REMARK  Name = 
REMARK  8 active torsions:
REMARK  status: ('A' for Active; 'I' for Inactive)
REMARK    1  A    between atoms: C_1  and  C_2
REMARK    2  A    between atoms: C_5  and  N_6
REMARK    3  A    between atoms: N_6  and  S_7
REMARK    4  A    between atoms: S_7  and  C_10
REMARK    5  A    between atoms: C_15  and  N_16
REMARK    6  A    between atoms: N_16  and  C_17
REMARK    7  A    between atoms: N_16  and  C_18
REMARK    8  A    between atoms: C_23  and  C_24
REMARK                            x       y       z     vdW  Elec       q    Type
REMARK                         _______ _______ _______ _____ _____    ______ ____
ROOT
ATOM      1  C   UNL     1      25.160   3.655  50.870  0.00  0.00    +0.000 A 
ATOM      2  C   UNL     1      26.145   3.045  50.083  0.00  0.00    +0.000 A 
ATOM      3  C   UNL     1      26.861   3.802  49.177  0.00  0.00    +0.000 A 
ATOM      4  C   UNL     1      26.660   5.180  49.122  0.00  0.00    +0.000 A 
ATOM      5  C   UNL     1      25.648   5.845  49.856  0.00  0.00    +0.000 A 
ATOM      6  C   UNL     1      25.461   7.273  49.841  0.00  0.00    +0.000 A 
ATOM      7  C   UNL     1      24.296   7.783  50.447  0.00  0.00    +0.000 A 
ATOM      8  C   UNL     1      23.374   6.961  51.086  0.00  0.00    +0.000 A 
ATOM      9  C   UNL     1      23.641   5.609  51.217  0.00  0.00    +0.000 A 
ATOM     10  C   UNL     1      24.801   5.024  50.668  0.00  0.00    +0.000 A 
ENDROOT
BRANCH   1  11
ATOM     11  S   UNL     1      24.453   2.639  52.177  0.00  0.00    +0.000 S 
ATOM     12  O   UNL     1      24.533   1.257  51.756  0.00  0.00    +0.000 OA
ATOM     13  O   UNL     1      23.180   3.232  52.512  0.00  0.00    +0.000 OA
BRANCH  11  14
ATOM     14  N   UNL     1      25.434   2.789  53.565  0.00  0.00    +0.000 N 
ATOM     15  H   UNL     1      25.182   3.357  54.329  0.00  0.00    +0.000 HD
BRANCH  14  20
ATOM     16  C   UNL     1      28.983  -0.749  53.841  0.00  0.00    +0.000 C 
ATOM     17  C   UNL     1      28.210   0.510  53.723  0.00  0.00    +0.000 A 
ATOM     18  N   UNL     1      28.813   1.601  53.236  0.00  0.00    +0.000 NA
ATOM     19  O   UNL     1      27.833   2.567  53.162  0.00  0.00    +0.000 OA
ATOM     20  C   UNL     1      26.640   2.040  53.540  0.00  0.00    +0.000 A 
ATOM     21  C   UNL     1      26.845   0.770  54.041  0.00  0.00    +0.000 A 
ATOM     22  C   UNL     1      25.907  -0.106  54.783  0.00  0.00    +0.000 C 
ENDBRANCH  14  20
ENDBRANCH  11  14
ENDBRANCH   1  11
BRANCH   6  23
ATOM     23  N   UNL     1      26.434   8.173  49.351  0.00  0.00    +0.000 N 
ATOM     24  C   UNL     1      27.098   9.050  50.319  0.00  0.00    +0.000 C 
ATOM     25  C   UNL     1      26.292   8.738  48.010  0.00  0.00    +0.000 C 
ENDBRANCH   6  23
TORSDOF 4
ENDMDL
MODEL 3
REMARK VINA RESULT:    -7.759      2.510      7.098
REMARK INTER + INTRA:          -9.730
REMARK INTER:                  -9.290
REMARK INTRA:                  -0.440
REMARK UNBOUND:                -0.157
REMARK  Name = 
REMARK  8 active torsions:
REMARK  status: ('A' for Active; 'I' for Inactive)
REMARK    1  A    between atoms: C_1  and  C_2
REMARK    2  A    between atoms: C_5  and  N_6
REMARK    3  A    between atoms: N_6  and  S_7
REMARK    4  A    between atoms: S_7  and  C_10
REMARK    5  A    between atoms: C_15  and  N_16
REMARK    6  A    between atoms: N_16  and  C_17
REMARK    7  A    between atoms: N_16  and  C_18
REMARK    8  A    between atoms: C_23  and  C_24
REMARK                            x       y       z     vdW  Elec       q    Type
REMARK                         _______ _______ _______ _____ _____    ______ ____
ROOT
ATOM      1  C   UNL     1      23.847   1.909  51.374  0.00  0.00    +0.000 A 
ATOM      2  C   UNL     1      24.571   2.870  50.658  0.00  0.00    +0.000 A 
ATOM      3  C   UNL     1      25.939   2.959  50.825  0.00  0.00    +0.000 A 
ATOM      4  C   UNL     1      26.594   2.029  51.632  0.00  0.00    +0.000 A 
ATOM      5  C   UNL     1      25.912   1.067  52.415  0.00  0.00    +0.000 A 
ATOM      6  C   UNL     1      26.581   0.075  53.216  0.00  0.00    +0.000 A 
ATOM      7  C   UNL     1      25.792  -0.684  54.104  0.00  0.00    +0.000 A 
ATOM      8  C   UNL     1      24.413  -0.532  54.183  0.00  0.00    +0.000 A 
ATOM      9  C   UNL     1      23.769   0.324  53.304  0.00  0.00    +0.000 A 
ATOM     10  C   UNL     1      24.481   1.094  52.362  0.00  0.00    +0.000 A 
ENDROOT
BRANCH   1  11
ATOM     11  S   UNL     1      22.117   1.720  50.913  0.00  0.00    +0.000 S 
ATOM     12  O   UNL     1      21.956   0.406  50.326  0.00  0.00    +0.000 OA
ATOM     13  O   UNL     1      21.759   2.904  50.171  0.00  0.00    +0.000 OA
BRANCH  11  14
ATOM     14  N   UNL     1      21.176   1.741  52.337  0.00  0.00    +0.000 N 
ATOM     15  H   UNL     1      21.434   2.265  53.130  0.00  0.00    +0.000 HD
BRANCH  14  20
ATOM     16  C   UNL     1      17.518  -1.600  53.137  0.00  0.00    +0.000 C 
ATOM     17  C   UNL     1      18.422  -0.553  52.603  0.00  0.00    +0.000 A 
ATOM     18  N   UNL     1      17.991   0.237  51.613  0.00  0.00    +0.000 NA
ATOM     19  O   UNL     1      18.999   1.151  51.399  0.00  0.00    +0.000 OA
ATOM     20  C   UNL     1      19.998   0.951  52.299  0.00  0.00    +0.000 A 
ATOM     21  C   UNL     1      19.747  -0.211  53.001  0.00  0.00    +0.000 A 
ATOM     22  C   UNL     1      20.642  -0.966  53.910  0.00  0.00    +0.000 C 
ENDBRANCH  14  20
ENDBRANCH  11  14
ENDBRANCH   1  11
BRANCH   6  23
ATOM     23  N   UNL     1      27.951  -0.240  53.070  0.00  0.00    +0.000 N 
ATOM     24  C   UNL     1      28.308  -1.647  52.868  0.00  0.00    +0.000 C 
ATOM     25  C   UNL     1      28.958   0.552  53.775  0.00  0.00    +0.000 C 
ENDBRANCH   6  23
TORSDOF 4
ENDMDL
MODEL 4
REMARK VINA RESULT:    -7.677      3.545      6.943
REMARK INTER + INTRA:          -9.630
REMARK INTER:                  -8.892
REMARK INTRA:                  -0.738
REMARK UNBOUND:                -0.157
REMARK  Name = 
REMARK  8 active torsions:
REMARK  status: ('A' for Active; 'I' for Inactive)
REMARK    1  A    between atoms: C_1  and  C_2
REMARK    2  A    between atoms: C_5  and  N_6
REMARK    3  A    between atoms: N_6  and  S_7
REMARK    4  A    between atoms: S_7  and  C_10
REMARK    5  A    between atoms: C_15  and  N_16
REMARK    6  A    between atoms: N_16  and  C_17
REMARK    7  A    between atoms: N_16  and  C_18
REMARK    8  A    between atoms: C_23  and  C_24
REMARK                            x       y       z     vdW  Elec       q    Type
REMARK                         _______ _______ _______ _____ _____    ______ ____
ROOT
ATOM      1  C   UNL     1      24.085   2.216  50.585  0.00  0.00    +0.000 A 
ATOM      2  C   UNL     1      25.104   2.957  49.975  0.00  0.00    +0.000 A 
ATOM      3  C   UNL     1      26.403   2.836  50.428  0.00  0.00    +0.000 A 
ATOM      4  C   UNL     1      26.697   1.908  51.426  0.00  0.00    +0.000 A 
ATOM      5  C   UNL     1      25.705   1.167  52.112  0.00  0.00    +0.000 A 
ATOM      6  C   UNL     1      26.003   0.174  53.112  0.00  0.00    +0.000 A 
ATOM      7  C   UNL     1      24.925  -0.338  53.861  0.00  0.00    +0.000 A 
ATOM      8  C   UNL     1      23.611   0.048  53.625  0.00  0.00    +0.000 A 
ATOM      9  C   UNL     1      23.327   0.894  52.566  0.00  0.00    +0.000 A 
ATOM     10  C   UNL     1      24.345   1.425  51.746  0.00  0.00    +0.000 A 
ENDROOT
BRANCH   1  11
ATOM     11  S   UNL     1      22.478   2.265  49.774  0.00  0.00    +0.000 S 
ATOM     12  O   UNL     1      21.835   0.986  49.986  0.00  0.00    +0.000 OA
ATOM     13  O   UNL     1      22.710   2.758  48.438  0.00  0.00    +0.000 OA
BRANCH  11  14
ATOM     14  N   UNL     1      21.516   3.436  50.559  0.00  0.00    +0.000 N 
ATOM     15  H   UNL     1      20.711   3.196  51.074  0.00  0.00    +0.000 HD
BRANCH  14  20
ATOM     16  C   UNL     1      23.814   7.880  50.944  0.00  0.00    +0.000 C 
ATOM     17  C   UNL     1      22.913   6.747  50.626  0.00  0.00    +0.000 A 
ATOM     18  N   UNL     1      22.069   6.856  49.595  0.00  0.00    +0.000 NA
ATOM     19  O   UNL     1      21.441   5.633  49.495  0.00  0.00    +0.000 OA
ATOM     20  C   UNL     1      21.955   4.778  50.417  0.00  0.00    +0.000 A 
ATOM     21  C   UNL     1      22.799   5.475  51.259  0.00  0.00    +0.000 A 
ATOM     22  C   UNL     1      23.404   5.045  52.542  0.00  0.00    +0.000 C 
ENDBRANCH  14  20
ENDBRANCH  11  14
ENDBRANCH   1  11
BRANCH   6  23
ATOM     23  N   UNL     1      27.291  -0.378  53.292  0.00  0.00    +0.000 N 
ATOM     24  C   UNL     1      27.509  -1.757  52.848  0.00  0.00    +0.000 C 
ATOM     25  C   UNL     1      28.105   0.032  54.436  0.00  0.00    +0.000 C 
ENDBRANCH   6  23
TORSDOF 4
ENDMDL
MODEL 5
REMARK VINA RESULT:    -7.607      2.531      7.772
REMARK INTER + INTRA:          -9.543
REMARK INTER:                  -8.879
REMARK INTRA:                  -0.663
REMARK UNBOUND:                -0.157
REMARK  Name = 
REMARK  8 active torsions:
REMARK  status: ('A' for Active; 'I' for Inactive)
REMARK    1  A    between atoms: C_1  and  C_2
REMARK    2  A    between atoms: C_5  and  N_6
REMARK    3  A    between atoms: N_6  and  S_7
REMARK    4  A    between atoms: S_7  and  C_10
REMARK    5  A    between atoms: C_15  and  N_16
REMARK    6  A    between atoms: N_16  and  C_17
REMARK    7  A    between atoms: N_16  and  C_18
REMARK    8  A    between atoms: C_23  and  C_24
REMARK                            x       y       z     vdW  Elec       q    Type
REMARK                         _______ _______ _______ _____ _____    ______ ____
ROOT
ATOM      1  C   UNL     1      22.650   1.781  52.327  0.00  0.00    +0.000 A 
ATOM      2  C   UNL     1      22.010   0.764  53.045  0.00  0.00    +0.000 A 
ATOM      3  C   UNL     1      22.751  -0.284  53.553  0.00  0.00    +0.000 A 
ATOM      4  C   UNL     1      24.139  -0.270  53.425  0.00  0.00    +0.000 A 
ATOM      5  C   UNL     1      24.837   0.704  52.669  0.00  0.00    +0.000 A 
ATOM      6  C   UNL     1      26.273   0.753  52.568  0.00  0.00    +0.000 A 
ATOM      7  C   UNL     1      26.827   1.640  51.623  0.00  0.00    +0.000 A 
ATOM      8  C   UNL     1      26.040   2.480  50.846  0.00  0.00    +0.000 A 
ATOM      9  C   UNL     1      24.672   2.523  51.058  0.00  0.00    +0.000 A 
ATOM     10  C   UNL     1      24.041   1.693  52.008  0.00  0.00    +0.000 A 
ENDROOT
BRANCH   1  11
ATOM     11  S   UNL     1      21.639   3.212  51.912  0.00  0.00    +0.000 S 
ATOM     12  O   UNL     1      21.430   3.206  50.480  0.00  0.00    +0.000 OA
ATOM     13  O   UNL     1      22.251   4.346  52.561  0.00  0.00    +0.000 OA
BRANCH  11  14
ATOM     14  N   UNL     1      20.106   3.014  52.635  0.00  0.00    +0.000 N 
ATOM     15  H   UNL     1      19.988   2.945  53.610  0.00  0.00    +0.000 HD
BRANCH  14  20
ATOM     16  C   UNL     1      16.333   1.624  49.631  0.00  0.00    +0.000 C 
ATOM     17  C   UNL     1      17.401   2.346  50.364  0.00  0.00    +0.000 A 
ATOM     18  N   UNL     1      17.405   3.684  50.358  0.00  0.00    +0.000 NA
ATOM     19  O   UNL     1      18.442   4.058  51.184  0.00  0.00    +0.000 OA
ATOM     20  C   UNL     1      19.012   2.954  51.732  0.00  0.00    +0.000 A 
ATOM     21  C   UNL     1      18.479   1.827  51.138  0.00  0.00    +0.000 A 
ATOM     22  C   UNL     1      18.936   0.419  51.224  0.00  0.00    +0.000 C 
ENDBRANCH  14  20
ENDBRANCH  11  14
ENDBRANCH   1  11
BRANCH   6  23
ATOM     23  N   UNL     1      27.133   0.045  53.437  0.00  0.00    +0.000 N 
ATOM     24  C   UNL     1      27.910   0.821  54.407  0.00  0.00    +0.000 C 
ATOM     25  C   UNL     1      27.779  -1.184  52.977  0.00  0.00    +0.000 C 
ENDBRANCH   6  23
TORSDOF 4
ENDMDL
MODEL 6
REMARK VINA RESULT:    -7.595      3.528      7.293
REMARK INTER + INTRA:          -9.528
REMARK INTER:                  -8.863
REMARK INTRA:                  -0.665
REMARK UNBOUND:                -0.157
REMARK  Name = 
REMARK  8 active torsions:
REMARK  status: ('A' for Active; 'I' for Inactive)
REMARK    1  A    between atoms: C_1  and  C_2
REMARK    2  A    between atoms: C_5  and  N_6
REMARK    3  A    between atoms: N_6  and  S_7
REMARK    4  A    between atoms: S_7  and  C_10
REMARK    5  A    between atoms: C_15  and  N_16
REMARK    6  A    between atoms: N_16  and  C_17
REMARK    7  A    between atoms: N_16  and  C_18
REMARK    8  A    between atoms: C_23  and  C_24
REMARK                            x       y       z     vdW  Elec       q    Type
REMARK                         _______ _______ _______ _____ _____    ______ ____
ROOT
ATOM      1  C   UNL     1      22.688   1.979  52.427  0.00  0.00    +0.000 A 
ATOM      2  C   UNL     1      21.873   1.008  53.022  0.00  0.00    +0.000 A 
ATOM      3  C   UNL     1      22.423  -0.196  53.418  0.00  0.00    +0.000 A 
ATOM      4  C   UNL     1      23.798  -0.392  53.306  0.00  0.00    +0.000 A 
ATOM      5  C   UNL     1      24.664   0.531  52.671  0.00  0.00    +0.000 A 
ATOM      6  C   UNL     1      26.091   0.357  52.590  0.00  0.00    +0.000 A 
ATOM      7  C   UNL     1      26.807   1.239  51.756  0.00  0.00    +0.000 A 
ATOM      8  C   UNL     1      26.186   2.275  51.068  0.00  0.00    +0.000 A 
ATOM      9  C   UNL     1      24.837   2.516  51.270  0.00  0.00    +0.000 A 
ATOM     10  C   UNL     1      24.055   1.702  52.115  0.00  0.00    +0.000 A 
ENDROOT
BRANCH   1  11
ATOM     11  S   UNL     1      21.931   3.591  52.164  0.00  0.00    +0.000 S 
ATOM     12  O   UNL     1      22.776   4.585  52.792  0.00  0.00    +0.000 OA
ATOM     13  O   UNL     1      20.546   3.459  52.544  0.00  0.00    +0.000 OA
BRANCH  11  14
ATOM     14  N   UNL     1      21.943   3.923  50.490  0.00  0.00    +0.000 N 
ATOM     15  H   UNL     1      21.897   3.211  49.812  0.00  0.00    +0.000 HD
BRANCH  14  20
ATOM     16  C   UNL     1      23.199   8.424  48.661  0.00  0.00    +0.000 C 
ATOM     17  C   UNL     1      22.607   7.283  49.399  0.00  0.00    +0.000 A 
ATOM     18  N   UNL     1      21.458   7.460  50.059  0.00  0.00    +0.000 NA
ATOM     19  O   UNL     1      21.119   6.221  50.558  0.00  0.00    +0.000 OA
ATOM     20  C   UNL     1      22.024   5.297  50.144  0.00  0.00    +0.000 A 
ATOM     21  C   UNL     1      23.072   5.941  49.517  0.00  0.00    +0.000 A 
ATOM     22  C   UNL     1      24.391   5.401  49.108  0.00  0.00    +0.000 C 
ENDBRANCH  14  20
ENDBRANCH  11  14
ENDBRANCH   1  11
BRANCH   6  23
ATOM     23  N   UNL     1      26.802  -0.571  53.384  0.00  0.00    +0.000 N 
ATOM     24  C   UNL     1      27.633  -0.042  54.469  0.00  0.00    +0.000 C 
ATOM     25  C   UNL     1      27.292  -1.813  52.788  0.00  0.00    +0.000 C 
ENDBRANCH   6  23
TORSDOF 4
ENDMDL
MODEL 7
REMARK VINA RESULT:    -7.446      4.889      7.237
REMARK INTER + INTRA:          -9.345
REMARK INTER:                  -9.183
REMARK INTRA:                  -0.162
REMARK UNBOUND:                -0.157
REMARK  Name = 
REMARK  8 active torsions:
REMARK  status: ('A' for Active; 'I' for Inactive)
REMARK    1  A    between atoms: C_1  and  C_2
REMARK    2  A    between atoms: C_5  and  N_6
REMARK    3  A    between atoms: N_6  and  S_7
REMARK    4  A    between atoms: S_7  and  C_10
REMARK    5  A    between atoms: C_15  and  N_16
REMARK    6  A    between atoms: N_16  and  C_17
REMARK    7  A    between atoms: N_16  and  C_18
REMARK    8  A    between atoms: C_23  and  C_24
REMARK                            x       y       z     vdW  Elec       q    Type
REMARK                         _______ _______ _______ _____ _____    ______ ____
ROOT
ATOM      1  C   UNL     1      24.235   5.275  50.536  0.00  0.00    +0.000 A 
ATOM      2  C   UNL     1      23.600   6.364  51.144  0.00  0.00    +0.000 A 
ATOM      3  C   UNL     1      24.139   7.629  51.013  0.00  0.00    +0.000 A 
ATOM      4  C   UNL     1      25.255   7.819  50.199  0.00  0.00    +0.000 A 
ATOM      5  C   UNL     1      25.966   6.752  49.599  0.00  0.00    +0.000 A 
ATOM      6  C   UNL     1      27.093   6.942  48.722  0.00  0.00    +0.000 A 
ATOM      7  C   UNL     1      27.834   5.799  48.360  0.00  0.00    +0.000 A 
ATOM      8  C   UNL     1      27.480   4.523  48.782  0.00  0.00    +0.000 A 
ATOM      9  C   UNL     1      26.313   4.343  49.505  0.00  0.00    +0.000 A 
ATOM     10  C   UNL     1      25.495   5.429  49.879  0.00  0.00    +0.000 A 
ENDROOT
BRANCH   1  11
ATOM     11  S   UNL     1      23.333   3.717  50.567  0.00  0.00    +0.000 S 
ATOM     12  O   UNL     1      23.951   2.827  49.608  0.00  0.00    +0.000 OA
ATOM     13  O   UNL     1      21.934   4.053  50.462  0.00  0.00    +0.000 OA
BRANCH  11  14
ATOM     14  N   UNL     1      23.543   3.006  52.105  0.00  0.00    +0.000 N 
ATOM     15  H   UNL     1      22.950   3.208  52.864  0.00  0.00    +0.000 HD
BRANCH  14  20
ATOM     16  C   UNL     1      26.526  -1.001  52.580  0.00  0.00    +0.000 C 
ATOM     17  C   UNL     1      25.944   0.359  52.486  0.00  0.00    +0.000 A 
ATOM     18  N   UNL     1      26.757   1.401  52.277  0.00  0.00    +0.000 NA
ATOM     19  O   UNL     1      25.931   2.497  52.148  0.00  0.00    +0.000 OA
ATOM     20  C   UNL     1      24.633   2.103  52.212  0.00  0.00    +0.000 A 
ATOM     21  C   UNL     1      24.582   0.770  52.567  0.00  0.00    +0.000 A 
ATOM     22  C   UNL     1      23.415  -0.042  52.988  0.00  0.00    +0.000 C 
ENDBRANCH  14  20
ENDBRANCH  11  14
ENDBRANCH   1  11
BRANCH   6  23
ATOM     23  N   UNL     1      27.411   8.185  48.131  0.00  0.00    +0.000 N 
ATOM     24  C   UNL     1      26.716   8.549  46.893  0.00  0.00    +0.000 C 
ATOM     25  C   UNL     1      28.766   8.723  48.253  0.00  0.00    +0.000 C 
ENDBRANCH   6  23
TORSDOF 4
ENDMDL
MODEL 8
REMARK VINA RESULT:    -7.420      2.713      7.288
REMARK INTER + INTRA:          -9.313
REMARK INTER:                  -8.831
REMARK INTRA:                  -0.482
REMARK UNBOUND:                -0.157
REMARK  Name = 
REMARK  8 active torsions:
REMARK  status: ('A' for Active; 'I' for Inactive)
REMARK    1  A    between atoms: C_1  and  C_2
REMARK    2  A    between atoms: C_5  and  N_6
REMARK    3  A    between atoms: N_6  and  S_7
REMARK    4  A    between atoms: S_7  and  C_10
REMARK    5  A    between atoms: C_15  and  N_16
REMARK    6  A    between atoms: N_16  and  C_17
REMARK    7  A    between atoms: N_16  and  C_18
REMARK    8  A    between atoms: C_23  and  C_24
REMARK                            x       y       z     vdW  Elec       q    Type
REMARK                         _______ _______ _______ _____ _____    ______ ____
ROOT
ATOM      1  C   UNL     1      24.102   2.535  50.612  0.00  0.00    +0.000 A 
ATOM      2  C   UNL     1      25.172   3.299  50.129  0.00  0.00    +0.000 A 
ATOM      3  C   UNL     1      26.445   3.072  50.612  0.00  0.00    +0.000 A 
ATOM      4  C   UNL     1      26.665   2.024  51.504  0.00  0.00    +0.000 A 
ATOM      5  C   UNL     1      25.619   1.250  52.063  0.00  0.00    +0.000 A 
ATOM      6  C   UNL     1      25.840   0.137  52.949  0.00  0.00    +0.000 A 
ATOM      7  C   UNL     1      24.714  -0.414  53.594  0.00  0.00    +0.000 A 
ATOM      8  C   UNL     1      23.425   0.051  53.358  0.00  0.00    +0.000 A 
ATOM      9  C   UNL     1      23.217   1.025  52.395  0.00  0.00    +0.000 A 
ATOM     10  C   UNL     1      24.285   1.604  51.681  0.00  0.00    +0.000 A 
ENDROOT
BRANCH   1  11
ATOM     11  S   UNL     1      22.533   2.744  49.754  0.00  0.00    +0.000 S 
ATOM     12  O   UNL     1      22.294   1.551  48.970  0.00  0.00    +0.000 OA
ATOM     13  O   UNL     1      22.581   4.041  49.123  0.00  0.00    +0.000 OA
BRANCH  11  14
ATOM     14  N   UNL     1      21.289   2.823  50.921  0.00  0.00    +0.000 N 
ATOM     15  H   UNL     1      21.440   3.175  51.828  0.00  0.00    +0.000 HD
BRANCH  14  20
ATOM     16  C   UNL     1      16.971   0.344  50.299  0.00  0.00    +0.000 C 
ATOM     17  C   UNL     1      18.161   1.219  50.174  0.00  0.00    +0.000 A 
ATOM     18  N   UNL     1      18.138   2.227  49.295  0.00  0.00    +0.000 NA
ATOM     19  O   UNL     1      19.326   2.903  49.471  0.00  0.00    +0.000 OA
ATOM     20  C   UNL     1      20.024   2.343  50.493  0.00  0.00    +0.000 A 
ATOM     21  C   UNL     1      19.394   1.180  50.888  0.00  0.00    +0.000 A 
ATOM     22  C   UNL     1      19.885   0.109  51.788  0.00  0.00    +0.000 C 
ENDBRANCH  14  20
ENDBRANCH  11  14
ENDBRANCH   1  11
BRANCH   6  23
ATOM     23  N   UNL     1      27.098  -0.485  53.110  0.00  0.00    +0.000 N 
ATOM     24  C   UNL     1      27.222  -1.887  52.701  0.00  0.00    +0.000 C 
ATOM     25  C   UNL     1      27.967  -0.092  54.218  0.00  0.00    +0.000 C 
ENDBRANCH   6  23
TORSDOF 4
ENDMDL
MODEL 9
REMARK VINA RESULT:    -7.401      3.247      5.380
REMARK INTER + INTRA:          -9.288
REMARK INTER:                  -8.557
REMARK INTRA:                  -0.731
REMARK UNBOUND:                -0.157
REMARK  Name = 
REMARK  8 active torsions:
REMARK  status: ('A' for Active; 'I' for Inactive)
REMARK    1  A    between atoms: C_1  and  C_2
REMARK    2  A    between atoms: C_5  and  N_6
REMARK    3  A    between atoms: N_6  and  S_7
REMARK    4  A    between atoms: S_7  and  C_10
REMARK    5  A    between atoms: C_15  and  N_16
REMARK    6  A    between atoms: N_16  and  C_17
REMARK    7  A    between atoms: N_16  and  C_18
REMARK    8  A    between atoms: C_23  and  C_24
REMARK                            x       y       z     vdW  Elec       q    Type
REMARK                         _______ _______ _______ _____ _____    ______ ____
ROOT
ATOM      1  C   UNL     1      23.331   2.273  50.317  0.00  0.00    +0.000 A 
ATOM      2  C   UNL     1      22.956   2.318  48.969  0.00  0.00    +0.000 A 
ATOM      3  C   UNL     1      21.787   1.704  48.563  0.00  0.00    +0.000 A 
ATOM      4  C   UNL     1      20.949   1.127  49.516  0.00  0.00    +0.000 A 
ATOM      5  C   UNL     1      21.296   1.009  50.884  0.00  0.00    +0.000 A 
ATOM      6  C   UNL     1      20.417   0.456  51.882  0.00  0.00    +0.000 A 
ATOM      7  C   UNL     1      20.960   0.207  53.159  0.00  0.00    +0.000 A 
ATOM      8  C   UNL     1      22.275   0.523  53.478  0.00  0.00    +0.000 A 
ATOM      9  C   UNL     1      23.063   1.185  52.551  0.00  0.00    +0.000 A 
ATOM     10  C   UNL     1      22.586   1.502  51.262  0.00  0.00    +0.000 A 
ENDROOT
BRANCH   1  11
ATOM     11  S   UNL     1      24.737   3.297  50.780  0.00  0.00    +0.000 S 
ATOM     12  O   UNL     1      25.120   4.074  49.620  0.00  0.00    +0.000 OA
ATOM     13  O   UNL     1      25.686   2.421  51.423  0.00  0.00    +0.000 OA
BRANCH  11  14
ATOM     14  N   UNL     1      24.224   4.408  51.969  0.00  0.00    +0.000 N 
ATOM     15  H   UNL     1      24.346   4.242  52.932  0.00  0.00    +0.000 HD
BRANCH  14  20
ATOM     16  C   UNL     1      21.043   7.996  50.489  0.00  0.00    +0.000 C 
ATOM     17  C   UNL     1      22.220   7.137  50.763  0.00  0.00    +0.000 A 
ATOM     18  N   UNL     1      23.447   7.647  50.613  0.00  0.00    +0.000 NA
ATOM     19  O   UNL     1      24.315   6.657  51.021  0.00  0.00    +0.000 OA
ATOM     20  C   UNL     1      23.610   5.588  51.474  0.00  0.00    +0.000 A 
ATOM     21  C   UNL     1      22.270   5.782  51.204  0.00  0.00    +0.000 A 
ATOM     22  C   UNL     1      21.149   4.816  51.289  0.00  0.00    +0.000 C 
ENDBRANCH  14  20
ENDBRANCH  11  14
ENDBRANCH   1  11
BRANCH   6  23
ATOM     23  N   UNL     1      19.034   0.262  51.671  0.00  0.00    +0.000 N 
ATOM     24  C   UNL     1      18.202   1.452  51.473  0.00  0.00    +0.000 C 
ATOM     25  C   UNL     1      18.352  -0.862  52.312  0.00  0.00    +0.000 C 
ENDBRANCH   6  23
TORSDOF 4
ENDMDL
