MODEL 1
REMARK VINA RESULT:    -9.442      0.000      0.000
REMARK INTER + INTRA:         -11.861
REMARK INTER:                 -11.373
REMARK INTRA:                  -0.487
REMARK UNBOUND:                -0.487
REMARK  Name = 
REMARK  9 active torsions:
REMARK  status: ('A' for Active; 'I' for Inactive)
REMARK    1  A    between atoms: C_1  and  C_2
REMARK    2  A    between atoms: C_2  and  C_3
REMARK    3  A    between atoms: C_3  and  C_4
REMARK    4  A    between atoms: C_16  and  C_17
REMARK    5  A    between atoms: C_16  and  C_18
REMARK    6  A    between atoms: C_22  and  C_23
REMARK    7  A    between atoms: C_23  and  C_24
REMARK    8  A    between atoms: C_25  and  C_26
REMARK    9  A    between atoms: C_27  and  O_28
REMARK                            x       y       z     vdW  Elec       q    Type
REMARK                         _______ _______ _______ _____ _____    ______ ____
ROOT
ATOM      1  C   UNL     1      22.237   0.991  52.798  0.00  0.00    +0.000 A 
ATOM      2  C   UNL     1      21.043   1.540  52.481  0.00  0.00    +0.000 A 
ATOM      3  C   UNL     1      20.835   2.974  52.281  0.00  0.00    +0.000 A 
ATOM      4  O   UNL     1      19.723   3.448  52.092  0.00  0.00    +0.000 OA
ATOM      5  O   UNL     1      21.964   3.727  52.289  0.00  0.00    +0.000 OA
ATOM      6  C   UNL     1      23.155   3.033  52.104  0.00  0.00    +0.000 A 
ATOM      7  C   UNL     1      23.962   3.494  51.101  0.00  0.00    +0.000 A 
ATOM      8  C   UNL     1      25.313   3.256  51.170  0.00  0.00    +0.000 A 
ATOM      9  C   UNL     1      25.778   2.332  52.118  0.00  0.00    +0.000 A 
ATOM     10  C   UNL     1      24.834   1.526  52.815  0.00  0.00    +0.000 A 
ATOM     11  C   UNL     1      23.458   1.836  52.718  0.00  0.00    +0.000 A 
ATOM     12  O   UNL     1      25.237   0.482  53.621  0.00  0.00    +0.000 OA
ATOM     13  C   UNL     1      26.640   0.085  53.613  0.00  0.00    +0.000 C 
ATOM     14  C   UNL     1      27.050  -0.254  55.049  0.00  0.00    +0.000 C 
ATOM     15  C   UNL     1      26.754  -1.183  52.756  0.00  0.00    +0.000 C 
ATOM     16  C   UNL     1      27.598   1.118  53.071  0.00  0.00    +0.000 C 
ATOM     17  C   UNL     1      27.200   2.161  52.347  0.00  0.00    +0.000 C 
ATOM     18  O   UNL     1      26.178   3.940  50.360  0.00  0.00    +0.000 OA
ATOM     19  C   UNL     1      25.616   4.635  49.219  0.00  0.00    +0.000 C 
ATOM     20  C   UNL     1      24.181   5.183  49.398  0.00  0.00    +0.000 C 
ATOM     21  C   UNL     1      24.034   6.355  50.380  0.00  0.00    +0.000 C 
ATOM     22  C   UNL     1      23.325   4.042  49.868  0.00  0.00    +0.000 C 
ENDROOT
BRANCH  19  23
ATOM     23  C   UNL     1      26.562   5.777  48.837  0.00  0.00    +0.000 C 
ATOM     24  C   UNL     1      27.953   5.288  48.485  0.00  0.00    +0.000 C 
ENDBRANCH  19  23
BRANCH  22  25
ATOM     25  O   UNL     1      23.268   3.011  48.873  0.00  0.00    +0.000 OA
ATOM     26  H   UNL     1      22.346   2.743  48.737  0.00  0.00    +0.000 HD
ENDBRANCH  22  25
BRANCH   1  27
ATOM     27  C   UNL     1      22.291  -0.508  52.852  0.00  0.00    +0.000 C 
BRANCH  27  29
ATOM     28  C   UNL     1      22.728  -1.453  55.129  0.00  0.00    +0.000 C 
ATOM     29  C   UNL     1      21.662  -1.052  54.128  0.00  0.00    +0.000 C 
ENDBRANCH  27  29
ENDBRANCH   1  27
TORSDOF 4
ENDMDL
MODEL 2
REMARK VINA RESULT:    -8.296      1.639      5.508
REMARK INTER + INTRA:         -10.480
REMARK INTER:                 -10.151
REMARK INTRA:                  -0.329
REMARK UNBOUND:                -0.487
REMARK  Name = 
REMARK  9 active torsions:
REMARK  status: ('A' for Active; 'I' for Inactive)
REMARK    1  A    between atoms: C_1  and  C_2
REMARK    2  A    between atoms: C_2  and  C_3
REMARK    3  A    between atoms: C_3  and  C_4
REMARK    4  A    between atoms: C_16  and  C_17
REMARK    5  A    between atoms: C_16  and  C_18
REMARK    6  A    between atoms: C_22  and  C_23
REMARK    7  A    between atoms: C_23  and  C_24
REMARK    8  A    between atoms: C_25  and  C_26
REMARK    9  A    between atoms: C_27  and  O_28
REMARK                            x       y       z     vdW  Elec       q    Type
REMARK                         _______ _______ _______ _____ _____    ______ ____
ROOT
ATOM      1  C   UNL     1      22.116   1.474  52.852  0.00  0.00    +0.000 A 
ATOM      2  C   UNL     1      21.742   0.446  53.647  0.00  0.00    +0.000 A 
ATOM      3  C   UNL     1      22.406  -0.857  53.655  0.00  0.00    +0.000 A 
ATOM      4  O   UNL     1      21.981  -1.797  54.313  0.00  0.00    +0.000 OA
ATOM      5  O   UNL     1      23.535  -0.935  52.906  0.00  0.00    +0.000 OA
ATOM      6  C   UNL     1      24.111   0.282  52.556  0.00  0.00    +0.000 A 
ATOM      7  C   UNL     1      25.435   0.424  52.867  0.00  0.00    +0.000 A 
ATOM      8  C   UNL     1      26.202   1.298  52.136  0.00  0.00    +0.000 A 
ATOM      9  C   UNL     1      25.550   2.198  51.278  0.00  0.00    +0.000 A 
ATOM     10  C   UNL     1      24.134   2.320  51.357  0.00  0.00    +0.000 A 
ATOM     11  C   UNL     1      23.400   1.376  52.110  0.00  0.00    +0.000 A 
ATOM     12  O   UNL     1      23.460   3.310  50.672  0.00  0.00    +0.000 OA
ATOM     13  C   UNL     1      24.228   4.356  50.006  0.00  0.00    +0.000 C 
ATOM     14  C   UNL     1      23.555   4.665  48.665  0.00  0.00    +0.000 C 
ATOM     15  C   UNL     1      24.162   5.609  50.889  0.00  0.00    +0.000 C 
ATOM     16  C   UNL     1      25.679   4.026  49.750  0.00  0.00    +0.000 C 
ATOM     17  C   UNL     1      26.311   3.030  50.365  0.00  0.00    +0.000 C 
ATOM     18  O   UNL     1      27.567   1.254  52.216  0.00  0.00    +0.000 OA
ATOM     19  C   UNL     1      28.147   0.527  53.327  0.00  0.00    +0.000 C 
ATOM     20  C   UNL     1      27.337  -0.686  53.841  0.00  0.00    +0.000 C 
ATOM     21  C   UNL     1      27.267  -1.890  52.890  0.00  0.00    +0.000 C 
ATOM     22  C   UNL     1      25.943  -0.203  54.122  0.00  0.00    +0.000 C 
ENDROOT
BRANCH  19  23
ATOM     23  C   UNL     1      29.555   0.077  52.926  0.00  0.00    +0.000 C 
ATOM     24  C   UNL     1      30.212  -0.790  53.982  0.00  0.00    +0.000 C 
ENDBRANCH  19  23
BRANCH  22  25
ATOM     25  O   UNL     1      25.951   0.780  55.166  0.00  0.00    +0.000 OA
ATOM     26  H   UNL     1      25.230   0.596  55.788  0.00  0.00    +0.000 HD
ENDBRANCH  22  25
BRANCH   1  27
ATOM     27  C   UNL     1      21.396   2.775  53.059  0.00  0.00    +0.000 C 
BRANCH  27  29
ATOM     28  C   UNL     1      20.212   4.168  51.348  0.00  0.00    +0.000 C 
ATOM     29  C   UNL     1      20.168   2.892  52.166  0.00  0.00    +0.000 C 
ENDBRANCH  27  29
ENDBRANCH   1  27
TORSDOF 4
ENDMDL
MODEL 3
REMARK VINA RESULT:    -8.116      2.021      5.870
REMARK INTER + INTRA:         -10.263
REMARK INTER:                  -9.677
REMARK INTRA:                  -0.587
REMARK UNBOUND:                -0.487
REMARK  Name = 
REMARK  9 active torsions:
REMARK  status: ('A' for Active; 'I' for Inactive)
REMARK    1  A    between atoms: C_1  and  C_2
REMARK    2  A    between atoms: C_2  and  C_3
REMARK    3  A    between atoms: C_3  and  C_4
REMARK    4  A    between atoms: C_16  and  C_17
REMARK    5  A    between atoms: C_16  and  C_18
REMARK    6  A    between atoms: C_22  and  C_23
REMARK    7  A    between atoms: C_23  and  C_24
REMARK    8  A    between atoms: C_25  and  C_26
REMARK    9  A    between atoms: C_27  and  O_28
REMARK                            x       y       z     vdW  Elec       q    Type
REMARK                         _______ _______ _______ _____ _____    ______ ____
ROOT
ATOM      1  C   UNL     1      23.521   3.720  49.999  0.00  0.00    +0.000 A 
ATOM      2  C   UNL     1      22.689   4.405  49.182  0.00  0.00    +0.000 A 
ATOM      3  C   UNL     1      21.513   3.817  48.542  0.00  0.00    +0.000 A 
ATOM      4  O   UNL     1      20.838   4.436  47.732  0.00  0.00    +0.000 OA
ATOM      5  O   UNL     1      21.213   2.553  48.936  0.00  0.00    +0.000 OA
ATOM      6  C   UNL     1      21.798   2.137  50.127  0.00  0.00    +0.000 A 
ATOM      7  C   UNL     1      20.940   1.644  51.071  0.00  0.00    +0.000 A 
ATOM      8  C   UNL     1      21.415   0.758  52.007  0.00  0.00    +0.000 A 
ATOM      9  C   UNL     1      22.804   0.594  52.123  0.00  0.00    +0.000 A 
ATOM     10  C   UNL     1      23.663   1.495  51.432  0.00  0.00    +0.000 A 
ATOM     11  C   UNL     1      23.115   2.369  50.466  0.00  0.00    +0.000 A 
ATOM     12  O   UNL     1      25.025   1.497  51.650  0.00  0.00    +0.000 OA
ATOM     13  C   UNL     1      25.567   0.690  52.737  0.00  0.00    +0.000 C 
ATOM     14  C   UNL     1      26.876   0.056  52.257  0.00  0.00    +0.000 C 
ATOM     15  C   UNL     1      25.879   1.638  53.902  0.00  0.00    +0.000 C 
ATOM     16  C   UNL     1      24.660  -0.406  53.241  0.00  0.00    +0.000 C 
ATOM     17  C   UNL     1      23.356  -0.441  52.976  0.00  0.00    +0.000 C 
ATOM     18  O   UNL     1      20.546   0.027  52.770  0.00  0.00    +0.000 OA
ATOM     19  C   UNL     1      19.165   0.463  52.812  0.00  0.00    +0.000 C 
ATOM     20  C   UNL     1      18.629   1.145  51.532  0.00  0.00    +0.000 C 
ATOM     21  C   UNL     1      18.465   0.229  50.309  0.00  0.00    +0.000 C 
ATOM     22  C   UNL     1      19.583   2.253  51.186  0.00  0.00    +0.000 C 
ENDROOT
BRANCH  19  23
ATOM     23  C   UNL     1      18.289  -0.744  53.160  0.00  0.00    +0.000 C 
ATOM     24  C   UNL     1      19.091  -1.906  53.712  0.00  0.00    +0.000 C 
ENDBRANCH  19  23
BRANCH  22  25
ATOM     25  O   UNL     1      19.601   3.244  52.223  0.00  0.00    +0.000 OA
ATOM     26  H   UNL     1      20.221   3.950  51.984  0.00  0.00    +0.000 HD
ENDBRANCH  22  25
BRANCH   1  27
ATOM     27  C   UNL     1      24.612   4.512  50.659  0.00  0.00    +0.000 C 
BRANCH  27  29
ATOM     28  C   UNL     1      26.672   3.691  49.496  0.00  0.00    +0.000 C 
ATOM     29  C   UNL     1      25.728   4.863  49.683  0.00  0.00    +0.000 C 
ENDBRANCH  27  29
ENDBRANCH   1  27
TORSDOF 4
ENDMDL
MODEL 4
REMARK VINA RESULT:    -8.003      1.932      4.927
REMARK INTER + INTRA:         -10.128
REMARK INTER:                  -9.599
REMARK INTRA:                  -0.529
REMARK UNBOUND:                -0.487
REMARK  Name = 
REMARK  9 active torsions:
REMARK  status: ('A' for Active; 'I' for Inactive)
REMARK    1  A    between atoms: C_1  and  C_2
REMARK    2  A    between atoms: C_2  and  C_3
REMARK    3  A    between atoms: C_3  and  C_4
REMARK    4  A    between atoms: C_16  and  C_17
REMARK    5  A    between atoms: C_16  and  C_18
REMARK    6  A    between atoms: C_22  and  C_23
REMARK    7  A    between atoms: C_23  and  C_24
REMARK    8  A    between atoms: C_25  and  C_26
REMARK    9  A    between atoms: C_27  and  O_28
REMARK                            x       y       z     vdW  Elec       q    Type
REMARK                         _______ _______ _______ _____ _____    ______ ____
ROOT
ATOM      1  C   UNL     1      22.603  -0.001  53.364  0.00  0.00    +0.000 A 
ATOM      2  C   UNL     1      23.811  -0.254  53.915  0.00  0.00    +0.000 A 
ATOM      3  C   UNL     1      25.077  -0.124  53.193  0.00  0.00    +0.000 A 
ATOM      4  O   UNL     1      26.144  -0.454  53.691  0.00  0.00    +0.000 OA
ATOM      5  O   UNL     1      24.980   0.415  51.951  0.00  0.00    +0.000 OA
ATOM      6  C   UNL     1      23.803   1.105  51.682  0.00  0.00    +0.000 A 
ATOM      7  C   UNL     1      23.955   2.382  51.217  0.00  0.00    +0.000 A 
ATOM      8  C   UNL     1      22.959   2.937  50.451  0.00  0.00    +0.000 A 
ATOM      9  C   UNL     1      21.720   2.280  50.395  0.00  0.00    +0.000 A 
ATOM     10  C   UNL     1      21.473   1.199  51.288  0.00  0.00    +0.000 A 
ATOM     11  C   UNL     1      22.546   0.660  52.034  0.00  0.00    +0.000 A 
ATOM     12  O   UNL     1      20.219   0.636  51.403  0.00  0.00    +0.000 OA
ATOM     13  C   UNL     1      19.093   1.277  50.735  0.00  0.00    +0.000 C 
ATOM     14  C   UNL     1      18.194   0.182  50.153  0.00  0.00    +0.000 C 
ATOM     15  C   UNL     1      18.303   2.047  51.801  0.00  0.00    +0.000 C 
ATOM     16  C   UNL     1      19.461   2.234  49.627  0.00  0.00    +0.000 C 
ATOM     17  C   UNL     1      20.688   2.727  49.479  0.00  0.00    +0.000 C 
ATOM     18  O   UNL     1      23.193   4.076  49.731  0.00  0.00    +0.000 OA
ATOM     19  C   UNL     1      24.369   4.852  50.072  0.00  0.00    +0.000 C 
ATOM     20  C   UNL     1      25.581   4.050  50.601  0.00  0.00    +0.000 C 
ATOM     21  C   UNL     1      26.283   3.150  49.572  0.00  0.00    +0.000 C 
ATOM     22  C   UNL     1      25.090   3.199  51.738  0.00  0.00    +0.000 C 
ENDROOT
BRANCH  19  23
ATOM     23  C   UNL     1      24.783   5.665  48.843  0.00  0.00    +0.000 C 
ATOM     24  C   UNL     1      23.594   6.140  48.031  0.00  0.00    +0.000 C 
ENDBRANCH  19  23
BRANCH  22  25
ATOM     25  O   UNL     1      24.618   4.021  52.815  0.00  0.00    +0.000 OA
ATOM     26  H   UNL     1      24.280   3.457  53.527  0.00  0.00    +0.000 HD
ENDBRANCH  22  25
BRANCH   1  27
ATOM     27  C   UNL     1      21.420  -0.074  54.285  0.00  0.00    +0.000 C 
BRANCH  27  29
ATOM     28  C   UNL     1      19.456  -1.521  53.720  0.00  0.00    +0.000 C 
ATOM     29  C   UNL     1      20.836  -1.480  54.346  0.00  0.00    +0.000 C 
ENDBRANCH  27  29
ENDBRANCH   1  27
TORSDOF 4
ENDMDL
MODEL 5
REMARK VINA RESULT:    -7.836      2.020      5.336
REMARK INTER + INTRA:          -9.927
REMARK INTER:                  -9.480
REMARK INTRA:                  -0.446
REMARK UNBOUND:                -0.487
REMARK  Name = 
REMARK  9 active torsions:
REMARK  status: ('A' for Active; 'I' for Inactive)
REMARK    1  A    between atoms: C_1  and  C_2
REMARK    2  A    between atoms: C_2  and  C_3
REMARK    3  A    between atoms: C_3  and  C_4
REMARK    4  A    between atoms: C_16  and  C_17
REMARK    5  A    between atoms: C_16  and  C_18
REMARK    6  A    between atoms: C_22  and  C_23
REMARK    7  A    between atoms: C_23  and  C_24
REMARK    8  A    between atoms: C_25  and  C_26
REMARK    9  A    between atoms: C_27  and  O_28
REMARK                            x       y       z     vdW  Elec       q    Type
REMARK                         _______ _______ _______ _____ _____    ______ ____
ROOT
ATOM      1  C   UNL     1      25.295   2.498  51.002  0.00  0.00    +0.000 A 
ATOM      2  C   UNL     1      26.444   3.064  50.567  0.00  0.00    +0.000 A 
ATOM      3  C   UNL     1      26.502   4.076  49.513  0.00  0.00    +0.000 A 
ATOM      4  O   UNL     1      27.564   4.496  49.075  0.00  0.00    +0.000 OA
ATOM      5  O   UNL     1      25.298   4.532  49.082  0.00  0.00    +0.000 OA
ATOM      6  C   UNL     1      24.221   4.282  49.927  0.00  0.00    +0.000 A 
ATOM      7  C   UNL     1      23.471   5.371  50.272  0.00  0.00    +0.000 A 
ATOM      8  C   UNL     1      22.157   5.191  50.629  0.00  0.00    +0.000 A 
ATOM      9  C   UNL     1      21.709   3.885  50.879  0.00  0.00    +0.000 A 
ATOM     10  C   UNL     1      22.666   2.834  50.966  0.00  0.00    +0.000 A 
ATOM     11  C   UNL     1      23.999   3.079  50.564  0.00  0.00    +0.000 A 
ATOM     12  O   UNL     1      22.308   1.570  51.385  0.00  0.00    +0.000 OA
ATOM     13  C   UNL     1      20.969   1.357  51.921  0.00  0.00    +0.000 C 
ATOM     14  C   UNL     1      20.457   0.006  51.412  0.00  0.00    +0.000 C 
ATOM     15  C   UNL     1      21.090   1.292  53.450  0.00  0.00    +0.000 C 
ATOM     16  C   UNL     1      19.956   2.419  51.566  0.00  0.00    +0.000 C 
ATOM     17  C   UNL     1      20.301   3.616  51.100  0.00  0.00    +0.000 C 
ATOM     18  O   UNL     1      21.305   6.259  50.693  0.00  0.00    +0.000 OA
ATOM     19  C   UNL     1      21.894   7.583  50.723  0.00  0.00    +0.000 C 
ATOM     20  C   UNL     1      23.230   7.748  49.962  0.00  0.00    +0.000 C 
ATOM     21  C   UNL     1      23.140   7.655  48.431  0.00  0.00    +0.000 C 
ATOM     22  C   UNL     1      24.162   6.681  50.461  0.00  0.00    +0.000 C 
ENDROOT
BRANCH  19  23
ATOM     23  C   UNL     1      20.865   8.581  50.185  0.00  0.00    +0.000 C 
ATOM     24  C   UNL     1      19.655   7.900  49.578  0.00  0.00    +0.000 C 
ENDBRANCH  19  23
BRANCH  22  25
ATOM     25  O   UNL     1      24.438   6.866  51.857  0.00  0.00    +0.000 OA
ATOM     26  H   UNL     1      23.626   7.132  52.315  0.00  0.00    +0.000 HD
ENDBRANCH  22  25
BRANCH   1  27
ATOM     27  C   UNL     1      25.411   1.563  52.170  0.00  0.00    +0.000 C 
BRANCH  27  29
ATOM     28  C   UNL     1      26.487  -0.679  52.465  0.00  0.00    +0.000 C 
ATOM     29  C   UNL     1      26.721   0.785  52.145  0.00  0.00    +0.000 C 
ENDBRANCH  27  29
ENDBRANCH   1  27
TORSDOF 4
ENDMDL
MODEL 6
REMARK VINA RESULT:    -7.598      1.735      4.998
REMARK INTER + INTRA:          -9.639
REMARK INTER:                  -9.054
REMARK INTRA:                  -0.585
REMARK UNBOUND:                -0.487
REMARK  Name = 
REMARK  9 active torsions:
REMARK  status: ('A' for Active; 'I' for Inactive)
REMARK    1  A    between atoms: C_1  and  C_2
REMARK    2  A    between atoms: C_2  and  C_3
REMARK    3  A    between atoms: C_3  and  C_4
REMARK    4  A    between atoms: C_16  and  C_17
REMARK    5  A    between atoms: C_16  and  C_18
REMARK    6  A    between atoms: C_22  and  C_23
REMARK    7  A    between atoms: C_23  and  C_24
REMARK    8  A    between atoms: C_25  and  C_26
REMARK    9  A    between atoms: C_27  and  O_28
REMARK                            x       y       z     vdW  Elec       q    Type
REMARK                         _______ _______ _______ _____ _____    ______ ____
ROOT
ATOM      1  C   UNL     1      25.378   1.770  52.252  0.00  0.00    +0.000 A 
ATOM      2  C   UNL     1      26.307   2.534  51.636  0.00  0.00    +0.000 A 
ATOM      3  C   UNL     1      26.103   3.169  50.334  0.00  0.00    +0.000 A 
ATOM      4  O   UNL     1      26.998   3.773  49.759  0.00  0.00    +0.000 OA
ATOM      5  O   UNL     1      24.846   3.065  49.831  0.00  0.00    +0.000 OA
ATOM      6  C   UNL     1      23.856   2.725  50.747  0.00  0.00    +0.000 A 
ATOM      7  C   UNL     1      22.774   3.559  50.790  0.00  0.00    +0.000 A 
ATOM      8  C   UNL     1      21.568   3.067  51.227  0.00  0.00    +0.000 A 
ATOM      9  C   UNL     1      21.551   1.812  51.856  0.00  0.00    +0.000 A 
ATOM     10  C   UNL     1      22.788   1.202  52.208  0.00  0.00    +0.000 A 
ATOM     11  C   UNL     1      23.994   1.747  51.710  0.00  0.00    +0.000 A 
ATOM     12  O   UNL     1      22.831   0.063  52.985  0.00  0.00    +0.000 OA
ATOM     13  C   UNL     1      21.601  -0.416  53.603  0.00  0.00    +0.000 C 
ATOM     14  C   UNL     1      21.587  -1.945  53.520  0.00  0.00    +0.000 C 
ATOM     15  C   UNL     1      21.639  -0.005  55.081  0.00  0.00    +0.000 C 
ATOM     16  C   UNL     1      20.325   0.110  52.992  0.00  0.00    +0.000 C 
ATOM     17  C   UNL     1      20.294   1.172  52.191  0.00  0.00    +0.000 C 
ATOM     18  O   UNL     1      20.415   3.770  51.010  0.00  0.00    +0.000 OA
ATOM     19  C   UNL     1      20.542   5.165  50.640  0.00  0.00    +0.000 C 
ATOM     20  C   UNL     1      21.799   5.537  49.820  0.00  0.00    +0.000 C 
ATOM     21  C   UNL     1      21.842   4.992  48.383  0.00  0.00    +0.000 C 
ATOM     22  C   UNL     1      22.991   5.019  50.573  0.00  0.00    +0.000 C 
ENDROOT
BRANCH  19  23
ATOM     23  C   UNL     1      19.283   5.577  49.872  0.00  0.00    +0.000 C 
ATOM     24  C   UNL     1      18.165   4.561  49.999  0.00  0.00    +0.000 C 
ENDBRANCH  19  23
BRANCH  22  25
ATOM     25  O   UNL     1      23.104   5.670  51.846  0.00  0.00    +0.000 OA
ATOM     26  H   UNL     1      22.885   5.041  52.551  0.00  0.00    +0.000 HD
ENDBRANCH  22  25
BRANCH   1  27
ATOM     27  C   UNL     1      25.714   1.293  53.635  0.00  0.00    +0.000 C 
BRANCH  27  29
ATOM     28  C   UNL     1      26.251  -1.028  52.867  0.00  0.00    +0.000 C 
ATOM     29  C   UNL     1      26.761   0.188  53.614  0.00  0.00    +0.000 C 
ENDBRANCH  27  29
ENDBRANCH   1  27
TORSDOF 4
ENDMDL
MODEL 7
REMARK VINA RESULT:    -7.368      1.889      6.988
REMARK INTER + INTRA:          -9.363
REMARK INTER:                  -8.857
REMARK INTRA:                  -0.506
REMARK UNBOUND:                -0.487
REMARK  Name = 
REMARK  9 active torsions:
REMARK  status: ('A' for Active; 'I' for Inactive)
REMARK    1  A    between atoms: C_1  and  C_2
REMARK    2  A    between atoms: C_2  and  C_3
REMARK    3  A    between atoms: C_3  and  C_4
REMARK    4  A    between atoms: C_16  and  C_17
REMARK    5  A    between atoms: C_16  and  C_18
REMARK    6  A    between atoms: C_22  and  C_23
REMARK    7  A    between atoms: C_23  and  C_24
REMARK    8  A    between atoms: C_25  and  C_26
REMARK    9  A    between atoms: C_27  and  O_28
REMARK                            x       y       z     vdW  Elec       q    Type
REMARK                         _______ _______ _______ _____ _____    ______ ____
ROOT
ATOM      1  C   UNL     1      26.200   2.827  51.009  0.00  0.00    +0.000 A 
ATOM      2  C   UNL     1      27.245   2.594  51.835  0.00  0.00    +0.000 A 
ATOM      3  C   UNL     1      27.103   2.290  53.258  0.00  0.00    +0.000 A 
ATOM      4  O   UNL     1      28.072   2.182  53.998  0.00  0.00    +0.000 OA
ATOM      5  O   UNL     1      25.828   2.108  53.686  0.00  0.00    +0.000 OA
ATOM      6  C   UNL     1      24.888   1.858  52.691  0.00  0.00    +0.000 A 
ATOM      7  C   UNL     1      24.125   0.736  52.864  0.00  0.00    +0.000 A 
ATOM      8  C   UNL     1      22.882   0.679  52.281  0.00  0.00    +0.000 A 
ATOM      9  C   UNL     1      22.551   1.650  51.323  0.00  0.00    +0.000 A 
ATOM     10  C   UNL     1      23.573   2.514  50.838  0.00  0.00    +0.000 A 
ATOM     11  C   UNL     1      24.825   2.540  51.495  0.00  0.00    +0.000 A 
ATOM     12  O   UNL     1      23.351   3.362  49.773  0.00  0.00    +0.000 OA
ATOM     13  C   UNL     1      22.109   3.237  49.020  0.00  0.00    +0.000 C 
ATOM     14  C   UNL     1      21.618   4.645  48.667  0.00  0.00    +0.000 C 
ATOM     15  C   UNL     1      22.433   2.490  47.719  0.00  0.00    +0.000 C 
ATOM     16  C   UNL     1      20.996   2.504  49.729  0.00  0.00    +0.000 C 
ATOM     17  C   UNL     1      21.203   1.737  50.796  0.00  0.00    +0.000 C 
ATOM     18  O   UNL     1      21.983  -0.278  52.664  0.00  0.00    +0.000 OA
ATOM     19  C   UNL     1      22.489  -1.408  53.416  0.00  0.00    +0.000 C 
ATOM     20  C   UNL     1      23.701  -1.125  54.333  0.00  0.00    +0.000 C 
ATOM     21  C   UNL     1      23.417  -0.242  55.557  0.00  0.00    +0.000 C 
ATOM     22  C   UNL     1      24.753  -0.464  53.488  0.00  0.00    +0.000 C 
ENDROOT
BRANCH  19  23
ATOM     23  C   UNL     1      21.340  -1.992  54.243  0.00  0.00    +0.000 C 
ATOM     24  C   UNL     1      20.003  -1.362  53.906  0.00  0.00    +0.000 C 
ENDBRANCH  19  23
BRANCH  22  25
ATOM     25  O   UNL     1      25.199  -1.351  52.453  0.00  0.00    +0.000 OA
ATOM     26  H   UNL     1      24.437  -1.644  51.928  0.00  0.00    +0.000 HD
ENDBRANCH  22  25
BRANCH   1  27
ATOM     27  C   UNL     1      26.525   3.009  49.555  0.00  0.00    +0.000 C 
BRANCH  27  29
ATOM     28  C   UNL     1      27.886   4.901  48.641  0.00  0.00    +0.000 C 
ATOM     29  C   UNL     1      26.523   4.478  49.153  0.00  0.00    +0.000 C 
ENDBRANCH  27  29
ENDBRANCH   1  27
TORSDOF 4
ENDMDL
MODEL 8
REMARK VINA RESULT:    -7.152      1.953      7.166
REMARK INTER + INTRA:          -9.103
REMARK INTER:                  -8.766
REMARK INTRA:                  -0.336
REMARK UNBOUND:                -0.487
REMARK  Name = 
REMARK  9 active torsions:
REMARK  status: ('A' for Active; 'I' for Inactive)
REMARK    1  A    between atoms: C_1  and  C_2
REMARK    2  A    between atoms: C_2  and  C_3
REMARK    3  A    between atoms: C_3  and  C_4
REMARK    4  A    between atoms: C_16  and  C_17
REMARK    5  A    between atoms: C_16  and  C_18
REMARK    6  A    between atoms: C_22  and  C_23
REMARK    7  A    between atoms: C_23  and  C_24
REMARK    8  A    between atoms: C_25  and  C_26
REMARK    9  A    between atoms: C_27  and  O_28
REMARK                            x       y       z     vdW  Elec       q    Type
REMARK                         _______ _______ _______ _____ _____    ______ ____
ROOT
ATOM      1  C   UNL     1      24.864   3.141  51.074  0.00  0.00    +0.000 A 
ATOM      2  C   UNL     1      25.720   2.259  51.639  0.00  0.00    +0.000 A 
ATOM      3  C   UNL     1      25.455   1.562  52.897  0.00  0.00    +0.000 A 
ATOM      4  O   UNL     1      26.291   0.846  53.430  0.00  0.00    +0.000 OA
ATOM      5  O   UNL     1      24.211   1.746  53.408  0.00  0.00    +0.000 OA
ATOM      6  C   UNL     1      23.258   2.230  52.518  0.00  0.00    +0.000 A 
ATOM      7  C   UNL     1      22.106   1.499  52.423  0.00  0.00    +0.000 A 
ATOM      8  C   UNL     1      20.951   2.124  52.021  0.00  0.00    +0.000 A 
ATOM      9  C   UNL     1      21.048   3.413  51.474  0.00  0.00    +0.000 A 
ATOM     10  C   UNL     1      22.335   3.932  51.159  0.00  0.00    +0.000 A 
ATOM     11  C   UNL     1      23.486   3.252  51.620  0.00  0.00    +0.000 A 
ATOM     12  O   UNL     1      22.482   5.111  50.458  0.00  0.00    +0.000 OA
ATOM     13  C   UNL     1      21.302   5.736  49.874  0.00  0.00    +0.000 C 
ATOM     14  C   UNL     1      21.423   7.252  50.055  0.00  0.00    +0.000 C 
ATOM     15  C   UNL     1      21.308   5.419  48.372  0.00  0.00    +0.000 C 
ATOM     16  C   UNL     1      19.982   5.287  50.452  0.00  0.00    +0.000 C 
ATOM     17  C   UNL     1      19.854   4.183  51.183  0.00  0.00    +0.000 C 
ATOM     18  O   UNL     1      19.739   1.514  52.194  0.00  0.00    +0.000 OA
ATOM     19  C   UNL     1      19.741   0.092  52.474  0.00  0.00    +0.000 C 
ATOM     20  C   UNL     1      20.957  -0.442  53.266  0.00  0.00    +0.000 C 
ATOM     21  C   UNL     1      21.042   0.003  54.734  0.00  0.00    +0.000 C 
ATOM     22  C   UNL     1      22.193   0.015  52.545  0.00  0.00    +0.000 C 
ENDROOT
BRANCH  19  23
ATOM     23  C   UNL     1      18.447  -0.255  53.215  0.00  0.00    +0.000 C 
ATOM     24  C   UNL     1      18.160  -1.744  53.220  0.00  0.00    +0.000 C 
ENDBRANCH  19  23
BRANCH  22  25
ATOM     25  O   UNL     1      22.252  -0.560  51.232  0.00  0.00    +0.000 OA
ATOM     26  H   UNL     1      23.176  -0.738  50.999  0.00  0.00    +0.000 HD
ENDBRANCH  22  25
BRANCH   1  27
ATOM     27  C   UNL     1      25.247   3.674  49.724  0.00  0.00    +0.000 C 
BRANCH  27  29
ATOM     28  C   UNL     1      27.206   4.920  48.787  0.00  0.00    +0.000 C 
ATOM     29  C   UNL     1      26.757   3.673  49.522  0.00  0.00    +0.000 C 
ENDBRANCH  27  29
ENDBRANCH   1  27
TORSDOF 4
ENDMDL
MODEL 9
REMARK VINA RESULT:    -7.146      2.165      5.310
REMARK INTER + INTRA:          -9.096
REMARK INTER:                  -8.731
REMARK INTRA:                  -0.364
REMARK UNBOUND:                -0.487
REMARK  Name = 
REMARK  9 active torsions:
REMARK  status: ('A' for Active; 'I' for Inactive)
REMARK    1  A    between atoms: C_1  and  C_2
REMARK    2  A    between atoms: C_2  and  C_3
REMARK    3  A    between atoms: C_3  and  C_4
REMARK    4  A    between atoms: C_16  and  C_17
REMARK    5  A    between atoms: C_16  and  C_18
REMARK    6  A    between atoms: C_22  and  C_23
REMARK    7  A    between atoms: C_23  and  C_24
REMARK    8  A    between atoms: C_25  and  C_26
REMARK    9  A    between atoms: C_27  and  O_28
REMARK                            x       y       z     vdW  Elec       q    Type
REMARK                         _______ _______ _______ _____ _____    ______ ____
ROOT
ATOM      1  C   UNL     1      23.482   1.651  51.916  0.00  0.00    +0.000 A 
ATOM      2  C   UNL     1      24.814   1.677  52.147  0.00  0.00    +0.000 A 
ATOM      3  C   UNL     1      25.769   2.406  51.312  0.00  0.00    +0.000 A 
ATOM      4  O   UNL     1      26.977   2.328  51.490  0.00  0.00    +0.000 OA
ATOM      5  O   UNL     1      25.217   3.192  50.354  0.00  0.00    +0.000 OA
ATOM      6  C   UNL     1      23.871   3.498  50.527  0.00  0.00    +0.000 A 
ATOM      7  C   UNL     1      23.555   4.828  50.494  0.00  0.00    +0.000 A 
ATOM      8  C   UNL     1      22.285   5.204  50.130  0.00  0.00    +0.000 A 
ATOM      9  C   UNL     1      21.293   4.213  50.062  0.00  0.00    +0.000 A 
ATOM     10  C   UNL     1      21.579   2.916  50.572  0.00  0.00    +0.000 A 
ATOM     11  C   UNL     1      22.911   2.585  50.910  0.00  0.00    +0.000 A 
ATOM     12  O   UNL     1      20.593   1.959  50.697  0.00  0.00    +0.000 OA
ATOM     13  C   UNL     1      19.204   2.345  50.473  0.00  0.00    +0.000 C 
ATOM     14  C   UNL     1      18.508   1.210  49.715  0.00  0.00    +0.000 C 
ATOM     15  C   UNL     1      18.541   2.496  51.848  0.00  0.00    +0.000 C 
ATOM     16  C   UNL     1      19.007   3.628  49.702  0.00  0.00    +0.000 C 
ATOM     17  C   UNL     1      19.979   4.520  49.529  0.00  0.00    +0.000 C 
ATOM     18  O   UNL     1      22.015   6.504  49.803  0.00  0.00    +0.000 OA
ATOM     19  C   UNL     1      22.991   7.505  50.186  0.00  0.00    +0.000 C 
ATOM     20  C   UNL     1      24.465   7.040  50.212  0.00  0.00    +0.000 C 
ATOM     21  C   UNL     1      25.090   6.732  48.842  0.00  0.00    +0.000 C 
ATOM     22  C   UNL     1      24.527   5.805  51.065  0.00  0.00    +0.000 C 
ENDROOT
BRANCH  19  23
ATOM     23  C   UNL     1      22.843   8.706  49.247  0.00  0.00    +0.000 C 
ATOM     24  C   UNL     1      21.396   9.098  49.026  0.00  0.00    +0.000 C 
ENDBRANCH  19  23
BRANCH  22  25
ATOM     25  O   UNL     1      24.150   6.106  52.415  0.00  0.00    +0.000 OA
ATOM     26  H   UNL     1      24.618   5.511  53.022  0.00  0.00    +0.000 HD
ENDBRANCH  22  25
BRANCH   1  27
ATOM     27  C   UNL     1      22.640   0.948  52.940  0.00  0.00    +0.000 C 
BRANCH  27  29
ATOM     28  C   UNL     1      22.419  -1.061  54.418  0.00  0.00    +0.000 C 
ATOM     29  C   UNL     1      23.186  -0.435  53.270  0.00  0.00    +0.000 C 
ENDBRANCH  27  29
ENDBRANCH   1  27
TORSDOF 4
ENDMDL
