MODEL 1
REMARK VINA RESULT:    -8.290      0.000      0.000
REMARK INTER + INTRA:         -12.143
REMARK INTER:                 -10.713
REMARK INTRA:                  -1.430
REMARK UNBOUND:                -1.430
REMARK  Name = 
REMARK  6 active torsions:
REMARK  status: ('A' for Active; 'I' for Inactive)
REMARK    1  A    between atoms: C_1  and  O_2
REMARK    2  A    between atoms: O_2  and  C_3
REMARK    3  A    between atoms: C_6  and  C_7
REMARK    4  A    between atoms: C_8  and  C_9
REMARK    5  A    between atoms: C_12  and  C_13
REMARK    6  A    between atoms: C_24  and  C_26
REMARK                            x       y       z     vdW  Elec       q    Type
REMARK                         _______ _______ _______ _____ _____    ______ ____
ROOT
ATOM      1  C   UNL     1      24.431   3.395  49.700  0.00  0.00    +0.000 C 
ATOM      2  C   UNL     1      22.910   3.430  49.490  0.00  0.00    +0.000 C 
ATOM      3  C   UNL     1      22.448   2.022  49.902  0.00  0.00    +0.000 C 
ATOM      4  C   UNL     1      23.506   1.560  50.904  0.00  0.00    +0.000 C 
ATOM      5  N   UNL     1      24.588   2.533  50.874  0.00  0.00    +0.000 N 
ATOM      6  C   UNL     1      25.834   2.292  51.475  0.00  0.00    +0.000 C 
ATOM      7  O   UNL     1      26.804   3.019  51.251  0.00  0.00    +0.000 OA
ENDROOT
BRANCH   3   8
ATOM      8  C   UNL     1      21.052   1.970  50.492  0.00  0.00    +0.000 A 
ATOM      9  C   UNL     1      20.414   3.135  50.987  0.00  0.00    +0.000 A 
ATOM     10  C   UNL     1      19.118   3.088  51.511  0.00  0.00    +0.000 A 
ATOM     11  C   UNL     1      18.476   1.872  51.509  0.00  0.00    +0.000 A 
ATOM     12  C   UNL     1      19.091   0.731  51.052  0.00  0.00    +0.000 A 
ATOM     13  C   UNL     1      20.378   0.740  50.557  0.00  0.00    +0.000 A 
ATOM     14  O   UNL     1      18.278  -0.358  51.130  0.00  0.00    +0.000 OA
ATOM     15  C   UNL     1      17.037   0.270  51.512  0.00  0.00    +0.000 C 
ATOM     16  O   UNL     1      17.199   1.644  51.919  0.00  0.00    +0.000 OA
ENDBRANCH   3   8
BRANCH   1  20
ATOM     17  C   UNL     1      26.072   7.411  49.925  0.00  0.00    +0.000 A 
ATOM     18  C   UNL     1      26.633   6.477  49.054  0.00  0.00    +0.000 A 
ATOM     19  C   UNL     1      26.125   5.173  48.983  0.00  0.00    +0.000 A 
ATOM     20  C   UNL     1      25.043   4.781  49.779  0.00  0.00    +0.000 A 
ATOM     21  C   UNL     1      24.505   5.720  50.676  0.00  0.00    +0.000 A 
ATOM     22  C   UNL     1      25.013   7.020  50.745  0.00  0.00    +0.000 A 
BRANCH  17  24
ATOM     23  C   UNL     1      27.756   9.049  49.590  0.00  0.00    +0.000 C 
ATOM     24  O   UNL     1      26.462   8.714  50.072  0.00  0.00    +0.000 OA
ENDBRANCH  17  24
ENDBRANCH   1  20
BRANCH   6  25
ATOM     25  C   UNL     1      25.981   1.111  52.328  0.00  0.00    +0.000 A 
ATOM     26  C   UNL     1      26.558  -0.112  52.058  0.00  0.00    +0.000 A 
ATOM     27  C   UNL     1      26.304  -0.946  53.173  0.00  0.00    +0.000 A 
ATOM     28  C   UNL     1      25.649  -0.164  54.092  0.00  0.00    +0.000 A 
ATOM     29  O   UNL     1      25.480   1.087  53.603  0.00  0.00    +0.000 OA
ENDBRANCH   6  25
BRANCH   2  30
ATOM     30  C   UNL     1      22.596   3.705  48.049  0.00  0.00    +0.000 C 
ATOM     31  O   UNL     1      22.495   4.801  47.525  0.00  0.00    +0.000 OA
ATOM     32  O   UNL     1      22.434   2.580  47.328  0.00  0.00    +0.000 OA
ENDBRANCH   2  30
TORSDOF 5
ENDMDL
MODEL 2
REMARK VINA RESULT:    -7.896      2.772      6.341
REMARK INTER + INTRA:         -11.635
REMARK INTER:                 -11.016
REMARK INTRA:                  -0.618
REMARK UNBOUND:                -1.430
REMARK  Name = 
REMARK  6 active torsions:
REMARK  status: ('A' for Active; 'I' for Inactive)
REMARK    1  A    between atoms: C_1  and  O_2
REMARK    2  A    between atoms: O_2  and  C_3
REMARK    3  A    between atoms: C_6  and  C_7
REMARK    4  A    between atoms: C_8  and  C_9
REMARK    5  A    between atoms: C_12  and  C_13
REMARK    6  A    between atoms: C_24  and  C_26
REMARK                            x       y       z     vdW  Elec       q    Type
REMARK                         _______ _______ _______ _____ _____    ______ ____
ROOT
ATOM      1  C   UNL     1      23.997   4.692  49.135  0.00  0.00    +0.000 C 
ATOM      2  C   UNL     1      23.854   3.526  50.123  0.00  0.00    +0.000 C 
ATOM      3  C   UNL     1      25.220   2.821  50.062  0.00  0.00    +0.000 C 
ATOM      4  C   UNL     1      26.193   3.925  49.650  0.00  0.00    +0.000 C 
ATOM      5  N   UNL     1      25.399   5.090  49.285  0.00  0.00    +0.000 N 
ATOM      6  C   UNL     1      25.948   6.196  48.617  0.00  0.00    +0.000 C 
ATOM      7  O   UNL     1      25.228   7.065  48.120  0.00  0.00    +0.000 OA
ENDROOT
BRANCH   3   8
ATOM      8  C   UNL     1      25.639   2.156  51.359  0.00  0.00    +0.000 A 
ATOM      9  C   UNL     1      24.721   1.408  52.138  0.00  0.00    +0.000 A 
ATOM     10  C   UNL     1      25.115   0.778  53.323  0.00  0.00    +0.000 A 
ATOM     11  C   UNL     1      26.434   0.893  53.695  0.00  0.00    +0.000 A 
ATOM     12  C   UNL     1      27.330   1.633  52.961  0.00  0.00    +0.000 A 
ATOM     13  C   UNL     1      26.964   2.289  51.804  0.00  0.00    +0.000 A 
ATOM     14  O   UNL     1      28.580   1.608  53.497  0.00  0.00    +0.000 OA
ATOM     15  C   UNL     1      28.397   0.626  54.537  0.00  0.00    +0.000 C 
ATOM     16  O   UNL     1      27.012   0.303  54.775  0.00  0.00    +0.000 OA
ENDBRANCH   3   8
BRANCH   1  20
ATOM     17  C   UNL     1      20.972   7.728  49.848  0.00  0.00    +0.000 A 
ATOM     18  C   UNL     1      21.077   7.130  48.591  0.00  0.00    +0.000 A 
ATOM     19  C   UNL     1      22.059   6.162  48.343  0.00  0.00    +0.000 A 
ATOM     20  C   UNL     1      22.950   5.770  49.347  0.00  0.00    +0.000 A 
ATOM     21  C   UNL     1      22.858   6.401  50.600  0.00  0.00    +0.000 A 
ATOM     22  C   UNL     1      21.878   7.366  50.846  0.00  0.00    +0.000 A 
BRANCH  17  24
ATOM     23  C   UNL     1      20.031   9.874  49.473  0.00  0.00    +0.000 C 
ATOM     24  O   UNL     1      20.050   8.665  50.221  0.00  0.00    +0.000 OA
ENDBRANCH  17  24
ENDBRANCH   1  20
BRANCH   6  25
ATOM     25  C   UNL     1      27.402   6.266  48.460  0.00  0.00    +0.000 A 
ATOM     26  C   UNL     1      28.331   5.254  48.343  0.00  0.00    +0.000 A 
ATOM     27  C   UNL     1      29.610   5.861  48.364  0.00  0.00    +0.000 A 
ATOM     28  C   UNL     1      29.388   7.214  48.421  0.00  0.00    +0.000 A 
ATOM     29  O   UNL     1      28.059   7.468  48.446  0.00  0.00    +0.000 OA
ENDBRANCH   6  25
BRANCH   2  30
ATOM     30  C   UNL     1      22.751   2.610  49.682  0.00  0.00    +0.000 C 
ATOM     31  O   UNL     1      21.847   2.178  50.377  0.00  0.00    +0.000 OA
ATOM     32  O   UNL     1      22.831   2.289  48.378  0.00  0.00    +0.000 OA
ENDBRANCH   2  30
TORSDOF 5
ENDMDL
MODEL 3
REMARK VINA RESULT:    -7.688      1.804      2.713
REMARK INTER + INTRA:         -11.365
REMARK INTER:                 -10.631
REMARK INTRA:                  -0.734
REMARK UNBOUND:                -1.430
REMARK  Name = 
REMARK  6 active torsions:
REMARK  status: ('A' for Active; 'I' for Inactive)
REMARK    1  A    between atoms: C_1  and  O_2
REMARK    2  A    between atoms: O_2  and  C_3
REMARK    3  A    between atoms: C_6  and  C_7
REMARK    4  A    between atoms: C_8  and  C_9
REMARK    5  A    between atoms: C_12  and  C_13
REMARK    6  A    between atoms: C_24  and  C_26
REMARK                            x       y       z     vdW  Elec       q    Type
REMARK                         _______ _______ _______ _____ _____    ______ ____
ROOT
ATOM      1  C   UNL     1      22.897   1.856  50.390  0.00  0.00    +0.000 C 
ATOM      2  C   UNL     1      21.463   2.061  49.881  0.00  0.00    +0.000 C 
ATOM      3  C   UNL     1      20.699   0.845  50.431  0.00  0.00    +0.000 C 
ATOM      4  C   UNL     1      21.476   0.451  51.687  0.00  0.00    +0.000 C 
ATOM      5  N   UNL     1      22.702   1.236  51.703  0.00  0.00    +0.000 N 
ATOM      6  C   UNL     1      23.768   0.950  52.570  0.00  0.00    +0.000 C 
ATOM      7  O   UNL     1      24.874   1.473  52.419  0.00  0.00    +0.000 OA
ENDROOT
BRANCH   3   8
ATOM      8  C   UNL     1      19.236   1.110  50.734  0.00  0.00    +0.000 A 
ATOM      9  C   UNL     1      18.269   0.075  50.680  0.00  0.00    +0.000 A 
ATOM     10  C   UNL     1      16.925   0.317  50.981  0.00  0.00    +0.000 A 
ATOM     11  C   UNL     1      16.579   1.595  51.353  0.00  0.00    +0.000 A 
ATOM     12  C   UNL     1      17.501   2.614  51.388  0.00  0.00    +0.000 A 
ATOM     13  C   UNL     1      18.828   2.411  51.069  0.00  0.00    +0.000 A 
ATOM     14  O   UNL     1      16.953   3.792  51.790  0.00  0.00    +0.000 OA
ATOM     15  C   UNL     1      15.635   3.348  52.172  0.00  0.00    +0.000 C 
ATOM     16  O   UNL     1      15.340   2.005  51.738  0.00  0.00    +0.000 OA
ENDBRANCH   3   8
BRANCH   1  20
ATOM     17  C   UNL     1      25.154   5.565  50.251  0.00  0.00    +0.000 A 
ATOM     18  C   UNL     1      25.605   4.449  49.545  0.00  0.00    +0.000 A 
ATOM     19  C   UNL     1      24.895   3.241  49.594  0.00  0.00    +0.000 A 
ATOM     20  C   UNL     1      23.721   3.129  50.347  0.00  0.00    +0.000 A 
ATOM     21  C   UNL     1      23.293   4.250  51.079  0.00  0.00    +0.000 A 
ATOM     22  C   UNL     1      24.002   5.453  51.029  0.00  0.00    +0.000 A 
BRANCH  17  24
ATOM     23  C   UNL     1      26.502   7.159  49.121  0.00  0.00    +0.000 C 
ATOM     24  O   UNL     1      25.742   6.799  50.268  0.00  0.00    +0.000 OA
ENDBRANCH  17  24
ENDBRANCH   1  20
BRANCH   6  25
ATOM     25  C   UNL     1      23.561  -0.043  53.627  0.00  0.00    +0.000 A 
ATOM     26  C   UNL     1      22.391  -0.526  54.173  0.00  0.00    +0.000 A 
ATOM     27  C   UNL     1      22.752  -1.357  55.260  0.00  0.00    +0.000 A 
ATOM     28  C   UNL     1      24.125  -1.391  55.273  0.00  0.00    +0.000 A 
ATOM     29  O   UNL     1      24.619  -0.627  54.271  0.00  0.00    +0.000 OA
ENDBRANCH   6  25
BRANCH   2  30
ATOM     30  C   UNL     1      21.447   2.079  48.381  0.00  0.00    +0.000 C 
ATOM     31  O   UNL     1      22.270   1.567  47.641  0.00  0.00    +0.000 OA
ATOM     32  O   UNL     1      20.384   2.735  47.880  0.00  0.00    +0.000 OA
ENDBRANCH   2  30
TORSDOF 5
ENDMDL
MODEL 4
REMARK VINA RESULT:    -7.517      2.539      5.886
REMARK INTER + INTRA:         -11.145
REMARK INTER:                 -10.317
REMARK INTRA:                  -0.827
REMARK UNBOUND:                -1.430
REMARK  Name = 
REMARK  6 active torsions:
REMARK  status: ('A' for Active; 'I' for Inactive)
REMARK    1  A    between atoms: C_1  and  O_2
REMARK    2  A    between atoms: O_2  and  C_3
REMARK    3  A    between atoms: C_6  and  C_7
REMARK    4  A    between atoms: C_8  and  C_9
REMARK    5  A    between atoms: C_12  and  C_13
REMARK    6  A    between atoms: C_24  and  C_26
REMARK                            x       y       z     vdW  Elec       q    Type
REMARK                         _______ _______ _______ _____ _____    ______ ____
ROOT
ATOM      1  C   UNL     1      24.086   1.563  51.342  0.00  0.00    +0.000 C 
ATOM      2  C   UNL     1      24.082   3.006  50.815  0.00  0.00    +0.000 C 
ATOM      3  C   UNL     1      22.649   3.202  50.289  0.00  0.00    +0.000 C 
ATOM      4  C   UNL     1      21.810   2.230  51.119  0.00  0.00    +0.000 C 
ATOM      5  N   UNL     1      22.733   1.397  51.877  0.00  0.00    +0.000 N 
ATOM      6  C   UNL     1      22.320   0.233  52.545  0.00  0.00    +0.000 C 
ATOM      7  O   UNL     1      23.140  -0.575  52.987  0.00  0.00    +0.000 OA
ENDROOT
BRANCH   3   8
ATOM      8  C   UNL     1      22.134   4.624  50.396  0.00  0.00    +0.000 A 
ATOM      9  C   UNL     1      22.894   5.642  51.026  0.00  0.00    +0.000 A 
ATOM     10  C   UNL     1      22.426   6.957  51.104  0.00  0.00    +0.000 A 
ATOM     11  C   UNL     1      21.208   7.233  50.528  0.00  0.00    +0.000 A 
ATOM     12  C   UNL     1      20.450   6.252  49.934  0.00  0.00    +0.000 A 
ATOM     13  C   UNL     1      20.873   4.941  49.867  0.00  0.00    +0.000 A 
ATOM     14  O   UNL     1      19.288   6.739  49.420  0.00  0.00    +0.000 OA
ATOM     15  C   UNL     1      19.497   8.155  49.601  0.00  0.00    +0.000 C 
ATOM     16  O   UNL     1      20.622   8.458  50.451  0.00  0.00    +0.000 OA
ENDBRANCH   3   8
BRANCH   1  20
ATOM     17  C   UNL     1      27.365   0.666  54.046  0.00  0.00    +0.000 A 
ATOM     18  C   UNL     1      26.454   1.673  54.366  0.00  0.00    +0.000 A 
ATOM     19  C   UNL     1      25.401   1.984  53.495  0.00  0.00    +0.000 A 
ATOM     20  C   UNL     1      25.239   1.291  52.291  0.00  0.00    +0.000 A 
ATOM     21  C   UNL     1      26.180   0.300  51.963  0.00  0.00    +0.000 A 
ATOM     22  C   UNL     1      27.229  -0.009  52.833  0.00  0.00    +0.000 A 
BRANCH  17  24
ATOM     23  C   UNL     1      29.492  -0.383  54.140  0.00  0.00    +0.000 C 
ATOM     24  O   UNL     1      28.417   0.255  54.817  0.00  0.00    +0.000 OA
ENDBRANCH  17  24
ENDBRANCH   1  20
BRANCH   6  25
ATOM     25  C   UNL     1      20.886  -0.042  52.649  0.00  0.00    +0.000 A 
ATOM     26  C   UNL     1      20.138  -0.457  53.730  0.00  0.00    +0.000 A 
ATOM     27  C   UNL     1      18.830  -0.714  53.256  0.00  0.00    +0.000 A 
ATOM     28  C   UNL     1      18.833  -0.374  51.926  0.00  0.00    +0.000 A 
ATOM     29  O   UNL     1      20.061   0.063  51.560  0.00  0.00    +0.000 OA
ENDBRANCH   6  25
BRANCH   2  30
ATOM     30  C   UNL     1      25.089   3.154  49.713  0.00  0.00    +0.000 C 
ATOM     31  O   UNL     1      26.301   3.203  49.841  0.00  0.00    +0.000 OA
ATOM     32  O   UNL     1      24.522   3.222  48.495  0.00  0.00    +0.000 OA
ENDBRANCH   2  30
TORSDOF 5
ENDMDL
MODEL 5
REMARK VINA RESULT:    -7.296      2.074      7.254
REMARK INTER + INTRA:         -10.859
REMARK INTER:                  -9.532
REMARK INTRA:                  -1.327
REMARK UNBOUND:                -1.430
REMARK  Name = 
REMARK  6 active torsions:
REMARK  status: ('A' for Active; 'I' for Inactive)
REMARK    1  A    between atoms: C_1  and  O_2
REMARK    2  A    between atoms: O_2  and  C_3
REMARK    3  A    between atoms: C_6  and  C_7
REMARK    4  A    between atoms: C_8  and  C_9
REMARK    5  A    between atoms: C_12  and  C_13
REMARK    6  A    between atoms: C_24  and  C_26
REMARK                            x       y       z     vdW  Elec       q    Type
REMARK                         _______ _______ _______ _____ _____    ______ ____
ROOT
ATOM      1  C   UNL     1      21.396   3.491  49.697  0.00  0.00    +0.000 C 
ATOM      2  C   UNL     1      21.952   2.231  50.378  0.00  0.00    +0.000 C 
ATOM      3  C   UNL     1      23.477   2.429  50.332  0.00  0.00    +0.000 C 
ATOM      4  C   UNL     1      23.656   3.947  50.297  0.00  0.00    +0.000 C 
ATOM      5  N   UNL     1      22.339   4.536  50.104  0.00  0.00    +0.000 N 
ATOM      6  C   UNL     1      22.161   5.888  49.770  0.00  0.00    +0.000 C 
ATOM      7  O   UNL     1      21.068   6.315  49.392  0.00  0.00    +0.000 OA
ENDROOT
BRANCH   3   8
ATOM      8  C   UNL     1      24.224   1.800  51.492  0.00  0.00    +0.000 A 
ATOM      9  C   UNL     1      23.553   1.028  52.474  0.00  0.00    +0.000 A 
ATOM     10  C   UNL     1      24.247   0.430  53.530  0.00  0.00    +0.000 A 
ATOM     11  C   UNL     1      25.612   0.601  53.570  0.00  0.00    +0.000 A 
ATOM     12  C   UNL     1      26.273   1.365  52.638  0.00  0.00    +0.000 A 
ATOM     13  C   UNL     1      25.611   1.990  51.601  0.00  0.00    +0.000 A 
ATOM     14  O   UNL     1      27.615   1.396  52.855  0.00  0.00    +0.000 OA
ATOM     15  C   UNL     1      27.730   0.422  53.913  0.00  0.00    +0.000 C 
ATOM     16  O   UNL     1      26.457   0.050  54.481  0.00  0.00    +0.000 OA
ENDBRANCH   3   8
BRANCH   1  20
ATOM     17  C   UNL     1      17.203   4.074  50.672  0.00  0.00    +0.000 A 
ATOM     18  C   UNL     1      17.627   4.152  49.345  0.00  0.00    +0.000 A 
ATOM     19  C   UNL     1      18.980   3.983  49.018  0.00  0.00    +0.000 A 
ATOM     20  C   UNL     1      19.931   3.728  50.012  0.00  0.00    +0.000 A 
ATOM     21  C   UNL     1      19.499   3.682  51.349  0.00  0.00    +0.000 A 
ATOM     22  C   UNL     1      18.150   3.851  51.673  0.00  0.00    +0.000 A 
BRANCH  17  24
ATOM     23  C   UNL     1      15.711   4.073  52.518  0.00  0.00    +0.000 C 
ATOM     24  O   UNL     1      15.916   4.200  51.117  0.00  0.00    +0.000 OA
ENDBRANCH  17  24
ENDBRANCH   1  20
BRANCH   6  25
ATOM     25  C   UNL     1      23.324   6.777  49.813  0.00  0.00    +0.000 A 
ATOM     26  C   UNL     1      23.800   7.565  50.840  0.00  0.00    +0.000 A 
ATOM     27  C   UNL     1      24.862   8.336  50.312  0.00  0.00    +0.000 A 
ATOM     28  C   UNL     1      25.022   7.926  49.012  0.00  0.00    +0.000 A 
ATOM     29  O   UNL     1      24.119   6.962  48.713  0.00  0.00    +0.000 OA
ENDBRANCH   6  25
BRANCH   2  30
ATOM     30  C   UNL     1      21.540   1.009  49.613  0.00  0.00    +0.000 C 
ATOM     31  O   UNL     1      21.651   0.835  48.411  0.00  0.00    +0.000 OA
ATOM     32  O   UNL     1      21.015   0.053  50.402  0.00  0.00    +0.000 OA
ENDBRANCH   2  30
TORSDOF 5
ENDMDL
MODEL 6
REMARK VINA RESULT:    -7.218      2.290      6.559
REMARK INTER + INTRA:         -10.758
REMARK INTER:                  -9.524
REMARK INTRA:                  -1.234
REMARK UNBOUND:                -1.430
REMARK  Name = 
REMARK  6 active torsions:
REMARK  status: ('A' for Active; 'I' for Inactive)
REMARK    1  A    between atoms: C_1  and  O_2
REMARK    2  A    between atoms: O_2  and  C_3
REMARK    3  A    between atoms: C_6  and  C_7
REMARK    4  A    between atoms: C_8  and  C_9
REMARK    5  A    between atoms: C_12  and  C_13
REMARK    6  A    between atoms: C_24  and  C_26
REMARK                            x       y       z     vdW  Elec       q    Type
REMARK                         _______ _______ _______ _____ _____    ______ ____
ROOT
ATOM      1  C   UNL     1      24.648   2.161  50.802  0.00  0.00    +0.000 C 
ATOM      2  C   UNL     1      24.964   3.573  50.287  0.00  0.00    +0.000 C 
ATOM      3  C   UNL     1      23.717   3.956  49.472  0.00  0.00    +0.000 C 
ATOM      4  C   UNL     1      22.591   3.139  50.106  0.00  0.00    +0.000 C 
ATOM      5  N   UNL     1      23.203   2.206  51.040  0.00  0.00    +0.000 N 
ATOM      6  C   UNL     1      22.495   1.133  51.605  0.00  0.00    +0.000 C 
ATOM      7  O   UNL     1      23.077   0.230  52.210  0.00  0.00    +0.000 OA
ENDROOT
BRANCH   3   8
ATOM      8  C   UNL     1      23.404   5.440  49.469  0.00  0.00    +0.000 A 
ATOM      9  C   UNL     1      23.173   6.150  50.675  0.00  0.00    +0.000 A 
ATOM     10  C   UNL     1      22.906   7.523  50.671  0.00  0.00    +0.000 A 
ATOM     11  C   UNL     1      22.896   8.164  49.455  0.00  0.00    +0.000 A 
ATOM     12  C   UNL     1      23.096   7.485  48.277  0.00  0.00    +0.000 A 
ATOM     13  C   UNL     1      23.333   6.126  48.247  0.00  0.00    +0.000 A 
ATOM     14  O   UNL     1      23.055   8.307  47.194  0.00  0.00    +0.000 OA
ATOM     15  C   UNL     1      22.990   9.592  47.846  0.00  0.00    +0.000 C 
ATOM     16  O   UNL     1      22.716   9.498  49.259  0.00  0.00    +0.000 OA
ENDBRANCH   3   8
BRANCH   1  20
ATOM     17  C   UNL     1      27.132   0.884  54.129  0.00  0.00    +0.000 A 
ATOM     18  C   UNL     1      26.257   1.959  54.286  0.00  0.00    +0.000 A 
ATOM     19  C   UNL     1      25.462   2.393  53.216  0.00  0.00    +0.000 A 
ATOM     20  C   UNL     1      25.525   1.755  51.972  0.00  0.00    +0.000 A 
ATOM     21  C   UNL     1      26.431   0.693  51.816  0.00  0.00    +0.000 A 
ATOM     22  C   UNL     1      27.223   0.262  52.884  0.00  0.00    +0.000 A 
BRANCH  17  24
ATOM     23  C   UNL     1      29.119  -0.306  54.650  0.00  0.00    +0.000 C 
ATOM     24  O   UNL     1      27.941   0.355  55.096  0.00  0.00    +0.000 OA
ENDBRANCH  17  24
ENDBRANCH   1  20
BRANCH   6  25
ATOM     25  C   UNL     1      21.046   1.069  51.405  0.00  0.00    +0.000 A 
ATOM     26  C   UNL     1      20.311   0.383  50.461  0.00  0.00    +0.000 A 
ATOM     27  C   UNL     1      18.961   0.780  50.618  0.00  0.00    +0.000 A 
ATOM     28  C   UNL     1      18.937   1.631  51.694  0.00  0.00    +0.000 A 
ATOM     29  O   UNL     1      20.186   1.785  52.195  0.00  0.00    +0.000 OA
ENDBRANCH   6  25
BRANCH   2  30
ATOM     30  C   UNL     1      26.189   3.542  49.422  0.00  0.00    +0.000 C 
ATOM     31  O   UNL     1      26.787   2.548  49.047  0.00  0.00    +0.000 OA
ATOM     32  O   UNL     1      26.600   4.771  49.059  0.00  0.00    +0.000 OA
ENDBRANCH   2  30
TORSDOF 5
ENDMDL
MODEL 7
REMARK VINA RESULT:    -6.886      2.846      6.752
REMARK INTER + INTRA:         -10.330
REMARK INTER:                  -9.813
REMARK INTRA:                  -0.516
REMARK UNBOUND:                -1.430
REMARK  Name = 
REMARK  6 active torsions:
REMARK  status: ('A' for Active; 'I' for Inactive)
REMARK    1  A    between atoms: C_1  and  O_2
REMARK    2  A    between atoms: O_2  and  C_3
REMARK    3  A    between atoms: C_6  and  C_7
REMARK    4  A    between atoms: C_8  and  C_9
REMARK    5  A    between atoms: C_12  and  C_13
REMARK    6  A    between atoms: C_24  and  C_26
REMARK                            x       y       z     vdW  Elec       q    Type
REMARK                         _______ _______ _______ _____ _____    ______ ____
ROOT
ATOM      1  C   UNL     1      21.810   3.202  51.973  0.00  0.00    +0.000 C 
ATOM      2  C   UNL     1      23.336   3.202  52.139  0.00  0.00    +0.000 C 
ATOM      3  C   UNL     1      23.589   2.140  53.224  0.00  0.00    +0.000 C 
ATOM      4  C   UNL     1      22.400   1.187  53.098  0.00  0.00    +0.000 C 
ATOM      5  N   UNL     1      21.449   1.798  52.181  0.00  0.00    +0.000 N 
ATOM      6  C   UNL     1      20.135   1.324  52.033  0.00  0.00    +0.000 C 
ATOM      7  O   UNL     1      19.283   1.979  51.430  0.00  0.00    +0.000 OA
ENDROOT
BRANCH   3   8
ATOM      8  C   UNL     1      24.912   1.410  53.088  0.00  0.00    +0.000 A 
ATOM      9  C   UNL     1      25.455   1.092  51.818  0.00  0.00    +0.000 A 
ATOM     10  C   UNL     1      26.685   0.439  51.695  0.00  0.00    +0.000 A 
ATOM     11  C   UNL     1      27.361   0.135  52.854  0.00  0.00    +0.000 A 
ATOM     12  C   UNL     1      26.836   0.417  54.093  0.00  0.00    +0.000 A 
ATOM     13  C   UNL     1      25.612   1.035  54.245  0.00  0.00    +0.000 A 
ATOM     14  O   UNL     1      27.668   0.043  55.102  0.00  0.00    +0.000 OA
ATOM     15  C   UNL     1      28.838  -0.334  54.349  0.00  0.00    +0.000 C 
ATOM     16  O   UNL     1      28.590  -0.441  52.932  0.00  0.00    +0.000 OA
ENDBRANCH   3   8
BRANCH   1  20
ATOM     17  C   UNL     1      20.647   5.028  48.207  0.00  0.00    +0.000 A 
ATOM     18  C   UNL     1      20.141   5.526  49.408  0.00  0.00    +0.000 A 
ATOM     19  C   UNL     1      20.494   4.936  50.629  0.00  0.00    +0.000 A 
ATOM     20  C   UNL     1      21.363   3.841  50.671  0.00  0.00    +0.000 A 
ATOM     21  C   UNL     1      21.843   3.327  49.454  0.00  0.00    +0.000 A 
ATOM     22  C   UNL     1      21.489   3.917  48.237  0.00  0.00    +0.000 A 
BRANCH  17  24
ATOM     23  C   UNL     1      19.801   6.815  46.893  0.00  0.00    +0.000 C 
ATOM     24  O   UNL     1      20.396   5.525  46.958  0.00  0.00    +0.000 OA
ENDBRANCH  17  24
ENDBRANCH   1  20
BRANCH   6  25
ATOM     25  C   UNL     1      19.774   0.056  52.671  0.00  0.00    +0.000 A 
ATOM     26  C   UNL     1      18.581  -0.636  52.655  0.00  0.00    +0.000 A 
ATOM     27  C   UNL     1      18.721  -1.723  53.551  0.00  0.00    +0.000 A 
ATOM     28  C   UNL     1      20.014  -1.675  54.009  0.00  0.00    +0.000 A 
ATOM     29  O   UNL     1      20.665  -0.623  53.458  0.00  0.00    +0.000 OA
ENDBRANCH   6  25
BRANCH   2  30
ATOM     30  C   UNL     1      23.806   4.555  52.585  0.00  0.00    +0.000 C 
ATOM     31  O   UNL     1      23.855   4.962  53.734  0.00  0.00    +0.000 OA
ATOM     32  O   UNL     1      24.204   5.331  51.561  0.00  0.00    +0.000 OA
ENDBRANCH   2  30
TORSDOF 5
ENDMDL
MODEL 8
REMARK VINA RESULT:    -6.781      2.881      3.982
REMARK INTER + INTRA:         -10.194
REMARK INTER:                  -8.816
REMARK INTRA:                  -1.378
REMARK UNBOUND:                -1.430
REMARK  Name = 
REMARK  6 active torsions:
REMARK  status: ('A' for Active; 'I' for Inactive)
REMARK    1  A    between atoms: C_1  and  O_2
REMARK    2  A    between atoms: O_2  and  C_3
REMARK    3  A    between atoms: C_6  and  C_7
REMARK    4  A    between atoms: C_8  and  C_9
REMARK    5  A    between atoms: C_12  and  C_13
REMARK    6  A    between atoms: C_24  and  C_26
REMARK                            x       y       z     vdW  Elec       q    Type
REMARK                         _______ _______ _______ _____ _____    ______ ____
ROOT
ATOM      1  C   UNL     1      20.675   3.001  50.292  0.00  0.00    +0.000 C 
ATOM      2  C   UNL     1      19.194   3.401  50.216  0.00  0.00    +0.000 C 
ATOM      3  C   UNL     1      18.454   2.185  50.799  0.00  0.00    +0.000 C 
ATOM      4  C   UNL     1      19.471   1.545  51.742  0.00  0.00    +0.000 C 
ATOM      5  N   UNL     1      20.746   2.212  51.524  0.00  0.00    +0.000 N 
ATOM      6  C   UNL     1      21.955   1.710  52.033  0.00  0.00    +0.000 C 
ATOM      7  O   UNL     1      23.042   2.154  51.656  0.00  0.00    +0.000 OA
ENDROOT
BRANCH   3   8
ATOM      8  C   UNL     1      17.159   2.525  51.512  0.00  0.00    +0.000 A 
ATOM      9  C   UNL     1      16.822   3.864  51.835  0.00  0.00    +0.000 A 
ATOM     10  C   UNL     1      15.618   4.177  52.474  0.00  0.00    +0.000 A 
ATOM     11  C   UNL     1      14.761   3.139  52.759  0.00  0.00    +0.000 A 
ATOM     12  C   UNL     1      15.086   1.834  52.472  0.00  0.00    +0.000 A 
ATOM     13  C   UNL     1      16.278   1.492  51.868  0.00  0.00    +0.000 A 
ATOM     14  O   UNL     1      14.098   0.968  52.826  0.00  0.00    +0.000 OA
ATOM     15  C   UNL     1      13.058   1.897  53.195  0.00  0.00    +0.000 C 
ATOM     16  O   UNL     1      13.528   3.255  53.319  0.00  0.00    +0.000 OA
ENDBRANCH   3   8
BRANCH   1  20
ATOM     17  C   UNL     1      23.439   6.336  49.965  0.00  0.00    +0.000 A 
ATOM     18  C   UNL     1      22.494   6.313  50.991  0.00  0.00    +0.000 A 
ATOM     19  C   UNL     1      21.585   5.252  51.099  0.00  0.00    +0.000 A 
ATOM     20  C   UNL     1      21.609   4.193  50.185  0.00  0.00    +0.000 A 
ATOM     21  C   UNL     1      22.544   4.241  49.137  0.00  0.00    +0.000 A 
ATOM     22  C   UNL     1      23.450   5.300  49.031  0.00  0.00    +0.000 A 
BRANCH  17  24
ATOM     23  C   UNL     1      25.716   6.979  50.163  0.00  0.00    +0.000 C 
ATOM     24  O   UNL     1      24.389   7.300  49.765  0.00  0.00    +0.000 OA
ENDBRANCH  17  24
ENDBRANCH   1  20
BRANCH   6  25
ATOM     25  C   UNL     1      21.905   0.593  52.978  0.00  0.00    +0.000 A 
ATOM     26  C   UNL     1      22.364  -0.701  52.847  0.00  0.00    +0.000 A 
ATOM     27  C   UNL     1      21.934  -1.412  53.993  0.00  0.00    +0.000 A 
ATOM     28  C   UNL     1      21.298  -0.496  54.793  0.00  0.00    +0.000 A 
ATOM     29  O   UNL     1      21.305   0.723  54.203  0.00  0.00    +0.000 OA
ENDBRANCH   6  25
BRANCH   2  30
ATOM     30  C   UNL     1      18.800   3.643  48.789  0.00  0.00    +0.000 C 
ATOM     31  O   UNL     1      18.080   4.537  48.378  0.00  0.00    +0.000 OA
ATOM     32  O   UNL     1      19.343   2.751  47.940  0.00  0.00    +0.000 OA
ENDBRANCH   2  30
TORSDOF 5
ENDMDL
MODEL 9
REMARK VINA RESULT:    -6.442      2.684      6.270
REMARK INTER + INTRA:          -9.755
REMARK INTER:                  -8.702
REMARK INTRA:                  -1.053
REMARK UNBOUND:                -1.430
REMARK  Name = 
REMARK  6 active torsions:
REMARK  status: ('A' for Active; 'I' for Inactive)
REMARK    1  A    between atoms: C_1  and  O_2
REMARK    2  A    between atoms: O_2  and  C_3
REMARK    3  A    between atoms: C_6  and  C_7
REMARK    4  A    between atoms: C_8  and  C_9
REMARK    5  A    between atoms: C_12  and  C_13
REMARK    6  A    between atoms: C_24  and  C_26
REMARK                            x       y       z     vdW  Elec       q    Type
REMARK                         _______ _______ _______ _____ _____    ______ ____
ROOT
ATOM      1  C   UNL     1      21.699   4.587  51.293  0.00  0.00    +0.000 C 
ATOM      2  C   UNL     1      23.151   4.253  51.666  0.00  0.00    +0.000 C 
ATOM      3  C   UNL     1      23.035   2.940  52.460  0.00  0.00    +0.000 C 
ATOM      4  C   UNL     1      21.759   2.291  51.925  0.00  0.00    +0.000 C 
ATOM      5  N   UNL     1      21.097   3.270  51.075  0.00  0.00    +0.000 N 
ATOM      6  C   UNL     1      19.776   3.106  50.626  0.00  0.00    +0.000 C 
ATOM      7  O   UNL     1      19.159   4.036  50.102  0.00  0.00    +0.000 OA
ENDROOT
BRANCH   3   8
ATOM      8  C   UNL     1      24.233   2.021  52.326  0.00  0.00    +0.000 A 
ATOM      9  C   UNL     1      25.336   2.357  51.499  0.00  0.00    +0.000 A 
ATOM     10  C   UNL     1      26.449   1.517  51.394  0.00  0.00    +0.000 A 
ATOM     11  C   UNL     1      26.446   0.361  52.139  0.00  0.00    +0.000 A 
ATOM     12  C   UNL     1      25.375   0.012  52.927  0.00  0.00    +0.000 A 
ATOM     13  C   UNL     1      24.251   0.806  53.029  0.00  0.00    +0.000 A 
ATOM     14  O   UNL     1      25.580  -1.161  53.585  0.00  0.00    +0.000 OA
ATOM     15  C   UNL     1      26.964  -1.404  53.259  0.00  0.00    +0.000 C 
ATOM     16  O   UNL     1      27.459  -0.543  52.213  0.00  0.00    +0.000 OA
ENDBRANCH   3   8
BRANCH   1  20
ATOM     17  C   UNL     1      21.539   7.423  48.007  0.00  0.00    +0.000 A 
ATOM     18  C   UNL     1      20.937   7.735  49.226  0.00  0.00    +0.000 A 
ATOM     19  C   UNL     1      20.967   6.823  50.289  0.00  0.00    +0.000 A 
ATOM     20  C   UNL     1      21.602   5.584  50.153  0.00  0.00    +0.000 A 
ATOM     21  C   UNL     1      22.178   5.266  48.911  0.00  0.00    +0.000 A 
ATOM     22  C   UNL     1      22.148   6.177  47.852  0.00  0.00    +0.000 A 
BRANCH  17  24
ATOM     23  C   UNL     1      21.057   9.539  47.045  0.00  0.00    +0.000 C 
ATOM     24  O   UNL     1      21.597   8.231  46.905  0.00  0.00    +0.000 OA
ENDBRANCH  17  24
ENDBRANCH   1  20
BRANCH   6  25
ATOM     25  C   UNL     1      19.115   1.820  50.855  0.00  0.00    +0.000 A 
ATOM     26  C   UNL     1      18.625   0.901  49.951  0.00  0.00    +0.000 A 
ATOM     27  C   UNL     1      17.953  -0.096  50.697  0.00  0.00    +0.000 A 
ATOM     28  C   UNL     1      18.131   0.230  52.018  0.00  0.00    +0.000 A 
ATOM     29  O   UNL     1      18.859   1.368  52.123  0.00  0.00    +0.000 OA
ENDBRANCH   6  25
BRANCH   2  30
ATOM     30  C   UNL     1      23.731   5.349  52.510  0.00  0.00    +0.000 C 
ATOM     31  O   UNL     1      23.795   5.368  53.728  0.00  0.00    +0.000 OA
ATOM     32  O   UNL     1      24.215   6.368  51.779  0.00  0.00    +0.000 OA
ENDBRANCH   2  30
TORSDOF 5
ENDMDL
