MODEL 1
REMARK VINA RESULT:    -7.503      0.000      0.000
REMARK INTER + INTRA:          -9.798
REMARK INTER:                  -8.818
REMARK INTRA:                  -0.980
REMARK UNBOUND:                -0.980
REMARK  Name = 
REMARK  6 active torsions:
REMARK  status: ('A' for Active; 'I' for Inactive)
REMARK    1  A    between atoms: C_1  and  C_2
REMARK    2  A    between atoms: N_9  and  S_10
REMARK    3  A    between atoms: S_10  and  C_13
REMARK    4  A    between atoms: C_18  and  N_19
REMARK    5  A    between atoms: N_19  and  C_20
REMARK    6  A    between atoms: N_19  and  C_21
REMARK                            x       y       z     vdW  Elec       q    Type
REMARK                         _______ _______ _______ _____ _____    ______ ____
ROOT
ATOM      1  S   UNL     1      23.321   1.278  52.656  0.00  0.00    +0.000 S 
ATOM      2  O   UNL     1      23.939   0.071  52.147  0.00  0.00    +0.000 OA
ATOM      3  O   UNL     1      22.258   1.167  53.641  0.00  0.00    +0.000 OA
ENDROOT
BRANCH   1  12
ATOM      4  C   UNL     1      26.624   2.409  51.139  0.00  0.00    +0.000 C 
ATOM      5  C   UNL     1      26.779   1.628  52.401  0.00  0.00    +0.000 A 
ATOM      6  C   UNL     1      27.967   0.909  52.604  0.00  0.00    +0.000 A 
ATOM      7  C   UNL     1      28.098   0.168  53.762  0.00  0.00    +0.000 A 
ATOM      8 CL   UNL     1      29.509  -0.744  54.093  0.00  0.00    +0.000 Cl
ATOM      9  N   UNL     1      27.154   0.117  54.711  0.00  0.00    +0.000 NA
ATOM     10  N   UNL     1      25.993   0.798  54.514  0.00  0.00    +0.000 NA
ATOM     11  C   UNL     1      25.818   1.540  53.400  0.00  0.00    +0.000 A 
ATOM     12  N   UNL     1      24.557   2.159  53.370  0.00  0.00    +0.000 N 
ATOM     13  H   UNL     1      24.408   3.057  53.746  0.00  0.00    +0.000 HD
ENDBRANCH   1  12
BRANCH   1  14
ATOM     14  C   UNL     1      22.691   2.198  51.267  0.00  0.00    +0.000 A 
ATOM     15  C   UNL     1      22.358   1.468  50.124  0.00  0.00    +0.000 A 
ATOM     16  C   UNL     1      22.385   2.097  48.883  0.00  0.00    +0.000 A 
ATOM     17  C   UNL     1      22.982   3.359  48.779  0.00  0.00    +0.000 A 
ATOM     18  C   UNL     1      23.378   4.070  49.932  0.00  0.00    +0.000 A 
ATOM     19  C   UNL     1      23.747   5.417  49.876  0.00  0.00    +0.000 A 
ATOM     20  C   UNL     1      22.729   6.251  50.283  0.00  0.00    +0.000 A 
ATOM     21  C   UNL     1      21.946   5.799  51.341  0.00  0.00    +0.000 A 
ATOM     22  C   UNL     1      22.181   4.525  51.881  0.00  0.00    +0.000 A 
ATOM     23  C   UNL     1      22.901   3.583  51.138  0.00  0.00    +0.000 A 
BRANCH  19  24
ATOM     24  N   UNL     1      25.063   5.863  49.872  0.00  0.00    +0.000 N 
ATOM     25  C   UNL     1      25.447   7.122  50.514  0.00  0.00    +0.000 C 
ATOM     26  C   UNL     1      26.092   5.214  49.070  0.00  0.00    +0.000 C 
ENDBRANCH  19  24
ENDBRANCH   1  14
TORSDOF 3
ENDMDL
MODEL 2
REMARK VINA RESULT:    -7.484      3.072      4.745
REMARK INTER + INTRA:          -9.776
REMARK INTER:                  -9.103
REMARK INTRA:                  -0.673
REMARK UNBOUND:                -0.980
REMARK  Name = 
REMARK  6 active torsions:
REMARK  status: ('A' for Active; 'I' for Inactive)
REMARK    1  A    between atoms: C_1  and  C_2
REMARK    2  A    between atoms: N_9  and  S_10
REMARK    3  A    between atoms: S_10  and  C_13
REMARK    4  A    between atoms: C_18  and  N_19
REMARK    5  A    between atoms: N_19  and  C_20
REMARK    6  A    between atoms: N_19  and  C_21
REMARK                            x       y       z     vdW  Elec       q    Type
REMARK                         _______ _______ _______ _____ _____    ______ ____
ROOT
ATOM      1  S   UNL     1      22.947   4.096  51.589  0.00  0.00    +0.000 S 
ATOM      2  O   UNL     1      21.956   4.601  52.518  0.00  0.00    +0.000 OA
ATOM      3  O   UNL     1      23.281   4.885  50.415  0.00  0.00    +0.000 OA
ENDROOT
BRANCH   1  12
ATOM      4  C   UNL     1      26.453   3.289  50.347  0.00  0.00    +0.000 C 
ATOM      5  C   UNL     1      25.959   2.356  51.402  0.00  0.00    +0.000 A 
ATOM      6  C   UNL     1      26.470   1.049  51.434  0.00  0.00    +0.000 A 
ATOM      7  C   UNL     1      25.994   0.180  52.396  0.00  0.00    +0.000 A 
ATOM      8 CL   UNL     1      26.554  -1.434  52.510  0.00  0.00    +0.000 Cl
ATOM      9  N   UNL     1      25.083   0.530  53.315  0.00  0.00    +0.000 NA
ATOM     10  N   UNL     1      24.573   1.791  53.281  0.00  0.00    +0.000 NA
ATOM     11  C   UNL     1      25.007   2.678  52.360  0.00  0.00    +0.000 A 
ATOM     12  N   UNL     1      24.359   3.919  52.476  0.00  0.00    +0.000 N 
ATOM     13  H   UNL     1      24.713   4.641  53.043  0.00  0.00    +0.000 HD
ENDBRANCH   1  12
BRANCH   1  14
ATOM     14  C   UNL     1      22.411   2.489  51.038  0.00  0.00    +0.000 A 
ATOM     15  C   UNL     1      22.764   2.116  49.739  0.00  0.00    +0.000 A 
ATOM     16  C   UNL     1      21.981   1.187  49.061  0.00  0.00    +0.000 A 
ATOM     17  C   UNL     1      20.731   0.846  49.590  0.00  0.00    +0.000 A 
ATOM     18  C   UNL     1      20.347   1.277  50.877  0.00  0.00    +0.000 A 
ATOM     19  C   UNL     1      19.223   0.754  51.524  0.00  0.00    +0.000 A 
ATOM     20  C   UNL     1      19.559  -0.202  52.456  0.00  0.00    +0.000 A 
ATOM     21  C   UNL     1      20.722   0.026  53.184  0.00  0.00    +0.000 A 
ATOM     22  C   UNL     1      21.510   1.151  52.895  0.00  0.00    +0.000 A 
ATOM     23  C   UNL     1      21.356   1.803  51.666  0.00  0.00    +0.000 A 
BRANCH  19  24
ATOM     24  N   UNL     1      17.994   1.399  51.588  0.00  0.00    +0.000 N 
ATOM     25  C   UNL     1      16.739   0.650  51.685  0.00  0.00    +0.000 C 
ATOM     26  C   UNL     1      17.866   2.834  51.368  0.00  0.00    +0.000 C 
ENDBRANCH  19  24
ENDBRANCH   1  14
TORSDOF 3
ENDMDL
MODEL 3
REMARK VINA RESULT:    -7.464      1.702      2.348
REMARK INTER + INTRA:          -9.753
REMARK INTER:                  -9.236
REMARK INTRA:                  -0.517
REMARK UNBOUND:                -0.980
REMARK  Name = 
REMARK  6 active torsions:
REMARK  status: ('A' for Active; 'I' for Inactive)
REMARK    1  A    between atoms: C_1  and  C_2
REMARK    2  A    between atoms: N_9  and  S_10
REMARK    3  A    between atoms: S_10  and  C_13
REMARK    4  A    between atoms: C_18  and  N_19
REMARK    5  A    between atoms: N_19  and  C_20
REMARK    6  A    between atoms: N_19  and  C_21
REMARK                            x       y       z     vdW  Elec       q    Type
REMARK                         _______ _______ _______ _____ _____    ______ ____
ROOT
ATOM      1  S   UNL     1      23.344   2.808  52.174  0.00  0.00    +0.000 S 
ATOM      2  O   UNL     1      22.061   2.272  52.583  0.00  0.00    +0.000 OA
ATOM      3  O   UNL     1      24.188   3.454  53.165  0.00  0.00    +0.000 OA
ENDROOT
BRANCH   1  12
ATOM      4  C   UNL     1      23.789  -0.664  53.671  0.00  0.00    +0.000 C 
ATOM      5  C   UNL     1      25.076   0.027  53.363  0.00  0.00    +0.000 A 
ATOM      6  C   UNL     1      26.215  -0.314  54.108  0.00  0.00    +0.000 A 
ATOM      7  C   UNL     1      27.399   0.344  53.837  0.00  0.00    +0.000 A 
ATOM      8 CL   UNL     1      28.839  -0.001  54.697  0.00  0.00    +0.000 Cl
ATOM      9  N   UNL     1      27.518   1.279  52.884  0.00  0.00    +0.000 NA
ATOM     10  N   UNL     1      26.414   1.625  52.168  0.00  0.00    +0.000 NA
ATOM     11  C   UNL     1      25.234   1.009  52.394  0.00  0.00    +0.000 A 
ATOM     12  N   UNL     1      24.212   1.507  51.568  0.00  0.00    +0.000 N 
ATOM     13  H   UNL     1      24.018   1.115  50.686  0.00  0.00    +0.000 HD
ENDBRANCH   1  12
BRANCH   1  14
ATOM     14  C   UNL     1      23.056   3.969  50.855  0.00  0.00    +0.000 A 
ATOM     15  C   UNL     1      22.200   3.562  49.829  0.00  0.00    +0.000 A 
ATOM     16  C   UNL     1      22.336   4.127  48.565  0.00  0.00    +0.000 A 
ATOM     17  C   UNL     1      23.474   4.892  48.287  0.00  0.00    +0.000 A 
ATOM     18  C   UNL     1      24.374   5.250  49.313  0.00  0.00    +0.000 A 
ATOM     19  C   UNL     1      25.375   6.206  49.113  0.00  0.00    +0.000 A 
ATOM     20  C   UNL     1      25.028   7.434  49.632  0.00  0.00    +0.000 A 
ATOM     21  C   UNL     1      24.322   7.423  50.830  0.00  0.00    +0.000 A 
ATOM     22  C   UNL     1      23.948   6.196  51.401  0.00  0.00    +0.000 A 
ATOM     23  C   UNL     1      23.930   5.043  50.608  0.00  0.00    +0.000 A 
BRANCH  19  24
ATOM     24  N   UNL     1      26.707   5.898  48.865  0.00  0.00    +0.000 N 
ATOM     25  C   UNL     1      27.642   6.901  48.353  0.00  0.00    +0.000 C 
ATOM     26  C   UNL     1      27.200   4.527  48.910  0.00  0.00    +0.000 C 
ENDBRANCH  19  24
ENDBRANCH   1  14
TORSDOF 3
ENDMDL
MODEL 4
REMARK VINA RESULT:    -7.440      3.323      4.688
REMARK INTER + INTRA:          -9.724
REMARK INTER:                  -8.995
REMARK INTRA:                  -0.730
REMARK UNBOUND:                -0.980
REMARK  Name = 
REMARK  6 active torsions:
REMARK  status: ('A' for Active; 'I' for Inactive)
REMARK    1  A    between atoms: C_1  and  C_2
REMARK    2  A    between atoms: N_9  and  S_10
REMARK    3  A    between atoms: S_10  and  C_13
REMARK    4  A    between atoms: C_18  and  N_19
REMARK    5  A    between atoms: N_19  and  C_20
REMARK    6  A    between atoms: N_19  and  C_21
REMARK                            x       y       z     vdW  Elec       q    Type
REMARK                         _______ _______ _______ _____ _____    ______ ____
ROOT
ATOM      1  S   UNL     1      23.936   2.561  52.079  0.00  0.00    +0.000 S 
ATOM      2  O   UNL     1      22.647   3.206  52.230  0.00  0.00    +0.000 OA
ATOM      3  O   UNL     1      24.915   2.679  53.146  0.00  0.00    +0.000 OA
ENDROOT
BRANCH   1  12
ATOM      4  C   UNL     1      21.565   0.866  49.630  0.00  0.00    +0.000 C 
ATOM      5  C   UNL     1      21.313   0.507  51.057  0.00  0.00    +0.000 A 
ATOM      6  C   UNL     1      20.016   0.123  51.432  0.00  0.00    +0.000 A 
ATOM      7  C   UNL     1      19.780  -0.185  52.757  0.00  0.00    +0.000 A 
ATOM      8 CL   UNL     1      18.230  -0.660  53.310  0.00  0.00    +0.000 Cl
ATOM      9  N   UNL     1      20.732  -0.154  53.700  0.00  0.00    +0.000 NA
ATOM     10  N   UNL     1      21.988   0.232  53.345  0.00  0.00    +0.000 NA
ATOM     11  C   UNL     1      22.270   0.541  52.062  0.00  0.00    +0.000 A 
ATOM     12  N   UNL     1      23.611   0.926  51.894  0.00  0.00    +0.000 N 
ATOM     13  H   UNL     1      24.317   0.274  51.680  0.00  0.00    +0.000 HD
ENDBRANCH   1  12
BRANCH   1  14
ATOM     14  C   UNL     1      24.679   3.170  50.579  0.00  0.00    +0.000 A 
ATOM     15  C   UNL     1      26.007   2.808  50.339  0.00  0.00    +0.000 A 
ATOM     16  C   UNL     1      26.801   3.625  49.541  0.00  0.00    +0.000 A 
ATOM     17  C   UNL     1      26.336   4.903  49.210  0.00  0.00    +0.000 A 
ATOM     18  C   UNL     1      25.012   5.291  49.510  0.00  0.00    +0.000 A 
ATOM     19  C   UNL     1      24.450   6.456  48.980  0.00  0.00    +0.000 A 
ATOM     20  C   UNL     1      23.630   6.193  47.905  0.00  0.00    +0.000 A 
ATOM     21  C   UNL     1      22.862   5.035  47.982  0.00  0.00    +0.000 A 
ATOM     22  C   UNL     1      23.006   4.182  49.087  0.00  0.00    +0.000 A 
ATOM     23  C   UNL     1      24.152   4.273  49.885  0.00  0.00    +0.000 A 
BRANCH  19  24
ATOM     24  N   UNL     1      24.329   7.650  49.681  0.00  0.00    +0.000 N 
ATOM     25  C   UNL     1      25.420   8.626  49.724  0.00  0.00    +0.000 C 
ATOM     26  C   UNL     1      23.201   7.912  50.565  0.00  0.00    +0.000 C 
ENDBRANCH  19  24
ENDBRANCH   1  14
TORSDOF 3
ENDMDL
MODEL 5
REMARK VINA RESULT:    -7.427      2.672      4.020
REMARK INTER + INTRA:          -9.710
REMARK INTER:                  -8.861
REMARK INTRA:                  -0.848
REMARK UNBOUND:                -0.980
REMARK  Name = 
REMARK  6 active torsions:
REMARK  status: ('A' for Active; 'I' for Inactive)
REMARK    1  A    between atoms: C_1  and  C_2
REMARK    2  A    between atoms: N_9  and  S_10
REMARK    3  A    between atoms: S_10  and  C_13
REMARK    4  A    between atoms: C_18  and  N_19
REMARK    5  A    between atoms: N_19  and  C_20
REMARK    6  A    between atoms: N_19  and  C_21
REMARK                            x       y       z     vdW  Elec       q    Type
REMARK                         _______ _______ _______ _____ _____    ______ ____
ROOT
ATOM      1  S   UNL     1      26.479   2.221  51.430  0.00  0.00    +0.000 S 
ATOM      2  O   UNL     1      27.790   2.663  51.859  0.00  0.00    +0.000 OA
ATOM      3  O   UNL     1      26.296   0.836  51.033  0.00  0.00    +0.000 OA
ENDROOT
BRANCH   1  12
ATOM      4  C   UNL     1      26.348   0.421  54.782  0.00  0.00    +0.000 C 
ATOM      5  C   UNL     1      25.042   0.442  54.059  0.00  0.00    +0.000 A 
ATOM      6  C   UNL     1      24.122  -0.589  54.306  0.00  0.00    +0.000 A 
ATOM      7  C   UNL     1      22.925  -0.581  53.619  0.00  0.00    +0.000 A 
ATOM      8 CL   UNL     1      21.744  -1.798  53.851  0.00  0.00    +0.000 Cl
ATOM      9  N   UNL     1      22.589   0.375  52.741  0.00  0.00    +0.000 NA
ATOM     10  N   UNL     1      23.482   1.369  52.485  0.00  0.00    +0.000 NA
ATOM     11  C   UNL     1      24.666   1.406  53.133  0.00  0.00    +0.000 A 
ATOM     12  N   UNL     1      25.455   2.496  52.729  0.00  0.00    +0.000 N 
ATOM     13  H   UNL     1      25.409   3.369  53.182  0.00  0.00    +0.000 HD
ENDBRANCH   1  12
BRANCH   1  14
ATOM     14  C   UNL     1      25.971   3.256  50.072  0.00  0.00    +0.000 A 
ATOM     15  C   UNL     1      26.944   4.088  49.513  0.00  0.00    +0.000 A 
ATOM     16  C   UNL     1      26.550   5.256  48.866  0.00  0.00    +0.000 A 
ATOM     17  C   UNL     1      25.229   5.694  49.011  0.00  0.00    +0.000 A 
ATOM     18  C   UNL     1      24.260   4.879  49.634  0.00  0.00    +0.000 A 
ATOM     19  C   UNL     1      22.896   5.181  49.574  0.00  0.00    +0.000 A 
ATOM     20  C   UNL     1      22.239   4.428  48.626  0.00  0.00    +0.000 A 
ATOM     21  C   UNL     1      22.654   3.107  48.490  0.00  0.00    +0.000 A 
ATOM     22  C   UNL     1      23.735   2.639  49.253  0.00  0.00    +0.000 A 
ATOM     23  C   UNL     1      24.618   3.556  49.834  0.00  0.00    +0.000 A 
BRANCH  19  24
ATOM     24  N   UNL     1      22.189   5.788  50.605  0.00  0.00    +0.000 N 
ATOM     25  C   UNL     1      21.651   5.012  51.725  0.00  0.00    +0.000 C 
ATOM     26  C   UNL     1      21.775   7.183  50.536  0.00  0.00    +0.000 C 
ENDBRANCH  19  24
ENDBRANCH   1  14
TORSDOF 3
ENDMDL
MODEL 6
REMARK VINA RESULT:    -7.366      3.973      6.196
REMARK INTER + INTRA:          -9.637
REMARK INTER:                  -8.856
REMARK INTRA:                  -0.782
REMARK UNBOUND:                -0.980
REMARK  Name = 
REMARK  6 active torsions:
REMARK  status: ('A' for Active; 'I' for Inactive)
REMARK    1  A    between atoms: C_1  and  C_2
REMARK    2  A    between atoms: N_9  and  S_10
REMARK    3  A    between atoms: S_10  and  C_13
REMARK    4  A    between atoms: C_18  and  N_19
REMARK    5  A    between atoms: N_19  and  C_20
REMARK    6  A    between atoms: N_19  and  C_21
REMARK                            x       y       z     vdW  Elec       q    Type
REMARK                         _______ _______ _______ _____ _____    ______ ____
ROOT
ATOM      1  S   UNL     1      22.011   2.201  50.369  0.00  0.00    +0.000 S 
ATOM      2  O   UNL     1      22.064   0.762  50.211  0.00  0.00    +0.000 OA
ATOM      3  O   UNL     1      21.437   3.008  49.305  0.00  0.00    +0.000 OA
ENDROOT
BRANCH   1  12
ATOM      4  C   UNL     1      21.970   0.255  53.640  0.00  0.00    +0.000 C 
ATOM      5  C   UNL     1      20.626   0.394  53.006  0.00  0.00    +0.000 A 
ATOM      6  C   UNL     1      19.656  -0.587  53.268  0.00  0.00    +0.000 A 
ATOM      7  C   UNL     1      18.421  -0.469  52.661  0.00  0.00    +0.000 A 
ATOM      8 CL   UNL     1      17.178  -1.618  52.917  0.00  0.00    +0.000 Cl
ATOM      9  N   UNL     1      18.096   0.547  51.849  0.00  0.00    +0.000 NA
ATOM     10  N   UNL     1      19.036   1.492  51.579  0.00  0.00    +0.000 NA
ATOM     11  C   UNL     1      20.257   1.423  52.150  0.00  0.00    +0.000 A 
ATOM     12  N   UNL     1      21.091   2.478  51.743  0.00  0.00    +0.000 N 
ATOM     13  H   UNL     1      21.131   3.330  52.235  0.00  0.00    +0.000 HD
ENDBRANCH   1  12
BRANCH   1  14
ATOM     14  C   UNL     1      23.670   2.779  50.665  0.00  0.00    +0.000 A 
ATOM     15  C   UNL     1      24.360   3.307  49.571  0.00  0.00    +0.000 A 
ATOM     16  C   UNL     1      25.751   3.274  49.564  0.00  0.00    +0.000 A 
ATOM     17  C   UNL     1      26.412   2.494  50.520  0.00  0.00    +0.000 A 
ATOM     18  C   UNL     1      25.704   1.907  51.590  0.00  0.00    +0.000 A 
ATOM     19  C   UNL     1      26.363   1.335  52.683  0.00  0.00    +0.000 A 
ATOM     20  C   UNL     1      26.383   2.176  53.774  0.00  0.00    +0.000 A 
ATOM     21  C   UNL     1      25.240   2.939  53.987  0.00  0.00    +0.000 A 
ATOM     22  C   UNL     1      24.180   2.870  53.070  0.00  0.00    +0.000 A 
ATOM     23  C   UNL     1      24.411   2.364  51.785  0.00  0.00    +0.000 A 
BRANCH  19  24
ATOM     24  N   UNL     1      26.561  -0.031  52.843  0.00  0.00    +0.000 N 
ATOM     25  C   UNL     1      25.442  -0.944  53.084  0.00  0.00    +0.000 C 
ATOM     26  C   UNL     1      27.894  -0.604  52.977  0.00  0.00    +0.000 C 
ENDBRANCH  19  24
ENDBRANCH   1  14
TORSDOF 3
ENDMDL
MODEL 7
REMARK VINA RESULT:    -7.234      3.114      6.309
REMARK INTER + INTRA:          -9.483
REMARK INTER:                  -8.833
REMARK INTRA:                  -0.650
REMARK UNBOUND:                -0.980
REMARK  Name = 
REMARK  6 active torsions:
REMARK  status: ('A' for Active; 'I' for Inactive)
REMARK    1  A    between atoms: C_1  and  C_2
REMARK    2  A    between atoms: N_9  and  S_10
REMARK    3  A    between atoms: S_10  and  C_13
REMARK    4  A    between atoms: C_18  and  N_19
REMARK    5  A    between atoms: N_19  and  C_20
REMARK    6  A    between atoms: N_19  and  C_21
REMARK                            x       y       z     vdW  Elec       q    Type
REMARK                         _______ _______ _______ _____ _____    ______ ____
ROOT
ATOM      1  S   UNL     1      22.839   3.567  52.152  0.00  0.00    +0.000 S 
ATOM      2  O   UNL     1      24.019   4.081  52.818  0.00  0.00    +0.000 OA
ATOM      3  O   UNL     1      21.534   3.808  52.744  0.00  0.00    +0.000 OA
ENDROOT
BRANCH   1  12
ATOM      4  C   UNL     1      25.687   3.888  49.647  0.00  0.00    +0.000 C 
ATOM      5  C   UNL     1      25.041   5.189  49.993  0.00  0.00    +0.000 A 
ATOM      6  C   UNL     1      25.802   6.364  49.888  0.00  0.00    +0.000 A 
ATOM      7  C   UNL     1      25.210   7.563  50.232  0.00  0.00    +0.000 A 
ATOM      8 CL   UNL     1      26.060   9.046  50.142  0.00  0.00    +0.000 Cl
ATOM      9  N   UNL     1      23.938   7.663  50.643  0.00  0.00    +0.000 NA
ATOM     10  N   UNL     1      23.200   6.526  50.761  0.00  0.00    +0.000 NA
ATOM     11  C   UNL     1      23.732   5.329  50.435  0.00  0.00    +0.000 A 
ATOM     12  N   UNL     1      22.824   4.276  50.632  0.00  0.00    +0.000 N 
ATOM     13  H   UNL     1      22.216   3.972  49.920  0.00  0.00    +0.000 HD
ENDBRANCH   1  12
BRANCH   1  14
ATOM     14  C   UNL     1      23.041   1.807  51.961  0.00  0.00    +0.000 A 
ATOM     15  C   UNL     1      21.880   1.055  51.772  0.00  0.00    +0.000 A 
ATOM     16  C   UNL     1      21.869  -0.286  52.144  0.00  0.00    +0.000 A 
ATOM     17  C   UNL     1      22.922  -0.777  52.925  0.00  0.00    +0.000 A 
ATOM     18  C   UNL     1      24.069   0.008  53.170  0.00  0.00    +0.000 A 
ATOM     19  C   UNL     1      25.228  -0.537  53.732  0.00  0.00    +0.000 A 
ATOM     20  C   UNL     1      26.189  -0.802  52.782  0.00  0.00    +0.000 A 
ATOM     21  C   UNL     1      26.298   0.114  51.741  0.00  0.00    +0.000 A 
ATOM     22  C   UNL     1      25.406   1.195  51.673  0.00  0.00    +0.000 A 
ATOM     23  C   UNL     1      24.204   1.144  52.389  0.00  0.00    +0.000 A 
BRANCH  19  24
ATOM     24  N   UNL     1      25.578  -0.406  55.070  0.00  0.00    +0.000 N 
ATOM     25  C   UNL     1      26.803   0.286  55.477  0.00  0.00    +0.000 C 
ATOM     26  C   UNL     1      24.861  -1.111  56.125  0.00  0.00    +0.000 C 
ENDBRANCH  19  24
ENDBRANCH   1  14
TORSDOF 3
ENDMDL
MODEL 8
REMARK VINA RESULT:    -7.200      3.295      6.279
REMARK INTER + INTRA:          -9.443
REMARK INTER:                  -8.782
REMARK INTRA:                  -0.661
REMARK UNBOUND:                -0.980
REMARK  Name = 
REMARK  6 active torsions:
REMARK  status: ('A' for Active; 'I' for Inactive)
REMARK    1  A    between atoms: C_1  and  C_2
REMARK    2  A    between atoms: N_9  and  S_10
REMARK    3  A    between atoms: S_10  and  C_13
REMARK    4  A    between atoms: C_18  and  N_19
REMARK    5  A    between atoms: N_19  and  C_20
REMARK    6  A    between atoms: N_19  and  C_21
REMARK                            x       y       z     vdW  Elec       q    Type
REMARK                         _______ _______ _______ _____ _____    ______ ____
ROOT
ATOM      1  S   UNL     1      22.372   4.325  51.889  0.00  0.00    +0.000 S 
ATOM      2  O   UNL     1      23.511   4.707  52.699  0.00  0.00    +0.000 OA
ATOM      3  O   UNL     1      21.038   4.420  52.456  0.00  0.00    +0.000 OA
ENDROOT
BRANCH   1  12
ATOM      4  C   UNL     1      24.805   4.310  48.961  0.00  0.00    +0.000 C 
ATOM      5  C   UNL     1      24.698   5.631  49.648  0.00  0.00    +0.000 A 
ATOM      6  C   UNL     1      25.797   6.504  49.598  0.00  0.00    +0.000 A 
ATOM      7  C   UNL     1      25.705   7.715  50.254  0.00  0.00    +0.000 A 
ATOM      8 CL   UNL     1      26.994   8.841  50.253  0.00  0.00    +0.000 Cl
ATOM      9  N   UNL     1      24.610   8.108  50.919  0.00  0.00    +0.000 NA
ATOM     10  N   UNL     1      23.547   7.261  50.985  0.00  0.00    +0.000 NA
ATOM     11  C   UNL     1      23.588   6.066  50.358  0.00  0.00    +0.000 A 
ATOM     12  N   UNL     1      22.406   5.331  50.548  0.00  0.00    +0.000 N 
ATOM     13  H   UNL     1      21.643   5.401  49.929  0.00  0.00    +0.000 HD
ENDBRANCH   1  12
BRANCH   1  14
ATOM     14  C   UNL     1      22.623   2.645  51.352  0.00  0.00    +0.000 A 
ATOM     15  C   UNL     1      21.878   2.215  50.251  0.00  0.00    +0.000 A 
ATOM     16  C   UNL     1      21.600   0.859  50.105  0.00  0.00    +0.000 A 
ATOM     17  C   UNL     1      21.850   0.001  51.182  0.00  0.00    +0.000 A 
ATOM     18  C   UNL     1      22.548   0.452  52.322  0.00  0.00    +0.000 A 
ATOM     19  C   UNL     1      23.022  -0.434  53.294  0.00  0.00    +0.000 A 
ATOM     20  C   UNL     1      24.368  -0.689  53.150  0.00  0.00    +0.000 A 
ATOM     21  C   UNL     1      25.161   0.384  52.756  0.00  0.00    +0.000 A 
ATOM     22  C   UNL     1      24.561   1.620  52.467  0.00  0.00    +0.000 A 
ATOM     23  C   UNL     1      23.189   1.673  52.196  0.00  0.00    +0.000 A 
BRANCH  19  24
ATOM     24  N   UNL     1      22.386  -0.671  54.506  0.00  0.00    +0.000 N 
ATOM     25  C   UNL     1      21.114  -0.029  54.842  0.00  0.00    +0.000 C 
ATOM     26  C   UNL     1      23.035  -1.407  55.584  0.00  0.00    +0.000 C 
ENDBRANCH  19  24
ENDBRANCH   1  14
TORSDOF 3
ENDMDL
MODEL 9
REMARK VINA RESULT:    -6.783      1.822      2.278
REMARK INTER + INTRA:          -8.952
REMARK INTER:                  -8.263
REMARK INTRA:                  -0.690
REMARK UNBOUND:                -0.980
REMARK  Name = 
REMARK  6 active torsions:
REMARK  status: ('A' for Active; 'I' for Inactive)
REMARK    1  A    between atoms: C_1  and  C_2
REMARK    2  A    between atoms: N_9  and  S_10
REMARK    3  A    between atoms: S_10  and  C_13
REMARK    4  A    between atoms: C_18  and  N_19
REMARK    5  A    between atoms: N_19  and  C_20
REMARK    6  A    between atoms: N_19  and  C_21
REMARK                            x       y       z     vdW  Elec       q    Type
REMARK                         _______ _______ _______ _____ _____    ______ ____
ROOT
ATOM      1  S   UNL     1      22.222   1.441  52.568  0.00  0.00    +0.000 S 
ATOM      2  O   UNL     1      20.994   1.061  53.238  0.00  0.00    +0.000 OA
ATOM      3  O   UNL     1      23.107   2.400  53.208  0.00  0.00    +0.000 OA
ENDROOT
BRANCH   1  12
ATOM      4  C   UNL     1      23.232  -1.114  55.202  0.00  0.00    +0.000 C 
ATOM      5  C   UNL     1      24.379  -0.583  54.409  0.00  0.00    +0.000 A 
ATOM      6  C   UNL     1      25.653  -0.570  54.998  0.00  0.00    +0.000 A 
ATOM      7  C   UNL     1      26.709  -0.056  54.271  0.00  0.00    +0.000 A 
ATOM      8 CL   UNL     1      28.297   0.006  54.908  0.00  0.00    +0.000 Cl
ATOM      9  N   UNL     1      26.580   0.414  53.022  0.00  0.00    +0.000 NA
ATOM     10  N   UNL     1      25.345   0.418  52.451  0.00  0.00    +0.000 NA
ATOM     11  C   UNL     1      24.282  -0.076  53.120  0.00  0.00    +0.000 A 
ATOM     12  N   UNL     1      23.096   0.024  52.374  0.00  0.00    +0.000 N 
ATOM     13  H   UNL     1      22.796  -0.696  51.772  0.00  0.00    +0.000 HD
ENDBRANCH   1  12
BRANCH   1  14
ATOM     14  C   UNL     1      21.793   2.075  50.960  0.00  0.00    +0.000 A 
ATOM     15  C   UNL     1      21.823   1.172  49.895  0.00  0.00    +0.000 A 
ATOM     16  C   UNL     1      22.035   1.647  48.605  0.00  0.00    +0.000 A 
ATOM     17  C   UNL     1      22.463   2.969  48.435  0.00  0.00    +0.000 A 
ATOM     18  C   UNL     1      22.494   3.865  49.525  0.00  0.00    +0.000 A 
ATOM     19  C   UNL     1      22.679   5.239  49.342  0.00  0.00    +0.000 A 
ATOM     20  C   UNL     1      21.492   5.935  49.409  0.00  0.00    +0.000 A 
ATOM     21  C   UNL     1      20.565   5.487  50.345  0.00  0.00    +0.000 A 
ATOM     22  C   UNL     1      20.847   4.341  51.105  0.00  0.00    +0.000 A 
ATOM     23  C   UNL     1      21.835   3.451  50.670  0.00  0.00    +0.000 A 
BRANCH  19  24
ATOM     24  N   UNL     1      23.890   5.893  49.534  0.00  0.00    +0.000 N 
ATOM     25  C   UNL     1      24.318   6.337  50.862  0.00  0.00    +0.000 C 
ATOM     26  C   UNL     1      24.706   6.345  48.415  0.00  0.00    +0.000 C 
ENDBRANCH  19  24
ENDBRANCH   1  14
TORSDOF 3
ENDMDL
