MODEL 1
REMARK VINA RESULT:    -8.252      0.000      0.000
REMARK INTER + INTRA:         -15.173
REMARK INTER:                 -13.559
REMARK INTRA:                  -1.614
REMARK UNBOUND:                -1.614
REMARK  Name = 
REMARK  14 active torsions:
REMARK  status: ('A' for Active; 'I' for Inactive)
REMARK    1  A    between atoms: C_2  and  C_3
REMARK    2  A    between atoms: C_3  and  C_4
REMARK    3  A    between atoms: C_4  and  C_5
REMARK    4  A    between atoms: C_5  and  C_6
REMARK    5  A    between atoms: C_6  and  C_7
REMARK    6  A    between atoms: C_7  and  O_9
REMARK    7  A    between atoms: O_9  and  C_10
REMARK    8  A    between atoms: C_10  and  C_11
REMARK    9  A    between atoms: C_10  and  C_16
REMARK   10  A    between atoms: C_11  and  C_12
REMARK   11  A    between atoms: C_13  and  C_14
REMARK   12  A    between atoms: C_13  and  C_15
REMARK   13  A    between atoms: C_21  and  O_22
REMARK   14  A    between atoms: C_25  and  O_26
REMARK                            x       y       z     vdW  Elec       q    Type
REMARK                         _______ _______ _______ _____ _____    ______ ____
ROOT
ATOM      1  C   UNL     1      26.037   1.280  52.311  0.00  0.00    +0.000 C 
ATOM      2  C   UNL     1      25.642   0.010  52.141  0.00  0.00    +0.000 C 
ATOM      3  C   UNL     1      26.400  -1.127  52.672  0.00  0.00    +0.000 C 
ATOM      4  O   UNL     1      25.932  -2.260  52.650  0.00  0.00    +0.000 OA
ATOM      5  C   UNL     1      27.780  -0.890  53.109  0.00  0.00    +0.000 A 
ATOM      6  C   UNL     1      28.677  -1.971  53.167  0.00  0.00    +0.000 A 
ATOM      7  C   UNL     1      29.987  -1.781  53.577  0.00  0.00    +0.000 A 
ATOM      8  C   UNL     1      30.407  -0.510  53.958  0.00  0.00    +0.000 A 
ATOM      9  C   UNL     1      29.513   0.581  53.870  0.00  0.00    +0.000 A 
ATOM     10  C   UNL     1      28.196   0.406  53.418  0.00  0.00    +0.000 A 
ATOM     11  C   UNL     1      27.257   1.543  53.165  0.00  0.00    +0.000 C 
ATOM     12  O   UNL     1      27.463   2.676  53.579  0.00  0.00    +0.000 OA
ENDROOT
BRANCH   6  13
ATOM     13  O   UNL     1      28.344  -3.242  52.785  0.00  0.00    +0.000 OA
ATOM     14  H   UNL     1      27.473  -3.559  52.918  0.00  0.00    +0.000 HD
ENDBRANCH   6  13
BRANCH   9  15
ATOM     15  O   UNL     1      29.989   1.811  54.223  0.00  0.00    +0.000 OA
ATOM     16  H   UNL     1      30.855   2.067  53.975  0.00  0.00    +0.000 HD
ENDBRANCH   9  15
BRANCH   1  17
ATOM     17  C   UNL     1      25.446   2.466  51.560  0.00  0.00    +0.000 C 
BRANCH  17  18
ATOM     18  O   UNL     1      24.089   2.216  51.144  0.00  0.00    +0.000 OA
BRANCH  18  19
ATOM     19  C   UNL     1      23.157   2.939  51.825  0.00  0.00    +0.000 C 
ATOM     20  O   UNL     1      23.356   4.060  52.297  0.00  0.00    +0.000 OA
BRANCH  19  21
ATOM     21  C   UNL     1      21.840   2.220  52.044  0.00  0.00    +0.000 C 
BRANCH  21  22
ATOM     22  C   UNL     1      21.687   0.763  51.619  0.00  0.00    +0.000 C 
BRANCH  22  23
ATOM     23  C   UNL     1      21.975  -0.381  52.598  0.00  0.00    +0.000 C 
BRANCH  23  24
ATOM     24  C   UNL     1      21.816  -0.218  54.118  0.00  0.00    +0.000 C 
BRANCH  24  26
ATOM     25  C   UNL     1      23.698  -1.398  55.426  0.00  0.00    +0.000 C 
ATOM     26  C   UNL     1      22.416  -1.174  55.114  0.00  0.00    +0.000 C 
ENDBRANCH  24  26
ENDBRANCH  23  24
ENDBRANCH  22  23
ENDBRANCH  21  22
ENDBRANCH  19  21
ENDBRANCH  18  19
ENDBRANCH  17  18
BRANCH  17  27
ATOM     27  C   UNL     1      26.305   3.151  50.438  0.00  0.00    +0.000 C 
BRANCH  27  28
ATOM     28  C   UNL     1      26.078   4.448  49.681  0.00  0.00    +0.000 C 
ATOM     29  C   UNL     1      26.806   5.274  48.904  0.00  0.00    +0.000 C 
ATOM     30  C   UNL     1      26.187   6.562  48.385  0.00  0.00    +0.000 C 
ATOM     31  C   UNL     1      28.222   5.057  48.474  0.00  0.00    +0.000 C 
ENDBRANCH  27  28
ENDBRANCH  17  27
ENDBRANCH   1  17
TORSDOF 12
ENDMDL
MODEL 2
REMARK VINA RESULT:    -7.916      2.774      7.159
REMARK INTER + INTRA:         -14.621
REMARK INTER:                 -12.733
REMARK INTRA:                  -1.888
REMARK UNBOUND:                -1.614
REMARK  Name = 
REMARK  14 active torsions:
REMARK  status: ('A' for Active; 'I' for Inactive)
REMARK    1  A    between atoms: C_2  and  C_3
REMARK    2  A    between atoms: C_3  and  C_4
REMARK    3  A    between atoms: C_4  and  C_5
REMARK    4  A    between atoms: C_5  and  C_6
REMARK    5  A    between atoms: C_6  and  C_7
REMARK    6  A    between atoms: C_7  and  O_9
REMARK    7  A    between atoms: O_9  and  C_10
REMARK    8  A    between atoms: C_10  and  C_11
REMARK    9  A    between atoms: C_10  and  C_16
REMARK   10  A    between atoms: C_11  and  C_12
REMARK   11  A    between atoms: C_13  and  C_14
REMARK   12  A    between atoms: C_13  and  C_15
REMARK   13  A    between atoms: C_21  and  O_22
REMARK   14  A    between atoms: C_25  and  O_26
REMARK                            x       y       z     vdW  Elec       q    Type
REMARK                         _______ _______ _______ _____ _____    ______ ____
ROOT
ATOM      1  C   UNL     1      22.854   0.757  52.581  0.00  0.00    +0.000 C 
ATOM      2  C   UNL     1      22.420   0.022  53.614  0.00  0.00    +0.000 C 
ATOM      3  C   UNL     1      21.125  -0.666  53.602  0.00  0.00    +0.000 C 
ATOM      4  O   UNL     1      20.829  -1.465  54.483  0.00  0.00    +0.000 OA
ATOM      5  C   UNL     1      20.149  -0.275  52.579  0.00  0.00    +0.000 A 
ATOM      6  C   UNL     1      18.784  -0.531  52.800  0.00  0.00    +0.000 A 
ATOM      7  C   UNL     1      17.836  -0.176  51.853  0.00  0.00    +0.000 A 
ATOM      8  C   UNL     1      18.247   0.417  50.663  0.00  0.00    +0.000 A 
ATOM      9  C   UNL     1      19.616   0.701  50.456  0.00  0.00    +0.000 A 
ATOM     10  C   UNL     1      20.579   0.382  51.425  0.00  0.00    +0.000 A 
ATOM     11  C   UNL     1      22.013   0.792  51.324  0.00  0.00    +0.000 C 
ATOM     12  O   UNL     1      22.513   1.197  50.283  0.00  0.00    +0.000 OA
ENDROOT
BRANCH   6  13
ATOM     13  O   UNL     1      18.303  -1.088  53.954  0.00  0.00    +0.000 OA
ATOM     14  H   UNL     1      17.710  -1.812  53.914  0.00  0.00    +0.000 HD
ENDBRANCH   6  13
BRANCH   9  15
ATOM     15  O   UNL     1      19.957   1.316  49.285  0.00  0.00    +0.000 OA
ATOM     16  H   UNL     1      20.850   1.321  49.002  0.00  0.00    +0.000 HD
ENDBRANCH   9  15
BRANCH   1  17
ATOM     17  C   UNL     1      24.047   1.702  52.646  0.00  0.00    +0.000 C 
BRANCH  17  18
ATOM     18  O   UNL     1      25.151   1.122  53.367  0.00  0.00    +0.000 OA
BRANCH  18  19
ATOM     19  C   UNL     1      25.968   0.345  52.602  0.00  0.00    +0.000 C 
ATOM     20  O   UNL     1      26.560   0.740  51.595  0.00  0.00    +0.000 OA
BRANCH  19  21
ATOM     21  C   UNL     1      26.039  -1.107  53.033  0.00  0.00    +0.000 C 
BRANCH  21  22
ATOM     22  C   UNL     1      27.121  -2.020  52.464  0.00  0.00    +0.000 C 
BRANCH  22  23
ATOM     23  C   UNL     1      28.435  -2.254  53.219  0.00  0.00    +0.000 C 
BRANCH  23  24
ATOM     24  C   UNL     1      29.595  -1.248  53.176  0.00  0.00    +0.000 C 
BRANCH  24  26
ATOM     25  C   UNL     1      28.734   0.519  54.845  0.00  0.00    +0.000 C 
ATOM     26  C   UNL     1      29.556   0.081  53.883  0.00  0.00    +0.000 C 
ENDBRANCH  24  26
ENDBRANCH  23  24
ENDBRANCH  22  23
ENDBRANCH  21  22
ENDBRANCH  19  21
ENDBRANCH  18  19
ENDBRANCH  17  18
BRANCH  17  27
ATOM     27  C   UNL     1      23.798   3.204  53.028  0.00  0.00    +0.000 C 
BRANCH  27  28
ATOM     28  C   UNL     1      23.236   4.348  52.200  0.00  0.00    +0.000 C 
ATOM     29  C   UNL     1      22.032   4.721  51.727  0.00  0.00    +0.000 C 
ATOM     30  C   UNL     1      21.917   5.950  50.840  0.00  0.00    +0.000 C 
ATOM     31  C   UNL     1      20.731   4.029  51.987  0.00  0.00    +0.000 C 
ENDBRANCH  27  28
ENDBRANCH  17  27
ENDBRANCH   1  17
TORSDOF 12
ENDMDL
MODEL 3
REMARK VINA RESULT:    -7.911      1.249      2.429
REMARK INTER + INTRA:         -14.612
REMARK INTER:                 -13.078
REMARK INTRA:                  -1.534
REMARK UNBOUND:                -1.614
REMARK  Name = 
REMARK  14 active torsions:
REMARK  status: ('A' for Active; 'I' for Inactive)
REMARK    1  A    between atoms: C_2  and  C_3
REMARK    2  A    between atoms: C_3  and  C_4
REMARK    3  A    between atoms: C_4  and  C_5
REMARK    4  A    between atoms: C_5  and  C_6
REMARK    5  A    between atoms: C_6  and  C_7
REMARK    6  A    between atoms: C_7  and  O_9
REMARK    7  A    between atoms: O_9  and  C_10
REMARK    8  A    between atoms: C_10  and  C_11
REMARK    9  A    between atoms: C_10  and  C_16
REMARK   10  A    between atoms: C_11  and  C_12
REMARK   11  A    between atoms: C_13  and  C_14
REMARK   12  A    between atoms: C_13  and  C_15
REMARK   13  A    between atoms: C_21  and  O_22
REMARK   14  A    between atoms: C_25  and  O_26
REMARK                            x       y       z     vdW  Elec       q    Type
REMARK                         _______ _______ _______ _____ _____    ______ ____
ROOT
ATOM      1  C   UNL     1      26.157   1.203  52.121  0.00  0.00    +0.000 C 
ATOM      2  C   UNL     1      25.781  -0.074  51.962  0.00  0.00    +0.000 C 
ATOM      3  C   UNL     1      26.517  -1.192  52.561  0.00  0.00    +0.000 C 
ATOM      4  O   UNL     1      26.059  -2.329  52.542  0.00  0.00    +0.000 OA
ATOM      5  C   UNL     1      27.869  -0.932  53.068  0.00  0.00    +0.000 A 
ATOM      6  C   UNL     1      28.769  -2.004  53.201  0.00  0.00    +0.000 A 
ATOM      7  C   UNL     1      30.054  -1.794  53.677  0.00  0.00    +0.000 A 
ATOM      8  C   UNL     1      30.442  -0.510  54.050  0.00  0.00    +0.000 A 
ATOM      9  C   UNL     1      29.547   0.571  53.886  0.00  0.00    +0.000 A 
ATOM     10  C   UNL     1      28.258   0.374  53.367  0.00  0.00    +0.000 A 
ATOM     11  C   UNL     1      27.327   1.496  53.034  0.00  0.00    +0.000 C 
ATOM     12  O   UNL     1      27.502   2.640  53.431  0.00  0.00    +0.000 OA
ENDROOT
BRANCH   6  13
ATOM     13  O   UNL     1      28.467  -3.287  52.833  0.00  0.00    +0.000 OA
ATOM     14  H   UNL     1      28.193  -3.472  51.956  0.00  0.00    +0.000 HD
ENDBRANCH   6  13
BRANCH   9  15
ATOM     15  O   UNL     1      29.995   1.813  54.234  0.00  0.00    +0.000 OA
ATOM     16  H   UNL     1      30.789   2.145  53.865  0.00  0.00    +0.000 HD
ENDBRANCH   9  15
BRANCH   1  17
ATOM     17  C   UNL     1      25.600   2.365  51.310  0.00  0.00    +0.000 C 
BRANCH  17  18
ATOM     18  O   UNL     1      24.182   2.235  51.089  0.00  0.00    +0.000 OA
BRANCH  18  19
ATOM     19  C   UNL     1      23.417   2.646  52.138  0.00  0.00    +0.000 C 
ATOM     20  O   UNL     1      23.519   3.747  52.683  0.00  0.00    +0.000 OA
BRANCH  19  21
ATOM     21  C   UNL     1      22.455   1.599  52.664  0.00  0.00    +0.000 C 
BRANCH  21  22
ATOM     22  C   UNL     1      22.008   0.452  51.762  0.00  0.00    +0.000 C 
BRANCH  22  23
ATOM     23  C   UNL     1      20.760   0.580  50.880  0.00  0.00    +0.000 C 
BRANCH  23  24
ATOM     24  C   UNL     1      20.806   1.212  49.481  0.00  0.00    +0.000 C 
BRANCH  24  26
ATOM     25  C   UNL     1      22.298   2.213  47.632  0.00  0.00    +0.000 C 
ATOM     26  C   UNL     1      22.092   1.532  48.766  0.00  0.00    +0.000 C 
ENDBRANCH  24  26
ENDBRANCH  23  24
ENDBRANCH  22  23
ENDBRANCH  21  22
ENDBRANCH  19  21
ENDBRANCH  18  19
ENDBRANCH  17  18
BRANCH  17  27
ATOM     27  C   UNL     1      26.372   2.822  50.022  0.00  0.00    +0.000 C 
BRANCH  27  28
ATOM     28  C   UNL     1      26.732   4.216  49.535  0.00  0.00    +0.000 C 
ATOM     29  C   UNL     1      26.076   5.290  49.056  0.00  0.00    +0.000 C 
ATOM     30  C   UNL     1      26.859   6.509  48.596  0.00  0.00    +0.000 C 
ATOM     31  C   UNL     1      24.592   5.426  48.918  0.00  0.00    +0.000 C 
ENDBRANCH  27  28
ENDBRANCH  17  27
ENDBRANCH   1  17
TORSDOF 12
ENDMDL
MODEL 4
REMARK VINA RESULT:    -7.524      1.599      4.549
REMARK INTER + INTRA:         -13.976
REMARK INTER:                 -12.503
REMARK INTRA:                  -1.473
REMARK UNBOUND:                -1.614
REMARK  Name = 
REMARK  14 active torsions:
REMARK  status: ('A' for Active; 'I' for Inactive)
REMARK    1  A    between atoms: C_2  and  C_3
REMARK    2  A    between atoms: C_3  and  C_4
REMARK    3  A    between atoms: C_4  and  C_5
REMARK    4  A    between atoms: C_5  and  C_6
REMARK    5  A    between atoms: C_6  and  C_7
REMARK    6  A    between atoms: C_7  and  O_9
REMARK    7  A    between atoms: O_9  and  C_10
REMARK    8  A    between atoms: C_10  and  C_11
REMARK    9  A    between atoms: C_10  and  C_16
REMARK   10  A    between atoms: C_11  and  C_12
REMARK   11  A    between atoms: C_13  and  C_14
REMARK   12  A    between atoms: C_13  and  C_15
REMARK   13  A    between atoms: C_21  and  O_22
REMARK   14  A    between atoms: C_25  and  O_26
REMARK                            x       y       z     vdW  Elec       q    Type
REMARK                         _______ _______ _______ _____ _____    ______ ____
ROOT
ATOM      1  C   UNL     1      25.298   0.722  52.700  0.00  0.00    +0.000 C 
ATOM      2  C   UNL     1      25.394  -0.582  52.404  0.00  0.00    +0.000 C 
ATOM      3  C   UNL     1      26.547  -1.397  52.801  0.00  0.00    +0.000 C 
ATOM      4  O   UNL     1      26.533  -2.615  52.666  0.00  0.00    +0.000 OA
ATOM      5  C   UNL     1      27.761  -0.701  53.242  0.00  0.00    +0.000 A 
ATOM      6  C   UNL     1      28.998  -1.367  53.173  0.00  0.00    +0.000 A 
ATOM      7  C   UNL     1      30.163  -0.739  53.582  0.00  0.00    +0.000 A 
ATOM      8  C   UNL     1      30.100   0.556  54.090  0.00  0.00    +0.000 A 
ATOM      9  C   UNL     1      28.861   1.235  54.130  0.00  0.00    +0.000 A 
ATOM     10  C   UNL     1      27.682   0.622  53.680  0.00  0.00    +0.000 A 
ATOM     11  C   UNL     1      26.376   1.342  53.561  0.00  0.00    +0.000 C 
ATOM     12  O   UNL     1      26.169   2.426  54.088  0.00  0.00    +0.000 OA
ENDROOT
BRANCH   6  13
ATOM     13  O   UNL     1      29.141  -2.630  52.664  0.00  0.00    +0.000 OA
ATOM     14  H   UNL     1      29.096  -2.770  51.739  0.00  0.00    +0.000 HD
ENDBRANCH   6  13
BRANCH   9  15
ATOM     15  O   UNL     1      28.865   2.516  54.603  0.00  0.00    +0.000 OA
ATOM     16  H   UNL     1      28.230   3.131  54.293  0.00  0.00    +0.000 HD
ENDBRANCH   9  15
BRANCH   1  17
ATOM     17  C   UNL     1      24.271   1.664  52.086  0.00  0.00    +0.000 C 
BRANCH  17  18
ATOM     18  O   UNL     1      24.835   2.956  51.792  0.00  0.00    +0.000 OA
BRANCH  18  19
ATOM     19  C   UNL     1      25.347   3.065  50.534  0.00  0.00    +0.000 C 
ATOM     20  O   UNL     1      26.457   2.648  50.197  0.00  0.00    +0.000 OA
BRANCH  19  21
ATOM     21  C   UNL     1      24.470   3.832  49.563  0.00  0.00    +0.000 C 
BRANCH  21  22
ATOM     22  C   UNL     1      23.005   3.445  49.389  0.00  0.00    +0.000 C 
BRANCH  22  23
ATOM     23  C   UNL     1      22.575   2.442  48.312  0.00  0.00    +0.000 C 
BRANCH  23  24
ATOM     24  C   UNL     1      21.800   1.159  48.650  0.00  0.00    +0.000 C 
BRANCH  24  26
ATOM     25  C   UNL     1      19.562   1.926  49.673  0.00  0.00    +0.000 C 
ATOM     26  C   UNL     1      20.635   1.129  49.603  0.00  0.00    +0.000 C 
ENDBRANCH  24  26
ENDBRANCH  23  24
ENDBRANCH  22  23
ENDBRANCH  21  22
ENDBRANCH  19  21
ENDBRANCH  18  19
ENDBRANCH  17  18
BRANCH  17  27
ATOM     27  C   UNL     1      22.850   1.761  52.748  0.00  0.00    +0.000 C 
BRANCH  27  28
ATOM     28  C   UNL     1      21.852   0.670  53.097  0.00  0.00    +0.000 C 
ATOM     29  C   UNL     1      21.803  -0.389  53.928  0.00  0.00    +0.000 C 
ATOM     30  C   UNL     1      20.591  -1.306  53.911  0.00  0.00    +0.000 C 
ATOM     31  C   UNL     1      22.857  -0.785  54.913  0.00  0.00    +0.000 C 
ENDBRANCH  27  28
ENDBRANCH  17  27
ENDBRANCH   1  17
TORSDOF 12
ENDMDL
MODEL 5
REMARK VINA RESULT:    -7.509      2.346      6.265
REMARK INTER + INTRA:         -13.951
REMARK INTER:                 -11.676
REMARK INTRA:                  -2.276
REMARK UNBOUND:                -1.614
REMARK  Name = 
REMARK  14 active torsions:
REMARK  status: ('A' for Active; 'I' for Inactive)
REMARK    1  A    between atoms: C_2  and  C_3
REMARK    2  A    between atoms: C_3  and  C_4
REMARK    3  A    between atoms: C_4  and  C_5
REMARK    4  A    between atoms: C_5  and  C_6
REMARK    5  A    between atoms: C_6  and  C_7
REMARK    6  A    between atoms: C_7  and  O_9
REMARK    7  A    between atoms: O_9  and  C_10
REMARK    8  A    between atoms: C_10  and  C_11
REMARK    9  A    between atoms: C_10  and  C_16
REMARK   10  A    between atoms: C_11  and  C_12
REMARK   11  A    between atoms: C_13  and  C_14
REMARK   12  A    between atoms: C_13  and  C_15
REMARK   13  A    between atoms: C_21  and  O_22
REMARK   14  A    between atoms: C_25  and  O_26
REMARK                            x       y       z     vdW  Elec       q    Type
REMARK                         _______ _______ _______ _____ _____    ______ ____
ROOT
ATOM      1  C   UNL     1      23.180   1.831  51.786  0.00  0.00    +0.000 C 
ATOM      2  C   UNL     1      24.440   1.599  51.391  0.00  0.00    +0.000 C 
ATOM      3  C   UNL     1      25.382   2.682  51.091  0.00  0.00    +0.000 C 
ATOM      4  O   UNL     1      26.570   2.447  50.897  0.00  0.00    +0.000 OA
ATOM      5  C   UNL     1      24.840   4.032  50.903  0.00  0.00    +0.000 A 
ATOM      6  C   UNL     1      25.584   4.975  50.170  0.00  0.00    +0.000 A 
ATOM      7  C   UNL     1      25.101   6.259  49.975  0.00  0.00    +0.000 A 
ATOM      8  C   UNL     1      23.879   6.622  50.533  0.00  0.00    +0.000 A 
ATOM      9  C   UNL     1      23.119   5.665  51.243  0.00  0.00    +0.000 A 
ATOM     10  C   UNL     1      23.580   4.351  51.412  0.00  0.00    +0.000 A 
ATOM     11  C   UNL     1      22.755   3.263  52.021  0.00  0.00    +0.000 C 
ATOM     12  O   UNL     1      21.733   3.485  52.656  0.00  0.00    +0.000 OA
ENDROOT
BRANCH   6  13
ATOM     13  O   UNL     1      26.780   4.684  49.572  0.00  0.00    +0.000 OA
ATOM     14  H   UNL     1      26.973   5.021  48.720  0.00  0.00    +0.000 HD
ENDBRANCH   6  13
BRANCH   9  15
ATOM     15  O   UNL     1      21.911   6.067  51.738  0.00  0.00    +0.000 OA
ATOM     16  H   UNL     1      21.381   6.665  51.250  0.00  0.00    +0.000 HD
ENDBRANCH   9  15
BRANCH   1  17
ATOM     17  C   UNL     1      22.094   0.764  51.845  0.00  0.00    +0.000 C 
BRANCH  17  18
ATOM     18  O   UNL     1      22.550  -0.429  52.512  0.00  0.00    +0.000 OA
BRANCH  18  19
ATOM     19  C   UNL     1      22.480  -0.366  53.871  0.00  0.00    +0.000 C 
ATOM     20  O   UNL     1      21.559   0.161  54.497  0.00  0.00    +0.000 OA
BRANCH  19  21
ATOM     21  C   UNL     1      23.690  -0.932  54.589  0.00  0.00    +0.000 C 
BRANCH  21  22
ATOM     22  C   UNL     1      25.086  -0.411  54.260  0.00  0.00    +0.000 C 
BRANCH  22  23
ATOM     23  C   UNL     1      25.942  -1.075  53.174  0.00  0.00    +0.000 C 
BRANCH  23  24
ATOM     24  C   UNL     1      27.333  -0.547  52.791  0.00  0.00    +0.000 C 
BRANCH  24  26
ATOM     25  C   UNL     1      29.756  -0.138  53.571  0.00  0.00    +0.000 C 
ATOM     26  C   UNL     1      28.539  -0.683  53.683  0.00  0.00    +0.000 C 
ENDBRANCH  24  26
ENDBRANCH  23  24
ENDBRANCH  22  23
ENDBRANCH  21  22
ENDBRANCH  19  21
ENDBRANCH  18  19
ENDBRANCH  17  18
BRANCH  17  27
ATOM     27  C   UNL     1      21.274   0.453  50.544  0.00  0.00    +0.000 C 
BRANCH  27  28
ATOM     28  C   UNL     1      20.727   1.389  49.479  0.00  0.00    +0.000 C 
ATOM     29  C   UNL     1      21.231   2.194  48.524  0.00  0.00    +0.000 C 
ATOM     30  C   UNL     1      20.295   3.052  47.689  0.00  0.00    +0.000 C 
ATOM     31  C   UNL     1      22.678   2.347  48.175  0.00  0.00    +0.000 C 
ENDBRANCH  27  28
ENDBRANCH  17  27
ENDBRANCH   1  17
TORSDOF 12
ENDMDL
MODEL 6
REMARK VINA RESULT:    -7.467      2.345      5.235
REMARK INTER + INTRA:         -13.882
REMARK INTER:                 -12.414
REMARK INTRA:                  -1.469
REMARK UNBOUND:                -1.614
REMARK  Name = 
REMARK  14 active torsions:
REMARK  status: ('A' for Active; 'I' for Inactive)
REMARK    1  A    between atoms: C_2  and  C_3
REMARK    2  A    between atoms: C_3  and  C_4
REMARK    3  A    between atoms: C_4  and  C_5
REMARK    4  A    between atoms: C_5  and  C_6
REMARK    5  A    between atoms: C_6  and  C_7
REMARK    6  A    between atoms: C_7  and  O_9
REMARK    7  A    between atoms: O_9  and  C_10
REMARK    8  A    between atoms: C_10  and  C_11
REMARK    9  A    between atoms: C_10  and  C_16
REMARK   10  A    between atoms: C_11  and  C_12
REMARK   11  A    between atoms: C_13  and  C_14
REMARK   12  A    between atoms: C_13  and  C_15
REMARK   13  A    between atoms: C_21  and  O_22
REMARK   14  A    between atoms: C_25  and  O_26
REMARK                            x       y       z     vdW  Elec       q    Type
REMARK                         _______ _______ _______ _____ _____    ______ ____
ROOT
ATOM      1  C   UNL     1      24.856   1.787  51.865  0.00  0.00    +0.000 C 
ATOM      2  C   UNL     1      25.845   1.279  52.615  0.00  0.00    +0.000 C 
ATOM      3  C   UNL     1      25.657   0.108  53.477  0.00  0.00    +0.000 C 
ATOM      4  O   UNL     1      26.614  -0.435  54.018  0.00  0.00    +0.000 OA
ATOM      5  C   UNL     1      24.284  -0.315  53.773  0.00  0.00    +0.000 A 
ATOM      6  C   UNL     1      24.036  -1.087  54.922  0.00  0.00    +0.000 A 
ATOM      7  C   UNL     1      22.751  -1.503  55.231  0.00  0.00    +0.000 A 
ATOM      8  C   UNL     1      21.702  -1.173  54.377  0.00  0.00    +0.000 A 
ATOM      9  C   UNL     1      21.948  -0.371  53.240  0.00  0.00    +0.000 A 
ATOM     10  C   UNL     1      23.239   0.089  52.940  0.00  0.00    +0.000 A 
ATOM     11  C   UNL     1      23.531   1.058  51.839  0.00  0.00    +0.000 C 
ATOM     12  O   UNL     1      22.725   1.316  50.955  0.00  0.00    +0.000 OA
ENDROOT
BRANCH   6  13
ATOM     13  O   UNL     1      25.012  -1.429  55.819  0.00  0.00    +0.000 OA
ATOM     14  H   UNL     1      25.911  -1.431  55.557  0.00  0.00    +0.000 HD
ENDBRANCH   6  13
BRANCH   9  15
ATOM     15  O   UNL     1      20.876  -0.048  52.458  0.00  0.00    +0.000 OA
ATOM     16  H   UNL     1      20.007  -0.118  52.802  0.00  0.00    +0.000 HD
ENDBRANCH   9  15
BRANCH   1  17
ATOM     17  C   UNL     1      24.918   3.143  51.174  0.00  0.00    +0.000 C 
BRANCH  17  18
ATOM     18  O   UNL     1      23.664   3.847  51.261  0.00  0.00    +0.000 OA
BRANCH  18  19
ATOM     19  C   UNL     1      23.701   4.953  52.056  0.00  0.00    +0.000 C 
ATOM     20  O   UNL     1      23.531   4.937  53.277  0.00  0.00    +0.000 OA
BRANCH  19  21
ATOM     21  C   UNL     1      23.890   6.259  51.308  0.00  0.00    +0.000 C 
BRANCH  21  22
ATOM     22  C   UNL     1      22.802   6.761  50.364  0.00  0.00    +0.000 C 
BRANCH  22  23
ATOM     23  C   UNL     1      22.766   6.324  48.895  0.00  0.00    +0.000 C 
BRANCH  23  24
ATOM     24  C   UNL     1      21.881   5.166  48.407  0.00  0.00    +0.000 C 
BRANCH  24  26
ATOM     25  C   UNL     1      22.046   2.908  47.175  0.00  0.00    +0.000 C 
ATOM     26  C   UNL     1      22.416   3.791  48.111  0.00  0.00    +0.000 C 
ENDBRANCH  24  26
ENDBRANCH  23  24
ENDBRANCH  22  23
ENDBRANCH  21  22
ENDBRANCH  19  21
ENDBRANCH  18  19
ENDBRANCH  17  18
BRANCH  17  27
ATOM     27  C   UNL     1      25.562   3.231  49.746  0.00  0.00    +0.000 C 
BRANCH  27  28
ATOM     28  C   UNL     1      26.862   3.874  49.293  0.00  0.00    +0.000 C 
ATOM     29  C   UNL     1      27.247   5.061  48.784  0.00  0.00    +0.000 C 
ATOM     30  C   UNL     1      28.697   5.274  48.381  0.00  0.00    +0.000 C 
ATOM     31  C   UNL     1      26.367   6.249  48.558  0.00  0.00    +0.000 C 
ENDBRANCH  27  28
ENDBRANCH  17  27
ENDBRANCH   1  17
TORSDOF 12
ENDMDL
MODEL 7
REMARK VINA RESULT:    -7.382      2.503      7.737
REMARK INTER + INTRA:         -13.743
REMARK INTER:                 -12.399
REMARK INTRA:                  -1.345
REMARK UNBOUND:                -1.614
REMARK  Name = 
REMARK  14 active torsions:
REMARK  status: ('A' for Active; 'I' for Inactive)
REMARK    1  A    between atoms: C_2  and  C_3
REMARK    2  A    between atoms: C_3  and  C_4
REMARK    3  A    between atoms: C_4  and  C_5
REMARK    4  A    between atoms: C_5  and  C_6
REMARK    5  A    between atoms: C_6  and  C_7
REMARK    6  A    between atoms: C_7  and  O_9
REMARK    7  A    between atoms: O_9  and  C_10
REMARK    8  A    between atoms: C_10  and  C_11
REMARK    9  A    between atoms: C_10  and  C_16
REMARK   10  A    between atoms: C_11  and  C_12
REMARK   11  A    between atoms: C_13  and  C_14
REMARK   12  A    between atoms: C_13  and  C_15
REMARK   13  A    between atoms: C_21  and  O_22
REMARK   14  A    between atoms: C_25  and  O_26
REMARK                            x       y       z     vdW  Elec       q    Type
REMARK                         _______ _______ _______ _____ _____    ______ ____
ROOT
ATOM      1  C   UNL     1      22.967   1.067  52.142  0.00  0.00    +0.000 C 
ATOM      2  C   UNL     1      22.689   0.312  53.214  0.00  0.00    +0.000 C 
ATOM      3  C   UNL     1      21.448  -0.460  53.332  0.00  0.00    +0.000 C 
ATOM      4  O   UNL     1      21.296  -1.270  54.239  0.00  0.00    +0.000 OA
ATOM      5  C   UNL     1      20.351  -0.142  52.412  0.00  0.00    +0.000 A 
ATOM      6  C   UNL     1      19.035  -0.486  52.769  0.00  0.00    +0.000 A 
ATOM      7  C   UNL     1      17.975  -0.202  51.922  0.00  0.00    +0.000 A 
ATOM      8  C   UNL     1      18.225   0.408  50.696  0.00  0.00    +0.000 A 
ATOM      9  C   UNL     1      19.544   0.781  50.353  0.00  0.00    +0.000 A 
ATOM     10  C   UNL     1      20.619   0.533  51.220  0.00  0.00    +0.000 A 
ATOM     11  C   UNL     1      22.005   1.037  50.975  0.00  0.00    +0.000 C 
ATOM     12  O   UNL     1      22.370   1.466  49.889  0.00  0.00    +0.000 OA
ENDROOT
BRANCH   6  13
ATOM     13  O   UNL     1      18.710  -1.065  53.966  0.00  0.00    +0.000 OA
ATOM     14  H   UNL     1      18.635  -1.996  54.032  0.00  0.00    +0.000 HD
ENDBRANCH   6  13
BRANCH   9  15
ATOM     15  O   UNL     1      19.725   1.409  49.153  0.00  0.00    +0.000 OA
ATOM     16  H   UNL     1      19.005   1.507  48.563  0.00  0.00    +0.000 HD
ENDBRANCH   9  15
BRANCH   1  17
ATOM     17  C   UNL     1      24.096   2.089  52.086  0.00  0.00    +0.000 C 
BRANCH  17  18
ATOM     18  O   UNL     1      24.978   1.855  50.972  0.00  0.00    +0.000 OA
BRANCH  18  19
ATOM     19  C   UNL     1      25.653   2.962  50.555  0.00  0.00    +0.000 C 
ATOM     20  O   UNL     1      26.861   3.145  50.725  0.00  0.00    +0.000 OA
BRANCH  19  21
ATOM     21  C   UNL     1      24.782   4.029  49.922  0.00  0.00    +0.000 C 
BRANCH  21  22
ATOM     22  C   UNL     1      25.116   5.505  50.120  0.00  0.00    +0.000 C 
BRANCH  22  23
ATOM     23  C   UNL     1      25.434   6.410  48.924  0.00  0.00    +0.000 C 
BRANCH  23  24
ATOM     24  C   UNL     1      26.866   6.605  48.401  0.00  0.00    +0.000 C 
BRANCH  24  26
ATOM     25  C   UNL     1      29.230   5.579  48.337  0.00  0.00    +0.000 C 
ATOM     26  C   UNL     1      27.895   5.506  48.396  0.00  0.00    +0.000 C 
ENDBRANCH  24  26
ENDBRANCH  23  24
ENDBRANCH  22  23
ENDBRANCH  21  22
ENDBRANCH  19  21
ENDBRANCH  18  19
ENDBRANCH  17  18
BRANCH  17  27
ATOM     27  C   UNL     1      24.870   2.428  53.409  0.00  0.00    +0.000 C 
BRANCH  27  28
ATOM     28  C   UNL     1      26.125   1.807  53.999  0.00  0.00    +0.000 C 
ATOM     29  C   UNL     1      26.761   0.621  53.932  0.00  0.00    +0.000 C 
ATOM     30  C   UNL     1      28.002   0.382  54.776  0.00  0.00    +0.000 C 
ATOM     31  C   UNL     1      26.365  -0.544  53.080  0.00  0.00    +0.000 C 
ENDBRANCH  27  28
ENDBRANCH  17  27
ENDBRANCH   1  17
TORSDOF 12
ENDMDL
MODEL 8
REMARK VINA RESULT:    -7.355      2.273      6.889
REMARK INTER + INTRA:         -13.699
REMARK INTER:                 -12.687
REMARK INTRA:                  -1.012
REMARK UNBOUND:                -1.614
REMARK  Name = 
REMARK  14 active torsions:
REMARK  status: ('A' for Active; 'I' for Inactive)
REMARK    1  A    between atoms: C_2  and  C_3
REMARK    2  A    between atoms: C_3  and  C_4
REMARK    3  A    between atoms: C_4  and  C_5
REMARK    4  A    between atoms: C_5  and  C_6
REMARK    5  A    between atoms: C_6  and  C_7
REMARK    6  A    between atoms: C_7  and  O_9
REMARK    7  A    between atoms: O_9  and  C_10
REMARK    8  A    between atoms: C_10  and  C_11
REMARK    9  A    between atoms: C_10  and  C_16
REMARK   10  A    between atoms: C_11  and  C_12
REMARK   11  A    between atoms: C_13  and  C_14
REMARK   12  A    between atoms: C_13  and  C_15
REMARK   13  A    between atoms: C_21  and  O_22
REMARK   14  A    between atoms: C_25  and  O_26
REMARK                            x       y       z     vdW  Elec       q    Type
REMARK                         _______ _______ _______ _____ _____    ______ ____
ROOT
ATOM      1  C   UNL     1      23.988   0.966  52.778  0.00  0.00    +0.000 C 
ATOM      2  C   UNL     1      23.179   1.849  52.175  0.00  0.00    +0.000 C 
ATOM      3  C   UNL     1      21.725   1.837  52.360  0.00  0.00    +0.000 C 
ATOM      4  O   UNL     1      21.030   2.753  51.935  0.00  0.00    +0.000 OA
ATOM      5  C   UNL     1      21.117   0.640  52.951  0.00  0.00    +0.000 A 
ATOM      6  C   UNL     1      19.755   0.376  52.719  0.00  0.00    +0.000 A 
ATOM      7  C   UNL     1      19.149  -0.745  53.263  0.00  0.00    +0.000 A 
ATOM      8  C   UNL     1      19.895  -1.601  54.068  0.00  0.00    +0.000 A 
ATOM      9  C   UNL     1      21.270  -1.351  54.276  0.00  0.00    +0.000 A 
ATOM     10  C   UNL     1      21.902  -0.241  53.696  0.00  0.00    +0.000 A 
ATOM     11  C   UNL     1      23.379  -0.010  53.758  0.00  0.00    +0.000 C 
ATOM     12  O   UNL     1      24.110  -0.613  54.533  0.00  0.00    +0.000 OA
ENDROOT
BRANCH   6  13
ATOM     13  O   UNL     1      18.966   1.159  51.919  0.00  0.00    +0.000 OA
ATOM     14  H   UNL     1      18.620   1.965  52.247  0.00  0.00    +0.000 HD
ENDBRANCH   6  13
BRANCH   9  15
ATOM     15  O   UNL     1      21.960  -2.244  55.044  0.00  0.00    +0.000 OA
ATOM     16  H   UNL     1      22.667  -1.950  55.584  0.00  0.00    +0.000 HD
ENDBRANCH   9  15
BRANCH   1  17
ATOM     17  C   UNL     1      25.453   0.763  52.413  0.00  0.00    +0.000 C 
BRANCH  17  18
ATOM     18  O   UNL     1      25.762   1.299  51.113  0.00  0.00    +0.000 OA
BRANCH  18  19
ATOM     19  C   UNL     1      26.563   2.401  51.142  0.00  0.00    +0.000 C 
ATOM     20  O   UNL     1      27.390   2.636  52.025  0.00  0.00    +0.000 OA
BRANCH  19  21
ATOM     21  C   UNL     1      26.306   3.395  50.026  0.00  0.00    +0.000 C 
BRANCH  21  22
ATOM     22  C   UNL     1      25.158   4.393  50.142  0.00  0.00    +0.000 C 
BRANCH  22  23
ATOM     23  C   UNL     1      23.721   3.988  49.792  0.00  0.00    +0.000 C 
BRANCH  23  24
ATOM     24  C   UNL     1      23.295   3.632  48.359  0.00  0.00    +0.000 C 
BRANCH  24  26
ATOM     25  C   UNL     1      21.815   1.548  48.689  0.00  0.00    +0.000 C 
ATOM     26  C   UNL     1      22.661   2.317  47.993  0.00  0.00    +0.000 C 
ENDBRANCH  24  26
ENDBRANCH  23  24
ENDBRANCH  22  23
ENDBRANCH  21  22
ENDBRANCH  19  21
ENDBRANCH  18  19
ENDBRANCH  17  18
BRANCH  17  27
ATOM     27  C   UNL     1      26.100  -0.647  52.654  0.00  0.00    +0.000 C 
BRANCH  27  28
ATOM     28  C   UNL     1      27.551  -1.037  52.880  0.00  0.00    +0.000 C 
ATOM     29  C   UNL     1      28.563  -0.643  53.677  0.00  0.00    +0.000 C 
ATOM     30  C   UNL     1      29.936  -1.276  53.522  0.00  0.00    +0.000 C 
ATOM     31  C   UNL     1      28.485   0.398  54.749  0.00  0.00    +0.000 C 
ENDBRANCH  27  28
ENDBRANCH  17  27
ENDBRANCH   1  17
TORSDOF 12
ENDMDL
MODEL 9
REMARK VINA RESULT:    -7.348      2.710      4.930
REMARK INTER + INTRA:         -13.688
REMARK INTER:                 -11.451
REMARK INTRA:                  -2.237
REMARK UNBOUND:                -1.614
REMARK  Name = 
REMARK  14 active torsions:
REMARK  status: ('A' for Active; 'I' for Inactive)
REMARK    1  A    between atoms: C_2  and  C_3
REMARK    2  A    between atoms: C_3  and  C_4
REMARK    3  A    between atoms: C_4  and  C_5
REMARK    4  A    between atoms: C_5  and  C_6
REMARK    5  A    between atoms: C_6  and  C_7
REMARK    6  A    between atoms: C_7  and  O_9
REMARK    7  A    between atoms: O_9  and  C_10
REMARK    8  A    between atoms: C_10  and  C_11
REMARK    9  A    between atoms: C_10  and  C_16
REMARK   10  A    between atoms: C_11  and  C_12
REMARK   11  A    between atoms: C_13  and  C_14
REMARK   12  A    between atoms: C_13  and  C_15
REMARK   13  A    between atoms: C_21  and  O_22
REMARK   14  A    between atoms: C_25  and  O_26
REMARK                            x       y       z     vdW  Elec       q    Type
REMARK                         _______ _______ _______ _____ _____    ______ ____
ROOT
ATOM      1  C   UNL     1      23.103   1.127  52.419  0.00  0.00    +0.000 C 
ATOM      2  C   UNL     1      23.786   1.913  51.575  0.00  0.00    +0.000 C 
ATOM      3  C   UNL     1      25.252   1.947  51.543  0.00  0.00    +0.000 C 
ATOM      4  O   UNL     1      25.848   2.544  50.654  0.00  0.00    +0.000 OA
ATOM      5  C   UNL     1      25.978   1.358  52.674  0.00  0.00    +0.000 A 
ATOM      6  C   UNL     1      27.298   1.769  52.930  0.00  0.00    +0.000 A 
ATOM      7  C   UNL     1      28.013   1.231  53.989  0.00  0.00    +0.000 A 
ATOM      8  C   UNL     1      27.421   0.257  54.788  0.00  0.00    +0.000 A 
ATOM      9  C   UNL     1      26.084  -0.132  54.548  0.00  0.00    +0.000 A 
ATOM     10  C   UNL     1      25.339   0.435  53.503  0.00  0.00    +0.000 A 
ATOM     11  C   UNL     1      23.881   0.172  53.297  0.00  0.00    +0.000 C 
ATOM     12  O   UNL     1      23.292  -0.749  53.845  0.00  0.00    +0.000 OA
ENDROOT
BRANCH   6  13
ATOM     13  O   UNL     1      27.936   2.737  52.204  0.00  0.00    +0.000 OA
ATOM     14  H   UNL     1      28.868   2.821  52.250  0.00  0.00    +0.000 HD
ENDBRANCH   6  13
BRANCH   9  15
ATOM     15  O   UNL     1      25.543  -1.065  55.385  0.00  0.00    +0.000 OA
ATOM     16  H   UNL     1      26.099  -1.679  55.823  0.00  0.00    +0.000 HD
ENDBRANCH   9  15
BRANCH   1  17
ATOM     17  C   UNL     1      21.608   1.251  52.681  0.00  0.00    +0.000 C 
BRANCH  17  18
ATOM     18  O   UNL     1      20.836   0.425  51.788  0.00  0.00    +0.000 OA
BRANCH  18  19
ATOM     19  C   UNL     1      19.675  -0.041  52.327  0.00  0.00    +0.000 C 
ATOM     20  O   UNL     1      19.592  -0.602  53.421  0.00  0.00    +0.000 OA
BRANCH  19  21
ATOM     21  C   UNL     1      18.462   0.106  51.429  0.00  0.00    +0.000 C 
BRANCH  21  22
ATOM     22  C   UNL     1      18.627   0.618  50.001  0.00  0.00    +0.000 C 
BRANCH  22  23
ATOM     23  C   UNL     1      19.147   2.033  49.724  0.00  0.00    +0.000 C 
BRANCH  23  24
ATOM     24  C   UNL     1      20.095   2.344  48.556  0.00  0.00    +0.000 C 
BRANCH  24  26
ATOM     25  C   UNL     1      22.571   3.040  48.373  0.00  0.00    +0.000 C 
ATOM     26  C   UNL     1      21.588   2.171  48.641  0.00  0.00    +0.000 C 
ENDBRANCH  24  26
ENDBRANCH  23  24
ENDBRANCH  22  23
ENDBRANCH  21  22
ENDBRANCH  19  21
ENDBRANCH  18  19
ENDBRANCH  17  18
BRANCH  17  27
ATOM     27  C   UNL     1      20.993   2.684  52.863  0.00  0.00    +0.000 C 
BRANCH  27  28
ATOM     28  C   UNL     1      20.998   3.881  51.928  0.00  0.00    +0.000 C 
ATOM     29  C   UNL     1      21.805   4.930  51.677  0.00  0.00    +0.000 C 
ATOM     30  C   UNL     1      21.381   5.984  50.667  0.00  0.00    +0.000 C 
ATOM     31  C   UNL     1      23.135   5.189  52.312  0.00  0.00    +0.000 C 
ENDBRANCH  27  28
ENDBRANCH  17  27
ENDBRANCH   1  17
TORSDOF 12
ENDMDL
