MODEL 1
REMARK VINA RESULT:    -8.764      0.000      0.000
REMARK INTER + INTRA:          -9.703
REMARK INTER:                  -9.789
REMARK INTRA:                   0.086
REMARK UNBOUND:                 0.086
REMARK  Name = 
REMARK  5 active torsions:
REMARK  status: ('A' for Active; 'I' for Inactive)
REMARK    1  A    between atoms: C_1  and  C_2
REMARK    2  A    between atoms: C_2  and  C_3
REMARK    3  A    between atoms: C_2  and  C_4
REMARK    4  A    between atoms: C_2  and  N_5
REMARK    5  A    between atoms: C_17  and  C_18
REMARK                            x       y       z     vdW  Elec       q    Type
REMARK                         _______ _______ _______ _____ _____    ______ ____
ROOT
ATOM      1  N   UNL     1      27.665   1.138  53.087  0.00  0.00    +0.000 N 
ATOM      2  C   UNL     1      26.326   1.198  52.750  0.00  0.00    +0.000 A 
ATOM      3  N   UNL     1      25.417   0.402  53.248  0.00  0.00    +0.000 NA
ATOM      4  C   UNL     1      24.086   0.453  52.773  0.00  0.00    +0.000 A 
ATOM      5  C   UNL     1      23.182  -0.496  53.248  0.00  0.00    +0.000 A 
ATOM      6  C   UNL     1      21.879  -0.536  52.749  0.00  0.00    +0.000 A 
ATOM      7  C   UNL     1      21.478   0.381  51.777  0.00  0.00    +0.000 A 
ATOM      8 CL   UNL     1      19.878   0.298  51.148  0.00  0.00    +0.000 Cl
ATOM      9  C   UNL     1      22.361   1.349  51.298  0.00  0.00    +0.000 A 
ATOM     10  C   UNL     1      23.664   1.384  51.796  0.00  0.00    +0.000 A 
ATOM     11  C   UNL     1      24.671   2.307  51.320  0.00  0.00    +0.000 A 
ATOM     12  N   UNL     1      24.638   3.292  50.448  0.00  0.00    +0.000 NA
ATOM     13  C   UNL     1      25.960   3.700  50.391  0.00  0.00    +0.000 A 
ATOM     14  N   UNL     1      26.799   3.020  51.195  0.00  0.00    +0.000 NA
ATOM     15  N   UNL     1      25.942   2.165  51.794  0.00  0.00    +0.000 N 
ATOM     16  H   UNL     1      28.201   1.952  52.952  0.00  0.00    +0.000 HD
ENDROOT
BRANCH  13  17
ATOM     17  C   UNL     1      26.422   4.797  49.486  0.00  0.00    +0.000 A 
ATOM     18  C   UNL     1      27.613   4.819  48.783  0.00  0.00    +0.000 A 
ATOM     19  C   UNL     1      27.645   6.040  48.063  0.00  0.00    +0.000 A 
ATOM     20  C   UNL     1      26.478   6.696  48.377  0.00  0.00    +0.000 A 
ATOM     21  O   UNL     1      25.726   5.948  49.225  0.00  0.00    +0.000 OA
ENDBRANCH  13  17
BRANCH   1  23
ATOM     22  C   UNL     1      27.856  -1.344  52.982  0.00  0.00    +0.000 C 
ATOM     23  C   UNL     1      28.351  -0.038  53.626  0.00  0.00    +0.000 C 
ATOM     24  C   UNL     1      28.163  -0.088  55.146  0.00  0.00    +0.000 C 
ATOM     25  C   UNL     1      29.849   0.110  53.304  0.00  0.00    +0.000 C 
ENDBRANCH   1  23
TORSDOF 2
ENDMDL
MODEL 2
REMARK VINA RESULT:    -8.512      2.696      5.855
REMARK INTER + INTRA:          -9.422
REMARK INTER:                  -9.614
REMARK INTRA:                   0.192
REMARK UNBOUND:                 0.086
REMARK  Name = 
REMARK  5 active torsions:
REMARK  status: ('A' for Active; 'I' for Inactive)
REMARK    1  A    between atoms: C_1  and  C_2
REMARK    2  A    between atoms: C_2  and  C_3
REMARK    3  A    between atoms: C_2  and  C_4
REMARK    4  A    between atoms: C_2  and  N_5
REMARK    5  A    between atoms: C_17  and  C_18
REMARK                            x       y       z     vdW  Elec       q    Type
REMARK                         _______ _______ _______ _____ _____    ______ ____
ROOT
ATOM      1  N   UNL     1      27.084   0.483  53.122  0.00  0.00    +0.000 N 
ATOM      2  C   UNL     1      26.387   1.259  52.215  0.00  0.00    +0.000 A 
ATOM      3  N   UNL     1      26.953   2.132  51.425  0.00  0.00    +0.000 NA
ATOM      4  C   UNL     1      26.162   2.966  50.601  0.00  0.00    +0.000 A 
ATOM      5  C   UNL     1      26.804   3.963  49.866  0.00  0.00    +0.000 A 
ATOM      6  C   UNL     1      26.059   4.861  49.101  0.00  0.00    +0.000 A 
ATOM      7  C   UNL     1      24.667   4.757  49.066  0.00  0.00    +0.000 A 
ATOM      8 CL   UNL     1      23.760   5.893  48.144  0.00  0.00    +0.000 Cl
ATOM      9  C   UNL     1      24.005   3.760  49.782  0.00  0.00    +0.000 A 
ATOM     10  C   UNL     1      24.753   2.865  50.549  0.00  0.00    +0.000 A 
ATOM     11  C   UNL     1      24.158   1.837  51.373  0.00  0.00    +0.000 A 
ATOM     12  N   UNL     1      22.914   1.453  51.562  0.00  0.00    +0.000 NA
ATOM     13  C   UNL     1      23.034   0.486  52.547  0.00  0.00    +0.000 A 
ATOM     14  N   UNL     1      24.292   0.252  52.961  0.00  0.00    +0.000 NA
ATOM     15  N   UNL     1      24.984   1.103  52.172  0.00  0.00    +0.000 N 
ATOM     16  H   UNL     1      26.663  -0.357  53.414  0.00  0.00    +0.000 HD
ENDROOT
BRANCH  13  17
ATOM     17  C   UNL     1      21.849  -0.223  53.121  0.00  0.00    +0.000 A 
ATOM     18  C   UNL     1      21.891  -1.257  54.038  0.00  0.00    +0.000 A 
ATOM     19  C   UNL     1      20.550  -1.633  54.299  0.00  0.00    +0.000 A 
ATOM     20  C   UNL     1      19.768  -0.814  53.518  0.00  0.00    +0.000 A 
ATOM     21  O   UNL     1      20.542   0.050  52.813  0.00  0.00    +0.000 OA
ENDBRANCH  13  17
BRANCH   1  23
ATOM     22  C   UNL     1      28.677   2.320  53.663  0.00  0.00    +0.000 C 
ATOM     23  C   UNL     1      28.395   0.808  53.686  0.00  0.00    +0.000 C 
ATOM     24  C   UNL     1      29.485   0.052  52.918  0.00  0.00    +0.000 C 
ATOM     25  C   UNL     1      28.397   0.349  55.155  0.00  0.00    +0.000 C 
ENDBRANCH   1  23
TORSDOF 2
ENDMDL
MODEL 3
REMARK VINA RESULT:    -8.406      2.115      5.468
REMARK INTER + INTRA:          -9.304
REMARK INTER:                  -9.365
REMARK INTRA:                   0.061
REMARK UNBOUND:                 0.086
REMARK  Name = 
REMARK  5 active torsions:
REMARK  status: ('A' for Active; 'I' for Inactive)
REMARK    1  A    between atoms: C_1  and  C_2
REMARK    2  A    between atoms: C_2  and  C_3
REMARK    3  A    between atoms: C_2  and  C_4
REMARK    4  A    between atoms: C_2  and  N_5
REMARK    5  A    between atoms: C_17  and  C_18
REMARK                            x       y       z     vdW  Elec       q    Type
REMARK                         _______ _______ _______ _____ _____    ______ ____
ROOT
ATOM      1  N   UNL     1      25.039   3.486  50.459  0.00  0.00    +0.000 N 
ATOM      2  C   UNL     1      24.345   2.449  51.052  0.00  0.00    +0.000 A 
ATOM      3  N   UNL     1      23.044   2.334  51.016  0.00  0.00    +0.000 NA
ATOM      4  C   UNL     1      22.398   1.306  51.739  0.00  0.00    +0.000 A 
ATOM      5  C   UNL     1      21.004   1.297  51.767  0.00  0.00    +0.000 A 
ATOM      6  C   UNL     1      20.322   0.350  52.532  0.00  0.00    +0.000 A 
ATOM      7  C   UNL     1      21.038  -0.597  53.267  0.00  0.00    +0.000 A 
ATOM      8 CL   UNL     1      20.184  -1.738  54.231  0.00  0.00    +0.000 Cl
ATOM      9  C   UNL     1      22.432  -0.617  53.242  0.00  0.00    +0.000 A 
ATOM     10  C   UNL     1      23.111   0.335  52.479  0.00  0.00    +0.000 A 
ATOM     11  C   UNL     1      24.553   0.436  52.437  0.00  0.00    +0.000 A 
ATOM     12  N   UNL     1      25.514  -0.282  52.977  0.00  0.00    +0.000 NA
ATOM     13  C   UNL     1      26.658   0.414  52.621  0.00  0.00    +0.000 A 
ATOM     14  N   UNL     1      26.444   1.515  51.879  0.00  0.00    +0.000 NA
ATOM     15  N   UNL     1      25.100   1.482  51.753  0.00  0.00    +0.000 N 
ATOM     16  H   UNL     1      25.984   3.325  50.233  0.00  0.00    +0.000 HD
ENDROOT
BRANCH  13  17
ATOM     17  C   UNL     1      28.024  -0.018  53.051  0.00  0.00    +0.000 A 
ATOM     18  C   UNL     1      28.445  -1.325  53.216  0.00  0.00    +0.000 A 
ATOM     19  C   UNL     1      29.798  -1.273  53.636  0.00  0.00    +0.000 A 
ATOM     20  C   UNL     1      30.120   0.062  53.713  0.00  0.00    +0.000 A 
ATOM     21  O   UNL     1      29.060   0.828  53.349  0.00  0.00    +0.000 OA
ENDBRANCH  13  17
BRANCH   1  23
ATOM     22  C   UNL     1      23.746   5.427  51.333  0.00  0.00    +0.000 C 
ATOM     23  C   UNL     1      24.486   4.803  50.138  0.00  0.00    +0.000 C 
ATOM     24  C   UNL     1      23.547   4.685  48.933  0.00  0.00    +0.000 C 
ATOM     25  C   UNL     1      25.664   5.726  49.777  0.00  0.00    +0.000 C 
ENDBRANCH   1  23
TORSDOF 2
ENDMDL
MODEL 4
REMARK VINA RESULT:    -8.203      3.114      5.256
REMARK INTER + INTRA:          -9.076
REMARK INTER:                  -9.234
REMARK INTRA:                   0.157
REMARK UNBOUND:                 0.086
REMARK  Name = 
REMARK  5 active torsions:
REMARK  status: ('A' for Active; 'I' for Inactive)
REMARK    1  A    between atoms: C_1  and  C_2
REMARK    2  A    between atoms: C_2  and  C_3
REMARK    3  A    between atoms: C_2  and  C_4
REMARK    4  A    between atoms: C_2  and  N_5
REMARK    5  A    between atoms: C_17  and  C_18
REMARK                            x       y       z     vdW  Elec       q    Type
REMARK                         _______ _______ _______ _____ _____    ______ ____
ROOT
ATOM      1  N   UNL     1      21.583  -0.019  52.616  0.00  0.00    +0.000 N 
ATOM      2  C   UNL     1      22.928   0.292  52.683  0.00  0.00    +0.000 A 
ATOM      3  N   UNL     1      23.751  -0.237  53.548  0.00  0.00    +0.000 NA
ATOM      4  C   UNL     1      25.089   0.213  53.627  0.00  0.00    +0.000 A 
ATOM      5  C   UNL     1      25.895  -0.295  54.645  0.00  0.00    +0.000 A 
ATOM      6  C   UNL     1      27.198   0.177  54.812  0.00  0.00    +0.000 A 
ATOM      7  C   UNL     1      27.698   1.157  53.953  0.00  0.00    +0.000 A 
ATOM      8 CL   UNL     1      29.295   1.753  54.193  0.00  0.00    +0.000 Cl
ATOM      9  C   UNL     1      26.915   1.669  52.919  0.00  0.00    +0.000 A 
ATOM     10  C   UNL     1      25.612   1.198  52.757  0.00  0.00    +0.000 A 
ATOM     11  C   UNL     1      24.702   1.708  51.756  0.00  0.00    +0.000 A 
ATOM     12  N   UNL     1      24.840   2.596  50.795  0.00  0.00    +0.000 NA
ATOM     13  C   UNL     1      23.561   2.686  50.270  0.00  0.00    +0.000 A 
ATOM     14  N   UNL     1      22.650   1.888  50.856  0.00  0.00    +0.000 NA
ATOM     15  N   UNL     1      23.415   1.257  51.773  0.00  0.00    +0.000 N 
ATOM     16  H   UNL     1      21.126   0.139  51.759  0.00  0.00    +0.000 HD
ENDROOT
BRANCH  13  17
ATOM     17  C   UNL     1      23.217   3.619  49.153  0.00  0.00    +0.000 A 
ATOM     18  C   UNL     1      22.447   3.309  48.047  0.00  0.00    +0.000 A 
ATOM     19  C   UNL     1      22.384   4.476  47.246  0.00  0.00    +0.000 A 
ATOM     20  C   UNL     1      23.127   5.427  47.904  0.00  0.00    +0.000 A 
ATOM     21  O   UNL     1      23.624   4.925  49.063  0.00  0.00    +0.000 OA
ENDBRANCH  13  17
BRANCH   1  23
ATOM     22  C   UNL     1      21.358  -1.889  54.247  0.00  0.00    +0.000 C 
ATOM     23  C   UNL     1      20.783  -0.565  53.714  0.00  0.00    +0.000 C 
ATOM     24  C   UNL     1      19.337  -0.763  53.246  0.00  0.00    +0.000 C 
ATOM     25  C   UNL     1      20.810   0.458  54.863  0.00  0.00    +0.000 C 
ENDBRANCH   1  23
TORSDOF 2
ENDMDL
MODEL 5
REMARK VINA RESULT:    -8.196      2.499      4.928
REMARK INTER + INTRA:          -9.069
REMARK INTER:                  -9.130
REMARK INTRA:                   0.060
REMARK UNBOUND:                 0.086
REMARK  Name = 
REMARK  5 active torsions:
REMARK  status: ('A' for Active; 'I' for Inactive)
REMARK    1  A    between atoms: C_1  and  C_2
REMARK    2  A    between atoms: C_2  and  C_3
REMARK    3  A    between atoms: C_2  and  C_4
REMARK    4  A    between atoms: C_2  and  N_5
REMARK    5  A    between atoms: C_17  and  C_18
REMARK                            x       y       z     vdW  Elec       q    Type
REMARK                         _______ _______ _______ _____ _____    ______ ____
ROOT
ATOM      1  N   UNL     1      22.355   2.574  50.229  0.00  0.00    +0.000 N 
ATOM      2  C   UNL     1      23.510   2.134  50.848  0.00  0.00    +0.000 A 
ATOM      3  N   UNL     1      23.540   1.151  51.709  0.00  0.00    +0.000 NA
ATOM      4  C   UNL     1      24.741   0.830  52.383  0.00  0.00    +0.000 A 
ATOM      5  C   UNL     1      24.696  -0.145  53.379  0.00  0.00    +0.000 A 
ATOM      6  C   UNL     1      25.837  -0.440  54.126  0.00  0.00    +0.000 A 
ATOM      7  C   UNL     1      27.029   0.239  53.871  0.00  0.00    +0.000 A 
ATOM      8 CL   UNL     1      28.419  -0.112  54.824  0.00  0.00    +0.000 Cl
ATOM      9  C   UNL     1      27.102   1.208  52.871  0.00  0.00    +0.000 A 
ATOM     10  C   UNL     1      25.958   1.503  52.128  0.00  0.00    +0.000 A 
ATOM     11  C   UNL     1      25.915   2.532  51.113  0.00  0.00    +0.000 A 
ATOM     12  N   UNL     1      26.832   3.334  50.615  0.00  0.00    +0.000 NA
ATOM     13  C   UNL     1      26.105   4.137  49.751  0.00  0.00    +0.000 A 
ATOM     14  N   UNL     1      24.791   3.858  49.687  0.00  0.00    +0.000 NA
ATOM     15  N   UNL     1      24.709   2.813  50.540  0.00  0.00    +0.000 N 
ATOM     16  H   UNL     1      22.456   3.052  49.375  0.00  0.00    +0.000 HD
ENDROOT
BRANCH  13  17
ATOM     17  C   UNL     1      26.734   5.245  48.968  0.00  0.00    +0.000 A 
ATOM     18  C   UNL     1      28.048   5.288  48.538  0.00  0.00    +0.000 A 
ATOM     19  C   UNL     1      28.217   6.512  47.845  0.00  0.00    +0.000 A 
ATOM     20  C   UNL     1      27.000   7.150  47.902  0.00  0.00    +0.000 A 
ATOM     21  O   UNL     1      26.094   6.388  48.566  0.00  0.00    +0.000 OA
ENDBRANCH  13  17
BRANCH   1  23
ATOM     22  C   UNL     1      20.864   2.814  52.209  0.00  0.00    +0.000 C 
ATOM     23  C   UNL     1      20.996   2.387  50.738  0.00  0.00    +0.000 C 
ATOM     24  C   UNL     1      20.583   0.920  50.570  0.00  0.00    +0.000 C 
ATOM     25  C   UNL     1      20.060   3.277  49.901  0.00  0.00    +0.000 C 
ENDBRANCH   1  23
TORSDOF 2
ENDMDL
MODEL 6
REMARK VINA RESULT:    -8.169      1.945      2.344
REMARK INTER + INTRA:          -9.039
REMARK INTER:                  -9.098
REMARK INTRA:                   0.059
REMARK UNBOUND:                 0.086
REMARK  Name = 
REMARK  5 active torsions:
REMARK  status: ('A' for Active; 'I' for Inactive)
REMARK    1  A    between atoms: C_1  and  C_2
REMARK    2  A    between atoms: C_2  and  C_3
REMARK    3  A    between atoms: C_2  and  C_4
REMARK    4  A    between atoms: C_2  and  N_5
REMARK    5  A    between atoms: C_17  and  C_18
REMARK                            x       y       z     vdW  Elec       q    Type
REMARK                         _______ _______ _______ _____ _____    ______ ____
ROOT
ATOM      1  N   UNL     1      26.235   1.283  53.199  0.00  0.00    +0.000 N 
ATOM      2  C   UNL     1      24.870   1.064  53.209  0.00  0.00    +0.000 A 
ATOM      3  N   UNL     1      24.290   0.139  53.927  0.00  0.00    +0.000 NA
ATOM      4  C   UNL     1      22.902  -0.096  53.801  0.00  0.00    +0.000 A 
ATOM      5  C   UNL     1      22.351  -1.171  54.497  0.00  0.00    +0.000 A 
ATOM      6  C   UNL     1      21.002  -1.491  54.343  0.00  0.00    +0.000 A 
ATOM      7  C   UNL     1      20.199  -0.728  53.494  0.00  0.00    +0.000 A 
ATOM      8 CL   UNL     1      18.544  -1.156  53.289  0.00  0.00    +0.000 Cl
ATOM      9  C   UNL     1      20.724   0.361  52.799  0.00  0.00    +0.000 A 
ATOM     10  C   UNL     1      22.075   0.676  52.953  0.00  0.00    +0.000 A 
ATOM     11  C   UNL     1      22.727   1.745  52.230  0.00  0.00    +0.000 A 
ATOM     12  N   UNL     1      22.285   2.651  51.385  0.00  0.00    +0.000 NA
ATOM     13  C   UNL     1      23.443   3.302  50.993  0.00  0.00    +0.000 A 
ATOM     14  N   UNL     1      24.571   2.846  51.567  0.00  0.00    +0.000 NA
ATOM     15  N   UNL     1      24.077   1.880  52.371  0.00  0.00    +0.000 N 
ATOM     16  H   UNL     1      26.546   2.175  52.926  0.00  0.00    +0.000 HD
ENDROOT
BRANCH  13  17
ATOM     17  C   UNL     1      23.438   4.411  49.990  0.00  0.00    +0.000 A 
ATOM     18  C   UNL     1      24.536   4.870  49.285  0.00  0.00    +0.000 A 
ATOM     19  C   UNL     1      24.084   5.927  48.457  0.00  0.00    +0.000 A 
ATOM     20  C   UNL     1      22.739   6.059  48.713  0.00  0.00    +0.000 A 
ATOM     21  O   UNL     1      22.336   5.140  49.627  0.00  0.00    +0.000 OA
ENDBRANCH  13  17
BRANCH   1  23
ATOM     22  C   UNL     1      27.092  -1.017  52.776  0.00  0.00    +0.000 C 
ATOM     23  C   UNL     1      27.254   0.296  53.560  0.00  0.00    +0.000 C 
ATOM     24  C   UNL     1      27.197   0.028  55.068  0.00  0.00    +0.000 C 
ATOM     25  C   UNL     1      28.627   0.894  53.202  0.00  0.00    +0.000 C 
ENDBRANCH   1  23
TORSDOF 2
ENDMDL
MODEL 7
REMARK VINA RESULT:    -7.850      2.969      6.583
REMARK INTER + INTRA:          -8.683
REMARK INTER:                  -8.876
REMARK INTRA:                   0.193
REMARK UNBOUND:                 0.086
REMARK  Name = 
REMARK  5 active torsions:
REMARK  status: ('A' for Active; 'I' for Inactive)
REMARK    1  A    between atoms: C_1  and  C_2
REMARK    2  A    between atoms: C_2  and  C_3
REMARK    3  A    between atoms: C_2  and  C_4
REMARK    4  A    between atoms: C_2  and  N_5
REMARK    5  A    between atoms: C_17  and  C_18
REMARK                            x       y       z     vdW  Elec       q    Type
REMARK                         _______ _______ _______ _____ _____    ______ ____
ROOT
ATOM      1  N   UNL     1      22.404   1.485  51.912  0.00  0.00    +0.000 N 
ATOM      2  C   UNL     1      23.305   2.392  51.386  0.00  0.00    +0.000 A 
ATOM      3  N   UNL     1      22.952   3.454  50.711  0.00  0.00    +0.000 NA
ATOM      4  C   UNL     1      23.934   4.275  50.110  0.00  0.00    +0.000 A 
ATOM      5  C   UNL     1      23.505   5.327  49.300  0.00  0.00    +0.000 A 
ATOM      6  C   UNL     1      24.435   6.116  48.623  0.00  0.00    +0.000 A 
ATOM      7  C   UNL     1      25.800   5.856  48.762  0.00  0.00    +0.000 A 
ATOM      8 CL   UNL     1      26.933   6.818  47.894  0.00  0.00    +0.000 Cl
ATOM      9  C   UNL     1      26.252   4.820  49.578  0.00  0.00    +0.000 A 
ATOM     10  C   UNL     1      25.319   4.030  50.251  0.00  0.00    +0.000 A 
ATOM     11  C   UNL     1      25.684   2.896  51.070  0.00  0.00    +0.000 A 
ATOM     12  N   UNL     1      26.844   2.388  51.426  0.00  0.00    +0.000 NA
ATOM     13  C   UNL     1      26.483   1.252  52.132  0.00  0.00    +0.000 A 
ATOM     14  N   UNL     1      25.157   1.047  52.235  0.00  0.00    +0.000 NA
ATOM     15  N   UNL     1      24.679   2.126  51.578  0.00  0.00    +0.000 N 
ATOM     16  H   UNL     1      22.709   0.936  52.670  0.00  0.00    +0.000 HD
ENDROOT
BRANCH  13  17
ATOM     17  C   UNL     1      27.493   0.314  52.712  0.00  0.00    +0.000 A 
ATOM     18  C   UNL     1      27.409  -1.066  52.713  0.00  0.00    +0.000 A 
ATOM     19  C   UNL     1      28.569  -1.550  53.368  0.00  0.00    +0.000 A 
ATOM     20  C   UNL     1      29.287  -0.437  53.738  0.00  0.00    +0.000 A 
ATOM     21  O   UNL     1      28.653   0.693  53.335  0.00  0.00    +0.000 OA
ENDBRANCH  13  17
BRANCH   1  23
ATOM     22  C   UNL     1      20.371   0.060  52.104  0.00  0.00    +0.000 C 
ATOM     23  C   UNL     1      21.037   1.274  51.436  0.00  0.00    +0.000 C 
ATOM     24  C   UNL     1      21.045   1.106  49.912  0.00  0.00    +0.000 C 
ATOM     25  C   UNL     1      20.218   2.524  51.804  0.00  0.00    +0.000 C 
ENDBRANCH   1  23
TORSDOF 2
ENDMDL
MODEL 8
REMARK VINA RESULT:    -7.719      2.917      5.770
REMARK INTER + INTRA:          -8.536
REMARK INTER:                  -8.605
REMARK INTRA:                   0.069
REMARK UNBOUND:                 0.086
REMARK  Name = 
REMARK  5 active torsions:
REMARK  status: ('A' for Active; 'I' for Inactive)
REMARK    1  A    between atoms: C_1  and  C_2
REMARK    2  A    between atoms: C_2  and  C_3
REMARK    3  A    between atoms: C_2  and  C_4
REMARK    4  A    between atoms: C_2  and  N_5
REMARK    5  A    between atoms: C_17  and  C_18
REMARK                            x       y       z     vdW  Elec       q    Type
REMARK                         _______ _______ _______ _____ _____    ______ ____
ROOT
ATOM      1  N   UNL     1      20.099   2.594  49.859  0.00  0.00    +0.000 N 
ATOM      2  C   UNL     1      20.887   1.863  50.727  0.00  0.00    +0.000 A 
ATOM      3  N   UNL     1      20.416   0.965  51.550  0.00  0.00    +0.000 NA
ATOM      4  C   UNL     1      21.271   0.335  52.484  0.00  0.00    +0.000 A 
ATOM      5  C   UNL     1      20.701  -0.525  53.422  0.00  0.00    +0.000 A 
ATOM      6  C   UNL     1      21.491  -1.108  54.413  0.00  0.00    +0.000 A 
ATOM      7  C   UNL     1      22.859  -0.833  54.462  0.00  0.00    +0.000 A 
ATOM      8 CL   UNL     1      23.815  -1.533  55.711  0.00  0.00    +0.000 Cl
ATOM      9  C   UNL     1      23.454   0.013  53.527  0.00  0.00    +0.000 A 
ATOM     10  C   UNL     1      22.659   0.597  52.539  0.00  0.00    +0.000 A 
ATOM     11  C   UNL     1      23.169   1.534  51.563  0.00  0.00    +0.000 A 
ATOM     12  N   UNL     1      24.375   1.995  51.313  0.00  0.00    +0.000 NA
ATOM     13  C   UNL     1      24.150   2.931  50.317  0.00  0.00    +0.000 A 
ATOM     14  N   UNL     1      22.865   3.057  49.937  0.00  0.00    +0.000 NA
ATOM     15  N   UNL     1      22.274   2.132  50.725  0.00  0.00    +0.000 N 
ATOM     16  H   UNL     1      20.536   2.973  49.063  0.00  0.00    +0.000 HD
ENDROOT
BRANCH  13  17
ATOM     17  C   UNL     1      25.250   3.754  49.727  0.00  0.00    +0.000 A 
ATOM     18  C   UNL     1      26.535   3.317  49.461  0.00  0.00    +0.000 A 
ATOM     19  C   UNL     1      27.242   4.418  48.918  0.00  0.00    +0.000 A 
ATOM     20  C   UNL     1      26.353   5.466  48.896  0.00  0.00    +0.000 A 
ATOM     21  O   UNL     1      25.143   5.073  49.370  0.00  0.00    +0.000 OA
ENDBRANCH  13  17
BRANCH   1  23
ATOM     22  C   UNL     1      18.340   3.417  51.419  0.00  0.00    +0.000 C 
ATOM     23  C   UNL     1      18.668   2.852  50.026  0.00  0.00    +0.000 C 
ATOM     24  C   UNL     1      17.881   1.561  49.776  0.00  0.00    +0.000 C 
ATOM     25  C   UNL     1      18.260   3.906  48.981  0.00  0.00    +0.000 C 
ENDBRANCH   1  23
TORSDOF 2
ENDMDL
MODEL 9
REMARK VINA RESULT:    -7.678      3.135      6.100
REMARK INTER + INTRA:          -8.490
REMARK INTER:                  -8.800
REMARK INTRA:                   0.310
REMARK UNBOUND:                 0.086
REMARK  Name = 
REMARK  5 active torsions:
REMARK  status: ('A' for Active; 'I' for Inactive)
REMARK    1  A    between atoms: C_1  and  C_2
REMARK    2  A    between atoms: C_2  and  C_3
REMARK    3  A    between atoms: C_2  and  C_4
REMARK    4  A    between atoms: C_2  and  N_5
REMARK    5  A    between atoms: C_17  and  C_18
REMARK                            x       y       z     vdW  Elec       q    Type
REMARK                         _______ _______ _______ _____ _____    ______ ____
ROOT
ATOM      1  N   UNL     1      25.165   0.276  52.901  0.00  0.00    +0.000 N 
ATOM      2  C   UNL     1      24.774   1.186  51.937  0.00  0.00    +0.000 A 
ATOM      3  N   UNL     1      25.595   2.016  51.350  0.00  0.00    +0.000 NA
ATOM      4  C   UNL     1      25.103   2.991  50.452  0.00  0.00    +0.000 A 
ATOM      5  C   UNL     1      26.000   3.930  49.945  0.00  0.00    +0.000 A 
ATOM      6  C   UNL     1      25.547   4.960  49.119  0.00  0.00    +0.000 A 
ATOM      7  C   UNL     1      24.193   5.046  48.795  0.00  0.00    +0.000 A 
ATOM      8 CL   UNL     1      23.644   6.342  47.802  0.00  0.00    +0.000 Cl
ATOM      9  C   UNL     1      23.279   4.110  49.279  0.00  0.00    +0.000 A 
ATOM     10  C   UNL     1      23.735   3.084  50.108  0.00  0.00    +0.000 A 
ATOM     11  C   UNL     1      22.860   2.102  50.709  0.00  0.00    +0.000 A 
ATOM     12  N   UNL     1      21.567   1.880  50.610  0.00  0.00    +0.000 NA
ATOM     13  C   UNL     1      21.358   0.855  51.519  0.00  0.00    +0.000 A 
ATOM     14  N   UNL     1      22.463   0.432  52.159  0.00  0.00    +0.000 NA
ATOM     15  N   UNL     1      23.403   1.222  51.598  0.00  0.00    +0.000 N 
ATOM     16  H   UNL     1      24.594  -0.514  53.033  0.00  0.00    +0.000 HD
ENDROOT
BRANCH  13  17
ATOM     17  C   UNL     1      20.002   0.282  51.782  0.00  0.00    +0.000 A 
ATOM     18  C   UNL     1      19.601  -0.344  52.948  0.00  0.00    +0.000 A 
ATOM     19  C   UNL     1      18.251  -0.736  52.763  0.00  0.00    +0.000 A 
ATOM     20  C   UNL     1      17.912  -0.337  51.492  0.00  0.00    +0.000 A 
ATOM     21  O   UNL     1      18.957   0.291  50.896  0.00  0.00    +0.000 OA
ENDBRANCH  13  17
BRANCH   1  23
ATOM     22  C   UNL     1      26.136  -0.203  55.144  0.00  0.00    +0.000 C 
ATOM     23  C   UNL     1      26.357   0.392  53.743  0.00  0.00    +0.000 C 
ATOM     24  C   UNL     1      26.769   1.864  53.848  0.00  0.00    +0.000 C 
ATOM     25  C   UNL     1      27.485  -0.405  53.063  0.00  0.00    +0.000 C 
ENDBRANCH   1  23
TORSDOF 2
ENDMDL
