MODEL 1
REMARK VINA RESULT:    -8.270      0.000      0.000
REMARK INTER + INTRA:         -10.103
REMARK INTER:                  -9.720
REMARK INTRA:                  -0.383
REMARK UNBOUND:                -0.383
REMARK  Name = 
REMARK  4 active torsions:
REMARK  status: ('A' for Active; 'I' for Inactive)
REMARK    1  A    between atoms: C_1  and  C_2
REMARK    2  A    between atoms: C_2  and  N_3
REMARK    3  A    between atoms: N_3  and  C_4
REMARK    4  A    between atoms: C_14  and  C_16
REMARK                            x       y       z     vdW  Elec       q    Type
REMARK                         _______ _______ _______ _____ _____    ______ ____
ROOT
ATOM      1  C   UNL     1      20.519   4.362  50.025  0.00  0.00    +0.000 A 
ATOM      2  C   UNL     1      20.015   5.482  49.362  0.00  0.00    +0.000 A 
ATOM      3  C   UNL     1      20.491   6.750  49.675  0.00  0.00    +0.000 A 
ATOM      4  C   UNL     1      21.437   6.866  50.676  0.00  0.00    +0.000 A 
ATOM      5  N   UNL     1      21.929   5.823  51.375  0.00  0.00    +0.000 NA
ATOM      6  C   UNL     1      21.463   4.586  51.076  0.00  0.00    +0.000 A 
ATOM      7  N   UNL     1      22.041   3.484  51.701  0.00  0.00    +0.000 N 
ATOM      8  C   UNL     1      23.363   3.660  52.301  0.00  0.00    +0.000 C 
ATOM      9  C   UNL     1      24.072   2.291  52.258  0.00  0.00    +0.000 C 
ATOM     10  N   UNL     1      23.250   1.187  52.806  0.00  0.00    +0.000 N 
ATOM     11  C   UNL     1      23.755   0.041  53.425  0.00  0.00    +0.000 C 
ATOM     12  O   UNL     1      22.982  -0.804  53.881  0.00  0.00    +0.000 OA
ATOM     13  C   UNL     1      21.828   1.187  52.409  0.00  0.00    +0.000 C 
ATOM     14  C   UNL     1      21.193   2.587  52.502  0.00  0.00    +0.000 C 
ENDROOT
BRANCH  11  15
ATOM     15  C   UNL     1      25.187  -0.128  53.556  0.00  0.00    +0.000 A 
ATOM     16  C   UNL     1      26.103   0.618  54.277  0.00  0.00    +0.000 A 
ATOM     17  C   UNL     1      27.375   0.030  54.073  0.00  0.00    +0.000 A 
ATOM     18  C   UNL     1      28.690   0.308  54.477  0.00  0.00    +0.000 A 
ATOM     19  C   UNL     1      29.720  -0.538  54.042  0.00  0.00    +0.000 A 
ATOM     20  C   UNL     1      29.452  -1.641  53.224  0.00  0.00    +0.000 A 
ATOM     21  C   UNL     1      28.148  -1.937  52.818  0.00  0.00    +0.000 A 
ATOM     22  C   UNL     1      27.151  -1.078  53.264  0.00  0.00    +0.000 A 
ATOM     23  O   UNL     1      25.827  -1.191  52.976  0.00  0.00    +0.000 OA
ENDBRANCH  11  15
BRANCH   1  24
ATOM     24  N   UNL     1      20.091   3.048  49.744  0.00  0.00    +0.000 N 
ATOM     25  H   UNL     1      19.570   2.554  50.418  0.00  0.00    +0.000 HD
BRANCH  24  27
ATOM     26  C   UNL     1      21.531   1.412  48.704  0.00  0.00    +0.000 C 
ATOM     27  C   UNL     1      20.405   2.410  48.478  0.00  0.00    +0.000 C 
ENDBRANCH  24  27
ENDBRANCH   1  24
TORSDOF 3
ENDMDL
MODEL 2
REMARK VINA RESULT:    -8.021      2.132      2.898
REMARK INTER + INTRA:          -9.811
REMARK INTER:                  -9.301
REMARK INTRA:                  -0.510
REMARK UNBOUND:                -0.383
REMARK  Name = 
REMARK  4 active torsions:
REMARK  status: ('A' for Active; 'I' for Inactive)
REMARK    1  A    between atoms: C_1  and  C_2
REMARK    2  A    between atoms: C_2  and  N_3
REMARK    3  A    between atoms: N_3  and  C_4
REMARK    4  A    between atoms: C_14  and  C_16
REMARK                            x       y       z     vdW  Elec       q    Type
REMARK                         _______ _______ _______ _____ _____    ______ ____
ROOT
ATOM      1  C   UNL     1      19.041   1.459  51.154  0.00  0.00    +0.000 A 
ATOM      2  C   UNL     1      18.136   2.161  50.356  0.00  0.00    +0.000 A 
ATOM      3  C   UNL     1      18.369   3.495  50.047  0.00  0.00    +0.000 A 
ATOM      4  C   UNL     1      19.489   4.106  50.581  0.00  0.00    +0.000 A 
ATOM      5  N   UNL     1      20.373   3.487  51.390  0.00  0.00    +0.000 NA
ATOM      6  C   UNL     1      20.145   2.187  51.697  0.00  0.00    +0.000 A 
ATOM      7  N   UNL     1      21.105   1.495  52.432  0.00  0.00    +0.000 N 
ATOM      8  C   UNL     1      22.459   2.046  52.469  0.00  0.00    +0.000 C 
ATOM      9  C   UNL     1      23.431   0.864  52.662  0.00  0.00    +0.000 C 
ATOM     10  N   UNL     1      23.057  -0.024  53.787  0.00  0.00    +0.000 N 
ATOM     11  C   UNL     1      23.957  -0.767  54.555  0.00  0.00    +0.000 C 
ATOM     12  O   UNL     1      23.546  -1.449  55.497  0.00  0.00    +0.000 OA
ATOM     13  C   UNL     1      21.621  -0.347  53.902  0.00  0.00    +0.000 C 
ATOM     14  C   UNL     1      20.725   0.892  53.719  0.00  0.00    +0.000 C 
ENDROOT
BRANCH  11  15
ATOM     15  C   UNL     1      25.373  -0.702  54.260  0.00  0.00    +0.000 A 
ATOM     16  C   UNL     1      26.128  -1.454  53.376  0.00  0.00    +0.000 A 
ATOM     17  C   UNL     1      27.463  -0.988  53.465  0.00  0.00    +0.000 A 
ATOM     18  C   UNL     1      28.691  -1.333  52.881  0.00  0.00    +0.000 A 
ATOM     19  C   UNL     1      29.836  -0.612  53.248  0.00  0.00    +0.000 A 
ATOM     20  C   UNL     1      29.766   0.434  54.174  0.00  0.00    +0.000 A 
ATOM     21  C   UNL     1      28.550   0.797  54.760  0.00  0.00    +0.000 A 
ATOM     22  C   UNL     1      27.435   0.060  54.378  0.00  0.00    +0.000 A 
ATOM     23  O   UNL     1      26.170   0.253  54.836  0.00  0.00    +0.000 OA
ENDBRANCH  11  15
BRANCH   1  24
ATOM     24  N   UNL     1      18.871   0.099  51.491  0.00  0.00    +0.000 N 
ATOM     25  H   UNL     1      19.630  -0.521  51.394  0.00  0.00    +0.000 HD
BRANCH  24  27
ATOM     26  C   UNL     1      17.865  -1.410  53.084  0.00  0.00    +0.000 C 
ATOM     27  C   UNL     1      17.598  -0.402  51.978  0.00  0.00    +0.000 C 
ENDBRANCH  24  27
ENDBRANCH   1  24
TORSDOF 3
ENDMDL
MODEL 3
REMARK VINA RESULT:    -7.730      3.181      7.942
REMARK INTER + INTRA:          -9.469
REMARK INTER:                  -9.209
REMARK INTRA:                  -0.261
REMARK UNBOUND:                -0.383
REMARK  Name = 
REMARK  4 active torsions:
REMARK  status: ('A' for Active; 'I' for Inactive)
REMARK    1  A    between atoms: C_1  and  C_2
REMARK    2  A    between atoms: C_2  and  N_3
REMARK    3  A    between atoms: N_3  and  C_4
REMARK    4  A    between atoms: C_14  and  C_16
REMARK                            x       y       z     vdW  Elec       q    Type
REMARK                         _______ _______ _______ _____ _____    ______ ____
ROOT
ATOM      1  C   UNL     1      27.067   1.977  52.635  0.00  0.00    +0.000 A 
ATOM      2  C   UNL     1      28.342   1.515  52.968  0.00  0.00    +0.000 A 
ATOM      3  C   UNL     1      28.494   0.521  53.927  0.00  0.00    +0.000 A 
ATOM      4  C   UNL     1      27.362   0.041  54.559  0.00  0.00    +0.000 A 
ATOM      5  N   UNL     1      26.112   0.480  54.305  0.00  0.00    +0.000 NA
ATOM      6  C   UNL     1      25.961   1.453  53.374  0.00  0.00    +0.000 A 
ATOM      7  N   UNL     1      24.673   1.837  53.011  0.00  0.00    +0.000 N 
ATOM      8  C   UNL     1      23.578   0.915  53.313  0.00  0.00    +0.000 C 
ATOM      9  C   UNL     1      22.477   1.150  52.259  0.00  0.00    +0.000 C 
ATOM     10  N   UNL     1      22.105   2.575  52.107  0.00  0.00    +0.000 N 
ATOM     11  C   UNL     1      20.843   3.038  51.724  0.00  0.00    +0.000 C 
ATOM     12  O   UNL     1      20.625   4.250  51.663  0.00  0.00    +0.000 OA
ATOM     13  C   UNL     1      23.227   3.534  52.087  0.00  0.00    +0.000 C 
ATOM     14  C   UNL     1      24.268   3.242  53.184  0.00  0.00    +0.000 C 
ENDROOT
BRANCH  11  15
ATOM     15  C   UNL     1      19.790   2.088  51.437  0.00  0.00    +0.000 A 
ATOM     16  C   UNL     1      19.115   1.845  50.253  0.00  0.00    +0.000 A 
ATOM     17  C   UNL     1      18.181   0.811  50.507  0.00  0.00    +0.000 A 
ATOM     18  C   UNL     1      17.196   0.140  49.767  0.00  0.00    +0.000 A 
ATOM     19  C   UNL     1      16.443  -0.858  50.401  0.00  0.00    +0.000 A 
ATOM     20  C   UNL     1      16.664  -1.188  51.743  0.00  0.00    +0.000 A 
ATOM     21  C   UNL     1      17.646  -0.535  52.493  0.00  0.00    +0.000 A 
ATOM     22  C   UNL     1      18.372   0.451  51.836  0.00  0.00    +0.000 A 
ATOM     23  O   UNL     1      19.362   1.200  52.390  0.00  0.00    +0.000 OA
ENDBRANCH  11  15
BRANCH   1  24
ATOM     24  N   UNL     1      26.843   2.971  51.659  0.00  0.00    +0.000 N 
ATOM     25  H   UNL     1      26.872   3.920  51.919  0.00  0.00    +0.000 HD
BRANCH  24  27
ATOM     26  C   UNL     1      26.573   3.891  49.443  0.00  0.00    +0.000 C 
ATOM     27  C   UNL     1      26.571   2.619  50.277  0.00  0.00    +0.000 C 
ENDBRANCH  24  27
ENDBRANCH   1  24
TORSDOF 3
ENDMDL
MODEL 4
REMARK VINA RESULT:    -7.701      4.070      7.034
REMARK INTER + INTRA:          -9.436
REMARK INTER:                  -8.999
REMARK INTRA:                  -0.437
REMARK UNBOUND:                -0.383
REMARK  Name = 
REMARK  4 active torsions:
REMARK  status: ('A' for Active; 'I' for Inactive)
REMARK    1  A    between atoms: C_1  and  C_2
REMARK    2  A    between atoms: C_2  and  N_3
REMARK    3  A    between atoms: N_3  and  C_4
REMARK    4  A    between atoms: C_14  and  C_16
REMARK                            x       y       z     vdW  Elec       q    Type
REMARK                         _______ _______ _______ _____ _____    ______ ____
ROOT
ATOM      1  C   UNL     1      22.004   0.192  53.774  0.00  0.00    +0.000 A 
ATOM      2  C   UNL     1      21.889  -0.714  54.830  0.00  0.00    +0.000 A 
ATOM      3  C   UNL     1      23.026  -1.301  55.371  0.00  0.00    +0.000 A 
ATOM      4  C   UNL     1      24.253  -0.992  54.812  0.00  0.00    +0.000 A 
ATOM      5  N   UNL     1      24.417  -0.156  53.767  0.00  0.00    +0.000 NA
ATOM      6  C   UNL     1      23.310   0.413  53.233  0.00  0.00    +0.000 A 
ATOM      7  N   UNL     1      23.465   1.369  52.233  0.00  0.00    +0.000 N 
ATOM      8  C   UNL     1      24.772   2.013  52.106  0.00  0.00    +0.000 C 
ATOM      9  C   UNL     1      24.536   3.422  51.524  0.00  0.00    +0.000 C 
ATOM     10  N   UNL     1      23.689   3.420  50.308  0.00  0.00    +0.000 N 
ATOM     11  C   UNL     1      23.769   4.355  49.274  0.00  0.00    +0.000 C 
ATOM     12  O   UNL     1      23.041   4.243  48.285  0.00  0.00    +0.000 OA
ATOM     13  C   UNL     1      22.508   2.534  50.349  0.00  0.00    +0.000 C 
ATOM     14  C   UNL     1      22.838   1.143  50.921  0.00  0.00    +0.000 C 
ENDROOT
BRANCH  11  15
ATOM     15  C   UNL     1      24.733   5.432  49.357  0.00  0.00    +0.000 A 
ATOM     16  C   UNL     1      24.688   6.605  50.091  0.00  0.00    +0.000 A 
ATOM     17  C   UNL     1      25.884   7.314  49.820  0.00  0.00    +0.000 A 
ATOM     18  C   UNL     1      26.431   8.549  50.202  0.00  0.00    +0.000 A 
ATOM     19  C   UNL     1      27.686   8.913  49.695  0.00  0.00    +0.000 A 
ATOM     20  C   UNL     1      28.388   8.069  48.827  0.00  0.00    +0.000 A 
ATOM     21  C   UNL     1      27.861   6.833  48.442  0.00  0.00    +0.000 A 
ATOM     22  C   UNL     1      26.615   6.503  48.960  0.00  0.00    +0.000 A 
ATOM     23  O   UNL     1      25.935   5.355  48.703  0.00  0.00    +0.000 OA
ENDBRANCH  11  15
BRANCH   1  24
ATOM     24  N   UNL     1      20.892   0.835  53.191  0.00  0.00    +0.000 N 
ATOM     25  H   UNL     1      20.949   1.792  52.966  0.00  0.00    +0.000 HD
BRANCH  24  27
ATOM     26  C   UNL     1      19.344   0.242  51.435  0.00  0.00    +0.000 C 
ATOM     27  C   UNL     1      19.664   0.110  52.916  0.00  0.00    +0.000 C 
ENDBRANCH  24  27
ENDBRANCH   1  24
TORSDOF 3
ENDMDL
MODEL 5
REMARK VINA RESULT:    -7.555      2.437      2.639
REMARK INTER + INTRA:          -9.264
REMARK INTER:                  -8.989
REMARK INTRA:                  -0.275
REMARK UNBOUND:                -0.383
REMARK  Name = 
REMARK  4 active torsions:
REMARK  status: ('A' for Active; 'I' for Inactive)
REMARK    1  A    between atoms: C_1  and  C_2
REMARK    2  A    between atoms: C_2  and  N_3
REMARK    3  A    between atoms: N_3  and  C_4
REMARK    4  A    between atoms: C_14  and  C_16
REMARK                            x       y       z     vdW  Elec       q    Type
REMARK                         _______ _______ _______ _____ _____    ______ ____
ROOT
ATOM      1  C   UNL     1      23.070   5.446  47.861  0.00  0.00    +0.000 A 
ATOM      2  C   UNL     1      23.005   6.450  46.893  0.00  0.00    +0.000 A 
ATOM      3  C   UNL     1      23.939   7.479  46.893  0.00  0.00    +0.000 A 
ATOM      4  C   UNL     1      24.895   7.497  47.891  0.00  0.00    +0.000 A 
ATOM      5  N   UNL     1      24.979   6.576  48.873  0.00  0.00    +0.000 NA
ATOM      6  C   UNL     1      24.066   5.574  48.879  0.00  0.00    +0.000 A 
ATOM      7  N   UNL     1      24.204   4.549  49.811  0.00  0.00    +0.000 N 
ATOM      8  C   UNL     1      25.515   4.370  50.434  0.00  0.00    +0.000 C 
ATOM      9  C   UNL     1      25.648   2.878  50.803  0.00  0.00    +0.000 C 
ATOM     10  N   UNL     1      24.489   2.357  51.563  0.00  0.00    +0.000 N 
ATOM     11  C   UNL     1      24.542   1.318  52.496  0.00  0.00    +0.000 C 
ATOM     12  O   UNL     1      23.523   0.983  53.104  0.00  0.00    +0.000 OA
ATOM     13  C   UNL     1      23.160   2.784  51.082  0.00  0.00    +0.000 C 
ATOM     14  C   UNL     1      23.109   4.288  50.759  0.00  0.00    +0.000 C 
ENDROOT
BRANCH  11  15
ATOM     15  C   UNL     1      25.806   0.665  52.767  0.00  0.00    +0.000 A 
ATOM     16  C   UNL     1      26.979   1.189  53.285  0.00  0.00    +0.000 A 
ATOM     17  C   UNL     1      27.915   0.128  53.354  0.00  0.00    +0.000 A 
ATOM     18  C   UNL     1      29.258  -0.007  53.740  0.00  0.00    +0.000 A 
ATOM     19  C   UNL     1      29.858  -1.270  53.652  0.00  0.00    +0.000 A 
ATOM     20  C   UNL     1      29.142  -2.381  53.195  0.00  0.00    +0.000 A 
ATOM     21  C   UNL     1      27.802  -2.267  52.813  0.00  0.00    +0.000 A 
ATOM     22  C   UNL     1      27.238  -1.001  52.909  0.00  0.00    +0.000 A 
ATOM     23  O   UNL     1      25.957  -0.684  52.582  0.00  0.00    +0.000 OA
ENDBRANCH  11  15
BRANCH   1  24
ATOM     24  N   UNL     1      22.163   4.366  47.907  0.00  0.00    +0.000 N 
ATOM     25  H   UNL     1      22.488   3.473  48.165  0.00  0.00    +0.000 HD
BRANCH  24  27
ATOM     26  C   UNL     1      19.935   4.303  48.836  0.00  0.00    +0.000 C 
ATOM     27  C   UNL     1      20.760   4.548  47.581  0.00  0.00    +0.000 C 
ENDBRANCH  24  27
ENDBRANCH   1  24
TORSDOF 3
ENDMDL
MODEL 6
REMARK VINA RESULT:    -7.294      2.687      4.010
REMARK INTER + INTRA:          -8.956
REMARK INTER:                  -8.775
REMARK INTRA:                  -0.182
REMARK UNBOUND:                -0.383
REMARK  Name = 
REMARK  4 active torsions:
REMARK  status: ('A' for Active; 'I' for Inactive)
REMARK    1  A    between atoms: C_1  and  C_2
REMARK    2  A    between atoms: C_2  and  N_3
REMARK    3  A    between atoms: N_3  and  C_4
REMARK    4  A    between atoms: C_14  and  C_16
REMARK                            x       y       z     vdW  Elec       q    Type
REMARK                         _______ _______ _______ _____ _____    ______ ____
ROOT
ATOM      1  C   UNL     1      18.522   2.362  51.353  0.00  0.00    +0.000 A 
ATOM      2  C   UNL     1      17.177   2.068  51.581  0.00  0.00    +0.000 A 
ATOM      3  C   UNL     1      16.771   0.749  51.748  0.00  0.00    +0.000 A 
ATOM      4  C   UNL     1      17.722  -0.248  51.644  0.00  0.00    +0.000 A 
ATOM      5  N   UNL     1      19.027  -0.023  51.385  0.00  0.00    +0.000 NA
ATOM      6  C   UNL     1      19.424   1.262  51.216  0.00  0.00    +0.000 A 
ATOM      7  N   UNL     1      20.783   1.527  51.067  0.00  0.00    +0.000 N 
ATOM      8  C   UNL     1      21.728   0.504  51.514  0.00  0.00    +0.000 C 
ATOM      9  C   UNL     1      23.025   1.227  51.930  0.00  0.00    +0.000 C 
ATOM     10  N   UNL     1      23.525   2.172  50.904  0.00  0.00    +0.000 N 
ATOM     11  C   UNL     1      24.867   2.507  50.708  0.00  0.00    +0.000 C 
ATOM     12  O   UNL     1      25.182   3.278  49.799  0.00  0.00    +0.000 OA
ATOM     13  C   UNL     1      22.501   3.012  50.252  0.00  0.00    +0.000 C 
ATOM     14  C   UNL     1      21.252   2.208  49.849  0.00  0.00    +0.000 C 
ENDROOT
BRANCH  11  15
ATOM     15  C   UNL     1      25.882   1.915  51.554  0.00  0.00    +0.000 A 
ATOM     16  C   UNL     1      26.150   0.582  51.815  0.00  0.00    +0.000 A 
ATOM     17  C   UNL     1      27.250   0.543  52.706  0.00  0.00    +0.000 A 
ATOM     18  C   UNL     1      27.974  -0.460  53.369  0.00  0.00    +0.000 A 
ATOM     19  C   UNL     1      29.032  -0.082  54.207  0.00  0.00    +0.000 A 
ATOM     20  C   UNL     1      29.369   1.264  54.384  0.00  0.00    +0.000 A 
ATOM     21  C   UNL     1      28.663   2.276  53.727  0.00  0.00    +0.000 A 
ATOM     22  C   UNL     1      27.619   1.868  52.906  0.00  0.00    +0.000 A 
ATOM     23  O   UNL     1      26.813   2.695  52.188  0.00  0.00    +0.000 OA
ENDBRANCH  11  15
BRANCH   1  24
ATOM     24  N   UNL     1      19.002   3.679  51.192  0.00  0.00    +0.000 N 
ATOM     25  H   UNL     1      19.734   4.001  51.767  0.00  0.00    +0.000 HD
BRANCH  24  27
ATOM     26  C   UNL     1      19.507   5.557  49.761  0.00  0.00    +0.000 C 
ATOM     27  C   UNL     1      18.435   4.569  50.194  0.00  0.00    +0.000 C 
ENDBRANCH  24  27
ENDBRANCH   1  24
TORSDOF 3
ENDMDL
MODEL 7
REMARK VINA RESULT:    -7.052      3.783      5.527
REMARK INTER + INTRA:          -8.672
REMARK INTER:                  -8.431
REMARK INTRA:                  -0.241
REMARK UNBOUND:                -0.383
REMARK  Name = 
REMARK  4 active torsions:
REMARK  status: ('A' for Active; 'I' for Inactive)
REMARK    1  A    between atoms: C_1  and  C_2
REMARK    2  A    between atoms: C_2  and  N_3
REMARK    3  A    between atoms: N_3  and  C_4
REMARK    4  A    between atoms: C_14  and  C_16
REMARK                            x       y       z     vdW  Elec       q    Type
REMARK                         _______ _______ _______ _____ _____    ______ ____
ROOT
ATOM      1  C   UNL     1      17.635   1.339  51.398  0.00  0.00    +0.000 A 
ATOM      2  C   UNL     1      16.252   1.346  51.207  0.00  0.00    +0.000 A 
ATOM      3  C   UNL     1      15.569   2.552  51.105  0.00  0.00    +0.000 A 
ATOM      4  C   UNL     1      16.287   3.726  51.236  0.00  0.00    +0.000 A 
ATOM      5  N   UNL     1      17.616   3.776  51.461  0.00  0.00    +0.000 NA
ATOM      6  C   UNL     1      18.284   2.602  51.567  0.00  0.00    +0.000 A 
ATOM      7  N   UNL     1      19.672   2.630  51.680  0.00  0.00    +0.000 N 
ATOM      8  C   UNL     1      20.363   3.849  51.261  0.00  0.00    +0.000 C 
ATOM      9  C   UNL     1      21.773   3.437  50.791  0.00  0.00    +0.000 C 
ATOM     10  N   UNL     1      22.491   2.583  51.765  0.00  0.00    +0.000 N 
ATOM     11  C   UNL     1      23.878   2.538  51.923  0.00  0.00    +0.000 C 
ATOM     12  O   UNL     1      24.376   1.818  52.791  0.00  0.00    +0.000 OA
ATOM     13  C   UNL     1      21.689   1.518  52.399  0.00  0.00    +0.000 C 
ATOM     14  C   UNL     1      20.308   2.019  52.859  0.00  0.00    +0.000 C 
ENDROOT
BRANCH  11  15
ATOM     15  C   UNL     1      24.721   3.366  51.086  0.00  0.00    +0.000 A 
ATOM     16  C   UNL     1      25.764   3.007  50.250  0.00  0.00    +0.000 A 
ATOM     17  C   UNL     1      26.253   4.196  49.655  0.00  0.00    +0.000 A 
ATOM     18  C   UNL     1      27.288   4.527  48.768  0.00  0.00    +0.000 A 
ATOM     19  C   UNL     1      27.464   5.871  48.412  0.00  0.00    +0.000 A 
ATOM     20  C   UNL     1      26.628   6.870  48.922  0.00  0.00    +0.000 A 
ATOM     21  C   UNL     1      25.587   6.558  49.802  0.00  0.00    +0.000 A 
ATOM     22  C   UNL     1      25.442   5.217  50.137  0.00  0.00    +0.000 A 
ATOM     23  O   UNL     1      24.499   4.714  50.977  0.00  0.00    +0.000 OA
ENDBRANCH  11  15
BRANCH   1  24
ATOM     24  N   UNL     1      18.390   0.151  51.493  0.00  0.00    +0.000 N 
ATOM     25  H   UNL     1      19.300   0.125  51.119  0.00  0.00    +0.000 HD
BRANCH  24  27
ATOM     26  C   UNL     1      18.492  -1.183  53.503  0.00  0.00    +0.000 C 
ATOM     27  C   UNL     1      17.848  -1.034  52.133  0.00  0.00    +0.000 C 
ENDBRANCH  24  27
ENDBRANCH   1  24
TORSDOF 3
ENDMDL
MODEL 8
REMARK VINA RESULT:    -6.954      3.463      4.793
REMARK INTER + INTRA:          -8.557
REMARK INTER:                  -8.286
REMARK INTRA:                  -0.271
REMARK UNBOUND:                -0.383
REMARK  Name = 
REMARK  4 active torsions:
REMARK  status: ('A' for Active; 'I' for Inactive)
REMARK    1  A    between atoms: C_1  and  C_2
REMARK    2  A    between atoms: C_2  and  N_3
REMARK    3  A    between atoms: N_3  and  C_4
REMARK    4  A    between atoms: C_14  and  C_16
REMARK                            x       y       z     vdW  Elec       q    Type
REMARK                         _______ _______ _______ _____ _____    ______ ____
ROOT
ATOM      1  C   UNL     1      16.744   1.845  51.654  0.00  0.00    +0.000 A 
ATOM      2  C   UNL     1      15.456   1.308  51.678  0.00  0.00    +0.000 A 
ATOM      3  C   UNL     1      15.250  -0.022  51.332  0.00  0.00    +0.000 A 
ATOM      4  C   UNL     1      16.340  -0.772  50.931  0.00  0.00    +0.000 A 
ATOM      5  N   UNL     1      17.598  -0.293  50.851  0.00  0.00    +0.000 NA
ATOM      6  C   UNL     1      17.801   1.005  51.183  0.00  0.00    +0.000 A 
ATOM      7  N   UNL     1      19.107   1.489  51.221  0.00  0.00    +0.000 N 
ATOM      8  C   UNL     1      20.190   0.512  51.324  0.00  0.00    +0.000 C 
ATOM      9  C   UNL     1      21.362   1.202  52.051  0.00  0.00    +0.000 C 
ATOM     10  N   UNL     1      21.723   2.515  51.469  0.00  0.00    +0.000 N 
ATOM     11  C   UNL     1      23.001   3.078  51.488  0.00  0.00    +0.000 C 
ATOM     12  O   UNL     1      23.204   4.164  50.941  0.00  0.00    +0.000 OA
ATOM     13  C   UNL     1      20.590   3.389  51.104  0.00  0.00    +0.000 C 
ATOM     14  C   UNL     1      19.476   2.626  50.363  0.00  0.00    +0.000 C 
ENDROOT
BRANCH  11  15
ATOM     15  C   UNL     1      24.088   2.361  52.123  0.00  0.00    +0.000 A 
ATOM     16  C   UNL     1      24.657   2.542  53.372  0.00  0.00    +0.000 A 
ATOM     17  C   UNL     1      25.685   1.576  53.507  0.00  0.00    +0.000 A 
ATOM     18  C   UNL     1      26.638   1.250  54.483  0.00  0.00    +0.000 A 
ATOM     19  C   UNL     1      27.522   0.191  54.233  0.00  0.00    +0.000 A 
ATOM     20  C   UNL     1      27.460  -0.535  53.038  0.00  0.00    +0.000 A 
ATOM     21  C   UNL     1      26.512  -0.229  52.058  0.00  0.00    +0.000 A 
ATOM     22  C   UNL     1      25.653   0.828  52.335  0.00  0.00    +0.000 A 
ATOM     23  O   UNL     1      24.672   1.282  51.512  0.00  0.00    +0.000 OA
ENDBRANCH  11  15
BRANCH   1  24
ATOM     24  N   UNL     1      17.024   3.181  52.009  0.00  0.00    +0.000 N 
ATOM     25  H   UNL     1      17.920   3.416  52.344  0.00  0.00    +0.000 HD
BRANCH  24  27
ATOM     26  C   UNL     1      15.246   4.300  53.201  0.00  0.00    +0.000 C 
ATOM     27  C   UNL     1      16.014   4.218  51.890  0.00  0.00    +0.000 C 
ENDBRANCH  24  27
ENDBRANCH   1  24
TORSDOF 3
ENDMDL
MODEL 9
REMARK VINA RESULT:    -6.869      4.676      8.015
REMARK INTER + INTRA:          -8.457
REMARK INTER:                  -8.129
REMARK INTRA:                  -0.328
REMARK UNBOUND:                -0.383
REMARK  Name = 
REMARK  4 active torsions:
REMARK  status: ('A' for Active; 'I' for Inactive)
REMARK    1  A    between atoms: C_1  and  C_2
REMARK    2  A    between atoms: C_2  and  N_3
REMARK    3  A    between atoms: N_3  and  C_4
REMARK    4  A    between atoms: C_14  and  C_16
REMARK                            x       y       z     vdW  Elec       q    Type
REMARK                         _______ _______ _______ _____ _____    ______ ____
ROOT
ATOM      1  C   UNL     1      24.187   0.831  52.873  0.00  0.00    +0.000 A 
ATOM      2  C   UNL     1      24.465  -0.256  53.703  0.00  0.00    +0.000 A 
ATOM      3  C   UNL     1      25.675  -0.930  53.586  0.00  0.00    +0.000 A 
ATOM      4  C   UNL     1      26.563  -0.518  52.609  0.00  0.00    +0.000 A 
ATOM      5  N   UNL     1      26.328   0.499  51.756  0.00  0.00    +0.000 NA
ATOM      6  C   UNL     1      25.147   1.155  51.864  0.00  0.00    +0.000 A 
ATOM      7  N   UNL     1      24.932   2.282  51.075  0.00  0.00    +0.000 N 
ATOM      8  C   UNL     1      26.104   2.942  50.502  0.00  0.00    +0.000 C 
ATOM      9  C   UNL     1      25.752   4.434  50.330  0.00  0.00    +0.000 C 
ATOM     10  N   UNL     1      24.469   4.656  49.625  0.00  0.00    +0.000 N 
ATOM     11  C   UNL     1      24.169   5.769  48.835  0.00  0.00    +0.000 C 
ATOM     12  O   UNL     1      23.082   5.841  48.259  0.00  0.00    +0.000 OA
ATOM     13  C   UNL     1      23.354   3.775  50.025  0.00  0.00    +0.000 C 
ATOM     14  C   UNL     1      23.787   2.303  50.151  0.00  0.00    +0.000 C 
ENDROOT
BRANCH  11  15
ATOM     15  C   UNL     1      25.157   6.815  48.671  0.00  0.00    +0.000 A 
ATOM     16  C   UNL     1      25.663   7.381  47.513  0.00  0.00    +0.000 A 
ATOM     17  C   UNL     1      26.602   8.367  47.904  0.00  0.00    +0.000 A 
ATOM     18  C   UNL     1      27.467   9.252  47.244  0.00  0.00    +0.000 A 
ATOM     19  C   UNL     1      28.278  10.098  48.013  0.00  0.00    +0.000 A 
ATOM     20  C   UNL     1      28.230  10.071  49.411  0.00  0.00    +0.000 A 
ATOM     21  C   UNL     1      27.369   9.201  50.085  0.00  0.00    +0.000 A 
ATOM     22  C   UNL     1      26.582   8.373  49.294  0.00  0.00    +0.000 A 
ATOM     23  O   UNL     1      25.689   7.459  49.757  0.00  0.00    +0.000 OA
ENDBRANCH  11  15
BRANCH   1  24
ATOM     24  N   UNL     1      22.986   1.568  52.952  0.00  0.00    +0.000 N 
ATOM     25  H   UNL     1      23.009   2.545  52.833  0.00  0.00    +0.000 HD
BRANCH  24  27
ATOM     26  C   UNL     1      21.215   0.304  51.905  0.00  0.00    +0.000 C 
ATOM     27  C   UNL     1      21.716   0.910  53.207  0.00  0.00    +0.000 C 
ENDBRANCH  24  27
ENDBRANCH   1  24
TORSDOF 3
ENDMDL
