MODEL 1
REMARK VINA RESULT:    -8.500      0.000      0.000
REMARK INTER + INTRA:         -13.097
REMARK INTER:                 -11.978
REMARK INTRA:                  -1.119
REMARK UNBOUND:                -1.119
REMARK  Name = 
REMARK  10 active torsions:
REMARK  status: ('A' for Active; 'I' for Inactive)
REMARK    1  A    between atoms: C_1  and  C_2
REMARK    2  A    between atoms: C_2  and  C_3
REMARK    3  A    between atoms: C_4  and  C_5
REMARK    4  A    between atoms: C_5  and  C_6
REMARK    5  A    between atoms: C_6  and  O_7
REMARK    6  A    between atoms: C_6  and  C_14
REMARK    7  A    between atoms: O_7  and  C_8
REMARK    8  A    between atoms: C_8  and  C_10
REMARK    9  A    between atoms: C_19  and  O_20
REMARK   10  A    between atoms: C_23  and  O_24
REMARK                            x       y       z     vdW  Elec       q    Type
REMARK                         _______ _______ _______ _____ _____    ______ ____
ROOT
ATOM      1  C   UNL     1      25.913   1.182  52.490  0.00  0.00    +0.000 C 
ATOM      2  C   UNL     1      25.602  -0.077  52.147  0.00  0.00    +0.000 C 
ATOM      3  C   UNL     1      26.482  -1.215  52.443  0.00  0.00    +0.000 C 
ATOM      4  O   UNL     1      26.125  -2.361  52.191  0.00  0.00    +0.000 OA
ATOM      5  C   UNL     1      27.816  -0.945  53.000  0.00  0.00    +0.000 A 
ATOM      6  C   UNL     1      28.734  -1.992  53.157  0.00  0.00    +0.000 A 
ATOM      7  C   UNL     1      30.011  -1.747  53.652  0.00  0.00    +0.000 A 
ATOM      8  C   UNL     1      30.389  -0.446  53.978  0.00  0.00    +0.000 A 
ATOM      9  C   UNL     1      29.477   0.601  53.826  0.00  0.00    +0.000 A 
ATOM     10  C   UNL     1      28.173   0.359  53.357  0.00  0.00    +0.000 A 
ATOM     11  C   UNL     1      27.165   1.441  53.260  0.00  0.00    +0.000 C 
ATOM     12  O   UNL     1      27.306   2.527  53.811  0.00  0.00    +0.000 OA
ENDROOT
BRANCH   6  13
ATOM     13  O   UNL     1      28.452  -3.295  52.842  0.00  0.00    +0.000 OA
ATOM     14  H   UNL     1      29.145  -3.882  52.611  0.00  0.00    +0.000 HD
ENDBRANCH   6  13
BRANCH   9  15
ATOM     15  O   UNL     1      29.894   1.870  54.106  0.00  0.00    +0.000 OA
ATOM     16  H   UNL     1      29.355   2.602  53.879  0.00  0.00    +0.000 HD
ENDBRANCH   9  15
BRANCH   1  17
ATOM     17  C   UNL     1      25.066   2.407  52.183  0.00  0.00    +0.000 C 
BRANCH  17  18
ATOM     18  C   UNL     1      24.953   2.678  50.663  0.00  0.00    +0.000 C 
BRANCH  18  22
ATOM     19  C   UNL     1      25.131   5.343  49.125  0.00  0.00    +0.000 C 
ATOM     20  C   UNL     1      26.294   4.414  49.351  0.00  0.00    +0.000 C 
ATOM     21  C   UNL     1      27.602   4.798  48.715  0.00  0.00    +0.000 C 
ATOM     22  C   UNL     1      26.204   3.266  50.049  0.00  0.00    +0.000 C 
ENDBRANCH  18  22
ENDBRANCH  17  18
BRANCH  17  23
ATOM     23  O   UNL     1      23.740   2.203  52.740  0.00  0.00    +0.000 OA
BRANCH  23  24
ATOM     24  C   UNL     1      22.751   3.066  52.376  0.00  0.00    +0.000 C 
ATOM     25  O   UNL     1      22.798   4.271  52.615  0.00  0.00    +0.000 OA
BRANCH  24  26
ATOM     26  C   UNL     1      21.592   2.367  51.642  0.00  0.00    +0.000 C 
ATOM     27 CL   UNL     1      21.896   0.628  51.359  0.00  0.00    +0.000 Cl
ATOM     28 CL   UNL     1      20.119   2.538  52.638  0.00  0.00    +0.000 Cl
ATOM     29 CL   UNL     1      21.360   3.172  50.066  0.00  0.00    +0.000 Cl
ENDBRANCH  24  26
ENDBRANCH  23  24
ENDBRANCH  17  23
ENDBRANCH   1  17
TORSDOF 8
ENDMDL
MODEL 2
REMARK VINA RESULT:    -8.394      1.655      2.146
REMARK INTER + INTRA:         -12.948
REMARK INTER:                 -11.883
REMARK INTRA:                  -1.065
REMARK UNBOUND:                -1.119
REMARK  Name = 
REMARK  10 active torsions:
REMARK  status: ('A' for Active; 'I' for Inactive)
REMARK    1  A    between atoms: C_1  and  C_2
REMARK    2  A    between atoms: C_2  and  C_3
REMARK    3  A    between atoms: C_4  and  C_5
REMARK    4  A    between atoms: C_5  and  C_6
REMARK    5  A    between atoms: C_6  and  O_7
REMARK    6  A    between atoms: C_6  and  C_14
REMARK    7  A    between atoms: O_7  and  C_8
REMARK    8  A    between atoms: C_8  and  C_10
REMARK    9  A    between atoms: C_19  and  O_20
REMARK   10  A    between atoms: C_23  and  O_24
REMARK                            x       y       z     vdW  Elec       q    Type
REMARK                         _______ _______ _______ _____ _____    ______ ____
ROOT
ATOM      1  C   UNL     1      25.194   0.589  52.880  0.00  0.00    +0.000 C 
ATOM      2  C   UNL     1      25.337  -0.693  52.511  0.00  0.00    +0.000 C 
ATOM      3  C   UNL     1      26.586  -1.438  52.717  0.00  0.00    +0.000 C 
ATOM      4  O   UNL     1      26.652  -2.632  52.444  0.00  0.00    +0.000 OA
ATOM      5  C   UNL     1      27.765  -0.710  53.208  0.00  0.00    +0.000 A 
ATOM      6  C   UNL     1      29.007  -1.354  53.276  0.00  0.00    +0.000 A 
ATOM      7  C   UNL     1      30.139  -0.670  53.708  0.00  0.00    +0.000 A 
ATOM      8  C   UNL     1      30.043   0.676  54.058  0.00  0.00    +0.000 A 
ATOM      9  C   UNL     1      28.806   1.322  53.994  0.00  0.00    +0.000 A 
ATOM     10  C   UNL     1      27.650   0.631  53.590  0.00  0.00    +0.000 A 
ATOM     11  C   UNL     1      26.315   1.275  53.587  0.00  0.00    +0.000 C 
ATOM     12  O   UNL     1      26.091   2.330  54.168  0.00  0.00    +0.000 OA
ENDROOT
BRANCH   6  13
ATOM     13  O   UNL     1      29.196  -2.667  52.932  0.00  0.00    +0.000 OA
ATOM     14  H   UNL     1      28.611  -3.325  53.253  0.00  0.00    +0.000 HD
ENDBRANCH   6  13
BRANCH   9  15
ATOM     15  O   UNL     1      28.754   2.653  54.295  0.00  0.00    +0.000 OA
ATOM     16  H   UNL     1      28.062   2.985  54.833  0.00  0.00    +0.000 HD
ENDBRANCH   9  15
BRANCH   1  17
ATOM     17  C   UNL     1      23.944   1.427  52.664  0.00  0.00    +0.000 C 
BRANCH  17  18
ATOM     18  C   UNL     1      24.155   2.539  51.608  0.00  0.00    +0.000 C 
BRANCH  18  22
ATOM     19  C   UNL     1      24.163   4.409  49.159  0.00  0.00    +0.000 C 
ATOM     20  C   UNL     1      23.429   3.096  49.222  0.00  0.00    +0.000 C 
ATOM     21  C   UNL     1      22.593   2.727  48.027  0.00  0.00    +0.000 C 
ATOM     22  C   UNL     1      23.458   2.278  50.292  0.00  0.00    +0.000 C 
ENDBRANCH  18  22
ENDBRANCH  17  18
BRANCH  17  23
ATOM     23  O   UNL     1      22.868   0.549  52.238  0.00  0.00    +0.000 OA
BRANCH  23  24
ATOM     24  C   UNL     1      21.796   0.399  53.066  0.00  0.00    +0.000 C 
ATOM     25  O   UNL     1      21.908   0.068  54.246  0.00  0.00    +0.000 OA
BRANCH  24  26
ATOM     26  C   UNL     1      20.457   0.688  52.365  0.00  0.00    +0.000 C 
ATOM     27 CL   UNL     1      19.114  -0.314  52.990  0.00  0.00    +0.000 Cl
ATOM     28 CL   UNL     1      20.056   2.410  52.619  0.00  0.00    +0.000 Cl
ATOM     29 CL   UNL     1      20.654   0.357  50.622  0.00  0.00    +0.000 Cl
ENDBRANCH  24  26
ENDBRANCH  23  24
ENDBRANCH  17  23
ENDBRANCH   1  17
TORSDOF 8
ENDMDL
MODEL 3
REMARK VINA RESULT:    -8.084      3.815      7.158
REMARK INTER + INTRA:         -12.512
REMARK INTER:                 -11.010
REMARK INTRA:                  -1.501
REMARK UNBOUND:                -1.119
REMARK  Name = 
REMARK  10 active torsions:
REMARK  status: ('A' for Active; 'I' for Inactive)
REMARK    1  A    between atoms: C_1  and  C_2
REMARK    2  A    between atoms: C_2  and  C_3
REMARK    3  A    between atoms: C_4  and  C_5
REMARK    4  A    between atoms: C_5  and  C_6
REMARK    5  A    between atoms: C_6  and  O_7
REMARK    6  A    between atoms: C_6  and  C_14
REMARK    7  A    between atoms: O_7  and  C_8
REMARK    8  A    between atoms: C_8  and  C_10
REMARK    9  A    between atoms: C_19  and  O_20
REMARK   10  A    between atoms: C_23  and  O_24
REMARK                            x       y       z     vdW  Elec       q    Type
REMARK                         _______ _______ _______ _____ _____    ______ ____
ROOT
ATOM      1  C   UNL     1      22.863   0.593  52.469  0.00  0.00    +0.000 C 
ATOM      2  C   UNL     1      22.549  -0.147  53.543  0.00  0.00    +0.000 C 
ATOM      3  C   UNL     1      21.225  -0.759  53.719  0.00  0.00    +0.000 C 
ATOM      4  O   UNL     1      21.001  -1.499  54.671  0.00  0.00    +0.000 OA
ATOM      5  C   UNL     1      20.164  -0.423  52.758  0.00  0.00    +0.000 A 
ATOM      6  C   UNL     1      18.854  -0.870  52.978  0.00  0.00    +0.000 A 
ATOM      7  C   UNL     1      17.832  -0.533  52.095  0.00  0.00    +0.000 A 
ATOM      8  C   UNL     1      18.108   0.272  50.992  0.00  0.00    +0.000 A 
ATOM      9  C   UNL     1      19.413   0.718  50.767  0.00  0.00    +0.000 A 
ATOM     10  C   UNL     1      20.458   0.357  51.635  0.00  0.00    +0.000 A 
ATOM     11  C   UNL     1      21.863   0.754  51.375  0.00  0.00    +0.000 C 
ATOM     12  O   UNL     1      22.237   1.181  50.289  0.00  0.00    +0.000 OA
ENDROOT
BRANCH   6  13
ATOM     13  O   UNL     1      18.491  -1.646  54.047  0.00  0.00    +0.000 OA
ATOM     14  H   UNL     1      17.719  -2.174  54.002  0.00  0.00    +0.000 HD
ENDBRANCH   6  13
BRANCH   9  15
ATOM     15  O   UNL     1      19.641   1.546  49.705  0.00  0.00    +0.000 OA
ATOM     16  H   UNL     1      19.246   1.363  48.875  0.00  0.00    +0.000 HD
ENDBRANCH   9  15
BRANCH   1  17
ATOM     17  C   UNL     1      24.200   1.281  52.243  0.00  0.00    +0.000 C 
BRANCH  17  18
ATOM     18  C   UNL     1      24.271   2.668  52.928  0.00  0.00    +0.000 C 
BRANCH  18  22
ATOM     19  C   UNL     1      21.692   4.204  52.236  0.00  0.00    +0.000 C 
ATOM     20  C   UNL     1      23.040   4.497  51.636  0.00  0.00    +0.000 C 
ATOM     21  C   UNL     1      23.095   5.566  50.579  0.00  0.00    +0.000 C 
ATOM     22  C   UNL     1      24.164   3.833  51.970  0.00  0.00    +0.000 C 
ENDBRANCH  18  22
ENDBRANCH  17  18
BRANCH  17  23
ATOM     23  O   UNL     1      25.253   0.427  52.763  0.00  0.00    +0.000 OA
BRANCH  23  24
ATOM     24  C   UNL     1      26.537   0.692  52.393  0.00  0.00    +0.000 C 
ATOM     25  O   UNL     1      26.863   0.898  51.225  0.00  0.00    +0.000 OA
BRANCH  24  26
ATOM     26  C   UNL     1      27.511   0.706  53.585  0.00  0.00    +0.000 C 
ATOM     27 CL   UNL     1      28.829  -0.489  53.420  0.00  0.00    +0.000 Cl
ATOM     28 CL   UNL     1      28.225   2.339  53.701  0.00  0.00    +0.000 Cl
ATOM     29 CL   UNL     1      26.587   0.338  55.068  0.00  0.00    +0.000 Cl
ENDBRANCH  24  26
ENDBRANCH  23  24
ENDBRANCH  17  23
ENDBRANCH   1  17
TORSDOF 8
ENDMDL
MODEL 4
REMARK VINA RESULT:    -7.765      3.277      7.409
REMARK INTER + INTRA:         -12.062
REMARK INTER:                 -10.951
REMARK INTRA:                  -1.112
REMARK UNBOUND:                -1.119
REMARK  Name = 
REMARK  10 active torsions:
REMARK  status: ('A' for Active; 'I' for Inactive)
REMARK    1  A    between atoms: C_1  and  C_2
REMARK    2  A    between atoms: C_2  and  C_3
REMARK    3  A    between atoms: C_4  and  C_5
REMARK    4  A    between atoms: C_5  and  C_6
REMARK    5  A    between atoms: C_6  and  O_7
REMARK    6  A    between atoms: C_6  and  C_14
REMARK    7  A    between atoms: O_7  and  C_8
REMARK    8  A    between atoms: C_8  and  C_10
REMARK    9  A    between atoms: C_19  and  O_20
REMARK   10  A    between atoms: C_23  and  O_24
REMARK                            x       y       z     vdW  Elec       q    Type
REMARK                         _______ _______ _______ _____ _____    ______ ____
ROOT
ATOM      1  C   UNL     1      25.214   3.198  51.379  0.00  0.00    +0.000 C 
ATOM      2  C   UNL     1      26.083   3.401  50.376  0.00  0.00    +0.000 C 
ATOM      3  C   UNL     1      26.095   4.637  49.582  0.00  0.00    +0.000 C 
ATOM      4  O   UNL     1      26.958   4.822  48.731  0.00  0.00    +0.000 OA
ATOM      5  C   UNL     1      25.023   5.620  49.798  0.00  0.00    +0.000 A 
ATOM      6  C   UNL     1      24.921   6.738  48.959  0.00  0.00    +0.000 A 
ATOM      7  C   UNL     1      23.893   7.660  49.129  0.00  0.00    +0.000 A 
ATOM      8  C   UNL     1      22.943   7.462  50.130  0.00  0.00    +0.000 A 
ATOM      9  C   UNL     1      23.043   6.350  50.970  0.00  0.00    +0.000 A 
ATOM     10  C   UNL     1      24.096   5.430  50.827  0.00  0.00    +0.000 A 
ATOM     11  C   UNL     1      24.265   4.285  51.754  0.00  0.00    +0.000 C 
ATOM     12  O   UNL     1      23.679   4.214  52.828  0.00  0.00    +0.000 OA
ENDROOT
BRANCH   6  13
ATOM     13  O   UNL     1      25.797   6.998  47.939  0.00  0.00    +0.000 OA
ATOM     14  H   UNL     1      26.451   7.662  48.040  0.00  0.00    +0.000 HD
ENDBRANCH   6  13
BRANCH   9  15
ATOM     15  O   UNL     1      22.070   6.158  51.908  0.00  0.00    +0.000 OA
ATOM     16  H   UNL     1      22.289   5.795  52.744  0.00  0.00    +0.000 HD
ENDBRANCH   9  15
BRANCH   1  17
ATOM     17  C   UNL     1      25.125   1.930  52.214  0.00  0.00    +0.000 C 
BRANCH  17  18
ATOM     18  C   UNL     1      23.845   1.113  51.910  0.00  0.00    +0.000 C 
BRANCH  18  22
ATOM     19  C   UNL     1      21.106   0.942  53.310  0.00  0.00    +0.000 C 
ATOM     20  C   UNL     1      22.284   0.065  53.640  0.00  0.00    +0.000 C 
ATOM     21  C   UNL     1      22.113  -0.902  54.779  0.00  0.00    +0.000 C 
ATOM     22  C   UNL     1      23.467   0.135  52.999  0.00  0.00    +0.000 C 
ENDBRANCH  18  22
ENDBRANCH  17  18
BRANCH  17  23
ATOM     23  O   UNL     1      26.297   1.117  51.945  0.00  0.00    +0.000 OA
BRANCH  23  24
ATOM     24  C   UNL     1      27.303   1.116  52.865  0.00  0.00    +0.000 C 
ATOM     25  O   UNL     1      28.065   2.069  53.018  0.00  0.00    +0.000 OA
BRANCH  24  26
ATOM     26  C   UNL     1      27.369  -0.193  53.673  0.00  0.00    +0.000 C 
ATOM     27 CL   UNL     1      29.037  -0.638  54.139  0.00  0.00    +0.000 Cl
ATOM     28 CL   UNL     1      26.396   0.020  55.155  0.00  0.00    +0.000 Cl
ATOM     29 CL   UNL     1      26.684  -1.504  52.675  0.00  0.00    +0.000 Cl
ENDBRANCH  24  26
ENDBRANCH  23  24
ENDBRANCH  17  23
ENDBRANCH   1  17
TORSDOF 8
ENDMDL
MODEL 5
REMARK VINA RESULT:    -7.742      2.785      4.487
REMARK INTER + INTRA:         -12.030
REMARK INTER:                 -10.683
REMARK INTRA:                  -1.347
REMARK UNBOUND:                -1.119
REMARK  Name = 
REMARK  10 active torsions:
REMARK  status: ('A' for Active; 'I' for Inactive)
REMARK    1  A    between atoms: C_1  and  C_2
REMARK    2  A    between atoms: C_2  and  C_3
REMARK    3  A    between atoms: C_4  and  C_5
REMARK    4  A    between atoms: C_5  and  C_6
REMARK    5  A    between atoms: C_6  and  O_7
REMARK    6  A    between atoms: C_6  and  C_14
REMARK    7  A    between atoms: O_7  and  C_8
REMARK    8  A    between atoms: C_8  and  C_10
REMARK    9  A    between atoms: C_19  and  O_20
REMARK   10  A    between atoms: C_23  and  O_24
REMARK                            x       y       z     vdW  Elec       q    Type
REMARK                         _______ _______ _______ _____ _____    ______ ____
ROOT
ATOM      1  C   UNL     1      23.576   1.675  51.396  0.00  0.00    +0.000 C 
ATOM      2  C   UNL     1      23.057   0.731  52.196  0.00  0.00    +0.000 C 
ATOM      3  C   UNL     1      23.787   0.184  53.348  0.00  0.00    +0.000 C 
ATOM      4  O   UNL     1      23.247  -0.615  54.106  0.00  0.00    +0.000 OA
ATOM      5  C   UNL     1      25.191   0.576  53.539  0.00  0.00    +0.000 A 
ATOM      6  C   UNL     1      25.959  -0.038  54.537  0.00  0.00    +0.000 A 
ATOM      7  C   UNL     1      27.298   0.299  54.710  0.00  0.00    +0.000 A 
ATOM      8  C   UNL     1      27.888   1.242  53.870  0.00  0.00    +0.000 A 
ATOM      9  C   UNL     1      27.126   1.858  52.875  0.00  0.00    +0.000 A 
ATOM     10  C   UNL     1      25.764   1.549  52.713  0.00  0.00    +0.000 A 
ATOM     11  C   UNL     1      24.917   2.245  51.715  0.00  0.00    +0.000 C 
ATOM     12  O   UNL     1      25.264   3.284  51.166  0.00  0.00    +0.000 OA
ENDROOT
BRANCH   6  13
ATOM     13  O   UNL     1      25.465  -0.988  55.392  0.00  0.00    +0.000 OA
ATOM     14  H   UNL     1      25.748  -1.878  55.317  0.00  0.00    +0.000 HD
ENDBRANCH   6  13
BRANCH   9  15
ATOM     15  O   UNL     1      27.746   2.740  52.037  0.00  0.00    +0.000 OA
ATOM     16  H   UNL     1      28.271   3.432  52.389  0.00  0.00    +0.000 HD
ENDBRANCH   9  15
BRANCH   1  17
ATOM     17  C   UNL     1      22.889   2.256  50.171  0.00  0.00    +0.000 C 
BRANCH  17  18
ATOM     18  C   UNL     1      21.951   1.235  49.482  0.00  0.00    +0.000 C 
BRANCH  18  22
ATOM     19  C   UNL     1      19.545   0.342  51.187  0.00  0.00    +0.000 C 
ATOM     20  C   UNL     1      19.459   1.317  50.044  0.00  0.00    +0.000 C 
ATOM     21  C   UNL     1      18.088   1.822  49.682  0.00  0.00    +0.000 C 
ATOM     22  C   UNL     1      20.526   1.718  49.326  0.00  0.00    +0.000 C 
ENDBRANCH  18  22
ENDBRANCH  17  18
BRANCH  17  23
ATOM     23  O   UNL     1      22.126   3.422  50.579  0.00  0.00    +0.000 OA
BRANCH  23  24
ATOM     24  C   UNL     1      22.466   4.630  50.050  0.00  0.00    +0.000 C 
ATOM     25  O   UNL     1      22.555   4.824  48.838  0.00  0.00    +0.000 OA
BRANCH  24  26
ATOM     26  C   UNL     1      22.719   5.702  51.126  0.00  0.00    +0.000 C 
ATOM     27 CL   UNL     1      24.319   6.482  50.967  0.00  0.00    +0.000 Cl
ATOM     28 CL   UNL     1      21.452   6.952  50.973  0.00  0.00    +0.000 Cl
ATOM     29 CL   UNL     1      22.618   4.922  52.728  0.00  0.00    +0.000 Cl
ENDBRANCH  24  26
ENDBRANCH  23  24
ENDBRANCH  17  23
ENDBRANCH   1  17
TORSDOF 8
ENDMDL
MODEL 6
REMARK VINA RESULT:    -7.361      3.092      7.146
REMARK INTER + INTRA:         -11.492
REMARK INTER:                 -10.375
REMARK INTRA:                  -1.118
REMARK UNBOUND:                -1.119
REMARK  Name = 
REMARK  10 active torsions:
REMARK  status: ('A' for Active; 'I' for Inactive)
REMARK    1  A    between atoms: C_1  and  C_2
REMARK    2  A    between atoms: C_2  and  C_3
REMARK    3  A    between atoms: C_4  and  C_5
REMARK    4  A    between atoms: C_5  and  C_6
REMARK    5  A    between atoms: C_6  and  O_7
REMARK    6  A    between atoms: C_6  and  C_14
REMARK    7  A    between atoms: O_7  and  C_8
REMARK    8  A    between atoms: C_8  and  C_10
REMARK    9  A    between atoms: C_19  and  O_20
REMARK   10  A    between atoms: C_23  and  O_24
REMARK                            x       y       z     vdW  Elec       q    Type
REMARK                         _______ _______ _______ _____ _____    ______ ____
ROOT
ATOM      1  C   UNL     1      24.724   3.543  50.911  0.00  0.00    +0.000 C 
ATOM      2  C   UNL     1      25.754   3.424  50.059  0.00  0.00    +0.000 C 
ATOM      3  C   UNL     1      26.368   4.584  49.399  0.00  0.00    +0.000 C 
ATOM      4  O   UNL     1      27.362   4.446  48.693  0.00  0.00    +0.000 OA
ATOM      5  C   UNL     1      25.736   5.902  49.564  0.00  0.00    +0.000 A 
ATOM      6  C   UNL     1      26.207   7.000  48.833  0.00  0.00    +0.000 A 
ATOM      7  C   UNL     1      25.600   8.245  48.952  0.00  0.00    +0.000 A 
ATOM      8  C   UNL     1      24.498   8.400  49.792  0.00  0.00    +0.000 A 
ATOM      9  C   UNL     1      24.026   7.308  50.525  0.00  0.00    +0.000 A 
ATOM     10  C   UNL     1      24.653   6.053  50.436  0.00  0.00    +0.000 A 
ATOM     11  C   UNL     1      24.218   4.901  51.261  0.00  0.00    +0.000 C 
ATOM     12  O   UNL     1      23.484   5.027  52.234  0.00  0.00    +0.000 OA
ENDROOT
BRANCH   6  13
ATOM     13  O   UNL     1      27.270   6.932  47.970  0.00  0.00    +0.000 OA
ATOM     14  H   UNL     1      27.668   7.719  47.653  0.00  0.00    +0.000 HD
ENDBRANCH   6  13
BRANCH   9  15
ATOM     15  O   UNL     1      22.915   7.480  51.300  0.00  0.00    +0.000 OA
ATOM     16  H   UNL     1      22.432   8.282  51.256  0.00  0.00    +0.000 HD
ENDBRANCH   9  15
BRANCH   1  17
ATOM     17  C   UNL     1      24.021   2.382  51.599  0.00  0.00    +0.000 C 
BRANCH  17  18
ATOM     18  C   UNL     1      22.887   1.784  50.731  0.00  0.00    +0.000 C 
BRANCH  18  22
ATOM     19  C   UNL     1      20.504   2.401  52.584  0.00  0.00    +0.000 C 
ATOM     20  C   UNL     1      21.010   1.015  52.286  0.00  0.00    +0.000 C 
ATOM     21  C   UNL     1      20.338  -0.123  53.005  0.00  0.00    +0.000 C 
ATOM     22  C   UNL     1      22.037   0.762  51.451  0.00  0.00    +0.000 C 
ENDBRANCH  18  22
ENDBRANCH  17  18
BRANCH  17  23
ATOM     23  O   UNL     1      25.005   1.355  51.891  0.00  0.00    +0.000 OA
BRANCH  23  24
ATOM     24  C   UNL     1      25.570   1.341  53.131  0.00  0.00    +0.000 C 
ATOM     25  O   UNL     1      26.009   2.354  53.673  0.00  0.00    +0.000 OA
BRANCH  24  26
ATOM     26  C   UNL     1      25.591  -0.064  53.760  0.00  0.00    +0.000 C 
ATOM     27 CL   UNL     1      23.955  -0.697  54.103  0.00  0.00    +0.000 Cl
ATOM     28 CL   UNL     1      26.409  -1.170  52.622  0.00  0.00    +0.000 Cl
ATOM     29 CL   UNL     1      26.504   0.022  55.292  0.00  0.00    +0.000 Cl
ENDBRANCH  24  26
ENDBRANCH  23  24
ENDBRANCH  17  23
ENDBRANCH   1  17
TORSDOF 8
ENDMDL
MODEL 7
REMARK VINA RESULT:    -7.208      3.021      4.508
REMARK INTER + INTRA:         -11.277
REMARK INTER:                  -9.987
REMARK INTRA:                  -1.291
REMARK UNBOUND:                -1.119
REMARK  Name = 
REMARK  10 active torsions:
REMARK  status: ('A' for Active; 'I' for Inactive)
REMARK    1  A    between atoms: C_1  and  C_2
REMARK    2  A    between atoms: C_2  and  C_3
REMARK    3  A    between atoms: C_4  and  C_5
REMARK    4  A    between atoms: C_5  and  C_6
REMARK    5  A    between atoms: C_6  and  O_7
REMARK    6  A    between atoms: C_6  and  C_14
REMARK    7  A    between atoms: O_7  and  C_8
REMARK    8  A    between atoms: C_8  and  C_10
REMARK    9  A    between atoms: C_19  and  O_20
REMARK   10  A    between atoms: C_23  and  O_24
REMARK                            x       y       z     vdW  Elec       q    Type
REMARK                         _______ _______ _______ _____ _____    ______ ____
ROOT
ATOM      1  C   UNL     1      22.284   1.173  52.188  0.00  0.00    +0.000 C 
ATOM      2  C   UNL     1      22.368   0.129  53.027  0.00  0.00    +0.000 C 
ATOM      3  C   UNL     1      23.597  -0.192  53.766  0.00  0.00    +0.000 C 
ATOM      4  O   UNL     1      23.609  -1.102  54.588  0.00  0.00    +0.000 OA
ATOM      5  C   UNL     1      24.818   0.567  53.460  0.00  0.00    +0.000 A 
ATOM      6  C   UNL     1      26.038   0.190  54.037  0.00  0.00    +0.000 A 
ATOM      7  C   UNL     1      27.209   0.878  53.732  0.00  0.00    +0.000 A 
ATOM      8  C   UNL     1      27.173   1.939  52.829  0.00  0.00    +0.000 A 
ATOM      9  C   UNL     1      25.958   2.320  52.254  0.00  0.00    +0.000 A 
ATOM     10  C   UNL     1      24.765   1.652  52.580  0.00  0.00    +0.000 A 
ATOM     11  C   UNL     1      23.454   2.086  52.040  0.00  0.00    +0.000 C 
ATOM     12  O   UNL     1      23.289   3.177  51.507  0.00  0.00    +0.000 OA
ENDROOT
BRANCH   6  13
ATOM     13  O   UNL     1      26.167  -0.852  54.916  0.00  0.00    +0.000 OA
ATOM     14  H   UNL     1      25.410  -1.336  55.183  0.00  0.00    +0.000 HD
ENDBRANCH   6  13
BRANCH   9  15
ATOM     15  O   UNL     1      25.965   3.330  51.336  0.00  0.00    +0.000 OA
ATOM     16  H   UNL     1      25.925   4.223  51.621  0.00  0.00    +0.000 HD
ENDBRANCH   9  15
BRANCH   1  17
ATOM     17  C   UNL     1      21.057   1.539  51.368  0.00  0.00    +0.000 C 
BRANCH  17  18
ATOM     18  C   UNL     1      21.008   0.788  50.015  0.00  0.00    +0.000 C 
BRANCH  18  22
ATOM     19  C   UNL     1      19.750   2.865  48.119  0.00  0.00    +0.000 C 
ATOM     20  C   UNL     1      21.176   2.393  48.034  0.00  0.00    +0.000 C 
ATOM     21  C   UNL     1      22.003   2.931  46.898  0.00  0.00    +0.000 C 
ATOM     22  C   UNL     1      21.718   1.504  48.888  0.00  0.00    +0.000 C 
ENDBRANCH  18  22
ENDBRANCH  17  18
BRANCH  17  23
ATOM     23  O   UNL     1      19.872   1.222  52.145  0.00  0.00    +0.000 OA
BRANCH  23  24
ATOM     24  C   UNL     1      18.672   1.695  51.707  0.00  0.00    +0.000 C 
ATOM     25  O   UNL     1      18.486   2.878  51.426  0.00  0.00    +0.000 OA
BRANCH  24  26
ATOM     26  C   UNL     1      17.598   0.596  51.606  0.00  0.00    +0.000 C 
ATOM     27 CL   UNL     1      15.989   1.144  52.158  0.00  0.00    +0.000 Cl
ATOM     28 CL   UNL     1      17.479   0.090  49.897  0.00  0.00    +0.000 Cl
ATOM     29 CL   UNL     1      18.112  -0.783  52.617  0.00  0.00    +0.000 Cl
ENDBRANCH  24  26
ENDBRANCH  23  24
ENDBRANCH  17  23
ENDBRANCH   1  17
TORSDOF 8
ENDMDL
MODEL 8
REMARK VINA RESULT:    -7.142      3.168      7.200
REMARK INTER + INTRA:         -11.184
REMARK INTER:                 -10.722
REMARK INTRA:                  -0.461
REMARK UNBOUND:                -1.119
REMARK  Name = 
REMARK  10 active torsions:
REMARK  status: ('A' for Active; 'I' for Inactive)
REMARK    1  A    between atoms: C_1  and  C_2
REMARK    2  A    between atoms: C_2  and  C_3
REMARK    3  A    between atoms: C_4  and  C_5
REMARK    4  A    between atoms: C_5  and  C_6
REMARK    5  A    between atoms: C_6  and  O_7
REMARK    6  A    between atoms: C_6  and  C_14
REMARK    7  A    between atoms: O_7  and  C_8
REMARK    8  A    between atoms: C_8  and  C_10
REMARK    9  A    between atoms: C_19  and  O_20
REMARK   10  A    between atoms: C_23  and  O_24
REMARK                            x       y       z     vdW  Elec       q    Type
REMARK                         _______ _______ _______ _____ _____    ______ ____
ROOT
ATOM      1  C   UNL     1      24.444   3.254  51.706  0.00  0.00    +0.000 C 
ATOM      2  C   UNL     1      23.516   4.196  51.939  0.00  0.00    +0.000 C 
ATOM      3  C   UNL     1      23.457   5.450  51.175  0.00  0.00    +0.000 C 
ATOM      4  O   UNL     1      22.544   6.248  51.358  0.00  0.00    +0.000 OA
ATOM      5  C   UNL     1      24.541   5.745  50.226  0.00  0.00    +0.000 A 
ATOM      6  C   UNL     1      24.593   6.993  49.591  0.00  0.00    +0.000 A 
ATOM      7  C   UNL     1      25.630   7.300  48.716  0.00  0.00    +0.000 A 
ATOM      8  C   UNL     1      26.638   6.367  48.482  0.00  0.00    +0.000 A 
ATOM      9  C   UNL     1      26.589   5.120  49.111  0.00  0.00    +0.000 A 
ATOM     10  C   UNL     1      25.528   4.788  49.972  0.00  0.00    +0.000 A 
ATOM     11  C   UNL     1      25.414   3.445  50.590  0.00  0.00    +0.000 C 
ATOM     12  O   UNL     1      26.064   2.482  50.200  0.00  0.00    +0.000 OA
ENDROOT
BRANCH   6  13
ATOM     13  O   UNL     1      23.657   7.976  49.780  0.00  0.00    +0.000 OA
ATOM     14  H   UNL     1      22.778   7.848  49.483  0.00  0.00    +0.000 HD
ENDBRANCH   6  13
BRANCH   9  15
ATOM     15  O   UNL     1      27.617   4.247  48.900  0.00  0.00    +0.000 OA
ATOM     16  H   UNL     1      27.494   3.505  48.341  0.00  0.00    +0.000 HD
ENDBRANCH   9  15
BRANCH   1  17
ATOM     17  C   UNL     1      24.582   1.954  52.483  0.00  0.00    +0.000 C 
BRANCH  17  18
ATOM     18  C   UNL     1      23.605   0.863  51.981  0.00  0.00    +0.000 C 
BRANCH  18  22
ATOM     19  C   UNL     1      21.019   0.812  53.656  0.00  0.00    +0.000 C 
ATOM     20  C   UNL     1      22.135  -0.190  53.787  0.00  0.00    +0.000 C 
ATOM     21  C   UNL     1      21.987  -1.234  54.860  0.00  0.00    +0.000 C 
ATOM     22  C   UNL     1      23.247  -0.169  53.027  0.00  0.00    +0.000 C 
ENDBRANCH  18  22
ENDBRANCH  17  18
BRANCH  17  23
ATOM     23  O   UNL     1      25.949   1.482  52.353  0.00  0.00    +0.000 OA
BRANCH  23  24
ATOM     24  C   UNL     1      26.736   1.481  53.464  0.00  0.00    +0.000 C 
ATOM     25  O   UNL     1      27.149   2.515  53.988  0.00  0.00    +0.000 OA
BRANCH  24  26
ATOM     26  C   UNL     1      27.041   0.062  53.978  0.00  0.00    +0.000 C 
ATOM     27 CL   UNL     1      26.874  -1.187  52.710  0.00  0.00    +0.000 Cl
ATOM     28 CL   UNL     1      28.718   0.040  54.591  0.00  0.00    +0.000 Cl
ATOM     29 CL   UNL     1      25.902  -0.311  55.302  0.00  0.00    +0.000 Cl
ENDBRANCH  24  26
ENDBRANCH  23  24
ENDBRANCH  17  23
ENDBRANCH   1  17
TORSDOF 8
ENDMDL
MODEL 9
REMARK VINA RESULT:    -7.060      2.880      6.422
REMARK INTER + INTRA:         -11.069
REMARK INTER:                  -9.864
REMARK INTRA:                  -1.205
REMARK UNBOUND:                -1.119
REMARK  Name = 
REMARK  10 active torsions:
REMARK  status: ('A' for Active; 'I' for Inactive)
REMARK    1  A    between atoms: C_1  and  C_2
REMARK    2  A    between atoms: C_2  and  C_3
REMARK    3  A    between atoms: C_4  and  C_5
REMARK    4  A    between atoms: C_5  and  C_6
REMARK    5  A    between atoms: C_6  and  O_7
REMARK    6  A    between atoms: C_6  and  C_14
REMARK    7  A    between atoms: O_7  and  C_8
REMARK    8  A    between atoms: C_8  and  C_10
REMARK    9  A    between atoms: C_19  and  O_20
REMARK   10  A    between atoms: C_23  and  O_24
REMARK                            x       y       z     vdW  Elec       q    Type
REMARK                         _______ _______ _______ _____ _____    ______ ____
ROOT
ATOM      1  C   UNL     1      24.005   4.152  51.336  0.00  0.00    +0.000 C 
ATOM      2  C   UNL     1      23.576   5.378  51.672  0.00  0.00    +0.000 C 
ATOM      3  C   UNL     1      24.134   6.599  51.075  0.00  0.00    +0.000 C 
ATOM      4  O   UNL     1      23.659   7.698  51.344  0.00  0.00    +0.000 OA
ATOM      5  C   UNL     1      25.304   6.478  50.192  0.00  0.00    +0.000 A 
ATOM      6  C   UNL     1      25.950   7.630  49.725  0.00  0.00    +0.000 A 
ATOM      7  C   UNL     1      27.077   7.533  48.915  0.00  0.00    +0.000 A 
ATOM      8  C   UNL     1      27.582   6.277  48.581  0.00  0.00    +0.000 A 
ATOM      9  C   UNL     1      26.939   5.125  49.042  0.00  0.00    +0.000 A 
ATOM     10  C   UNL     1      25.781   5.213  49.834  0.00  0.00    +0.000 A 
ATOM     11  C   UNL     1      25.040   4.006  50.271  0.00  0.00    +0.000 C 
ATOM     12  O   UNL     1      25.223   2.903  49.771  0.00  0.00    +0.000 OA
ENDROOT
BRANCH   6  13
ATOM     13  O   UNL     1      25.534   8.901  50.023  0.00  0.00    +0.000 OA
ATOM     14  H   UNL     1      24.714   9.215  49.696  0.00  0.00    +0.000 HD
ENDBRANCH   6  13
BRANCH   9  15
ATOM     15  O   UNL     1      27.487   3.912  48.738  0.00  0.00    +0.000 OA
ATOM     16  H   UNL     1      27.090   3.369  48.086  0.00  0.00    +0.000 HD
ENDBRANCH   9  15
BRANCH   1  17
ATOM     17  C   UNL     1      23.496   2.852  51.940  0.00  0.00    +0.000 C 
BRANCH  17  18
ATOM     18  C   UNL     1      24.444   2.300  53.033  0.00  0.00    +0.000 C 
BRANCH  18  22
ATOM     19  C   UNL     1      27.351   1.384  53.481  0.00  0.00    +0.000 C 
ATOM     20  C   UNL     1      26.269   0.517  52.895  0.00  0.00    +0.000 C 
ATOM     21  C   UNL     1      26.672  -0.859  52.440  0.00  0.00    +0.000 C 
ATOM     22  C   UNL     1      24.996   0.925  52.731  0.00  0.00    +0.000 C 
ENDBRANCH  18  22
ENDBRANCH  17  18
BRANCH  17  23
ATOM     23  O   UNL     1      22.182   3.091  52.509  0.00  0.00    +0.000 OA
BRANCH  23  24
ATOM     24  C   UNL     1      21.090   2.743  51.772  0.00  0.00    +0.000 C 
ATOM     25  O   UNL     1      20.516   3.531  51.022  0.00  0.00    +0.000 OA
BRANCH  24  26
ATOM     26  C   UNL     1      20.671   1.277  51.985  0.00  0.00    +0.000 C 
ATOM     27 CL   UNL     1      21.491   0.151  50.865  0.00  0.00    +0.000 Cl
ATOM     28 CL   UNL     1      21.079   0.820  53.662  0.00  0.00    +0.000 Cl
ATOM     29 CL   UNL     1      18.908   1.156  51.731  0.00  0.00    +0.000 Cl
ENDBRANCH  24  26
ENDBRANCH  23  24
ENDBRANCH  17  23
ENDBRANCH   1  17
TORSDOF 8
ENDMDL
