MODEL 1
REMARK VINA RESULT:    -7.987      0.000      0.000
REMARK INTER + INTRA:         -12.276
REMARK INTER:                 -11.255
REMARK INTRA:                  -1.021
REMARK UNBOUND:                -1.021
REMARK  Name = 
REMARK  8 active torsions:
REMARK  status: ('A' for Active; 'I' for Inactive)
REMARK    1  A    between atoms: C_1  and  C_2
REMARK    2  A    between atoms: C_5  and  S_6
REMARK    3  A    between atoms: S_6  and  C_7
REMARK    4  A    between atoms: C_13  and  C_14
REMARK    5  A    between atoms: N_16  and  C_17
REMARK    6  A    between atoms: C_17  and  C_18
REMARK    7  A    between atoms: C_18  and  C_19
REMARK    8  A    between atoms: C_19  and  N_20
REMARK                            x       y       z     vdW  Elec       q    Type
REMARK                         _______ _______ _______ _____ _____    ______ ____
ROOT
ATOM      1  C   UNL     1      23.047   4.289  49.354  0.00  0.00    +0.000 A 
ATOM      2  C   UNL     1      22.765   4.601  48.031  0.00  0.00    +0.000 A 
ATOM      3  N   UNL     1      22.000   3.844  47.218  0.00  0.00    +0.000 NA
ATOM      4  C   UNL     1      21.470   2.696  47.702  0.00  0.00    +0.000 A 
ATOM      5  C   UNL     1      21.750   2.287  49.011  0.00  0.00    +0.000 A 
ATOM      6  S   UNL     1      21.199   0.854  49.803  0.00  0.00    +0.000 S 
ATOM      7  C   UNL     1      22.117   1.162  51.203  0.00  0.00    +0.000 A 
ATOM      8  C   UNL     1      22.739   2.395  51.118  0.00  0.00    +0.000 A 
ATOM      9  C   UNL     1      22.556   3.056  49.856  0.00  0.00    +0.000 A 
ENDROOT
BRANCH   7  10
ATOM     10  C   UNL     1      22.239   0.232  52.320  0.00  0.00    +0.000 C 
ATOM     11  O   UNL     1      21.249  -0.283  52.841  0.00  0.00    +0.000 OA
ATOM     12  N   UNL     1      23.513  -0.026  52.786  0.00  0.00    +0.000 N 
ATOM     13  H   UNL     1      24.286   0.259  52.245  0.00  0.00    +0.000 HD
BRANCH  12  14
ATOM     14  C   UNL     1      23.753  -0.704  54.051  0.00  0.00    +0.000 C 
BRANCH  14  15
ATOM     15  C   UNL     1      25.202  -0.724  54.559  0.00  0.00    +0.000 C 
BRANCH  15  16
ATOM     16  C   UNL     1      25.978   0.574  54.295  0.00  0.00    +0.000 C 
BRANCH  16  17
ATOM     17  N   UNL     1      26.901   0.497  53.145  0.00  0.00    +0.000 N 
ATOM     18  C   UNL     1      27.922  -0.563  53.337  0.00  0.00    +0.000 C 
ATOM     19  C   UNL     1      29.064  -0.176  54.294  0.00  0.00    +0.000 C 
ATOM     20  O   UNL     1      29.714   1.026  53.868  0.00  0.00    +0.000 OA
ATOM     21  C   UNL     1      28.770   2.101  53.781  0.00  0.00    +0.000 C 
ATOM     22  C   UNL     1      27.615   1.755  52.827  0.00  0.00    +0.000 C 
ATOM     23  H   UNL     1      26.286   0.286  52.359  0.00  0.00    +0.000 HD
ENDBRANCH  16  17
ENDBRANCH  15  16
ENDBRANCH  14  15
ENDBRANCH  12  14
ENDBRANCH   7  10
BRANCH   1  24
ATOM     24  S   UNL     1      23.968   5.365  50.406  0.00  0.00    +0.000 S 
BRANCH  24  29
ATOM     25  C   UNL     1      29.403   6.233  47.736  0.00  0.00    +0.000 C 
ATOM     26  C   UNL     1      28.061   5.976  48.354  0.00  0.00    +0.000 A 
ATOM     27  C   UNL     1      27.673   4.688  48.727  0.00  0.00    +0.000 A 
ATOM     28  C   UNL     1      26.432   4.465  49.335  0.00  0.00    +0.000 A 
ATOM     29  C   UNL     1      25.554   5.527  49.585  0.00  0.00    +0.000 A 
ATOM     30  C   UNL     1      25.937   6.812  49.184  0.00  0.00    +0.000 A 
ATOM     31  C   UNL     1      27.177   7.037  48.576  0.00  0.00    +0.000 A 
ENDBRANCH  24  29
ENDBRANCH   1  24
TORSDOF 7
ENDMDL
MODEL 2
REMARK VINA RESULT:    -7.686      5.155      9.414
REMARK INTER + INTRA:         -11.853
REMARK INTER:                 -11.331
REMARK INTRA:                  -0.522
REMARK UNBOUND:                -1.021
REMARK  Name = 
REMARK  8 active torsions:
REMARK  status: ('A' for Active; 'I' for Inactive)
REMARK    1  A    between atoms: C_1  and  C_2
REMARK    2  A    between atoms: C_5  and  S_6
REMARK    3  A    between atoms: S_6  and  C_7
REMARK    4  A    between atoms: C_13  and  C_14
REMARK    5  A    between atoms: N_16  and  C_17
REMARK    6  A    between atoms: C_17  and  C_18
REMARK    7  A    between atoms: C_18  and  C_19
REMARK    8  A    between atoms: C_19  and  N_20
REMARK                            x       y       z     vdW  Elec       q    Type
REMARK                         _______ _______ _______ _____ _____    ______ ____
ROOT
ATOM      1  C   UNL     1      23.575   0.173  53.308  0.00  0.00    +0.000 A 
ATOM      2  C   UNL     1      23.951  -0.659  54.353  0.00  0.00    +0.000 A 
ATOM      3  N   UNL     1      23.095  -1.424  55.062  0.00  0.00    +0.000 NA
ATOM      4  C   UNL     1      21.778  -1.384  54.756  0.00  0.00    +0.000 A 
ATOM      5  C   UNL     1      21.313  -0.530  53.749  0.00  0.00    +0.000 A 
ATOM      6  S   UNL     1      19.680  -0.312  53.229  0.00  0.00    +0.000 S 
ATOM      7  C   UNL     1      20.093   0.935  52.145  0.00  0.00    +0.000 A 
ATOM      8  C   UNL     1      21.465   1.100  52.091  0.00  0.00    +0.000 A 
ATOM      9  C   UNL     1      22.190   0.278  53.020  0.00  0.00    +0.000 A 
ENDROOT
BRANCH   7  10
ATOM     10  C   UNL     1      19.119   1.725  51.401  0.00  0.00    +0.000 C 
ATOM     11  O   UNL     1      18.780   1.420  50.257  0.00  0.00    +0.000 OA
ATOM     12  N   UNL     1      18.611   2.846  52.027  0.00  0.00    +0.000 N 
ATOM     13  H   UNL     1      18.765   2.964  52.992  0.00  0.00    +0.000 HD
BRANCH  12  14
ATOM     14  C   UNL     1      17.856   3.861  51.306  0.00  0.00    +0.000 C 
BRANCH  14  15
ATOM     15  C   UNL     1      16.447   4.173  51.831  0.00  0.00    +0.000 C 
BRANCH  15  16
ATOM     16  C   UNL     1      15.540   2.943  51.970  0.00  0.00    +0.000 C 
BRANCH  16  17
ATOM     17  N   UNL     1      14.737   2.927  53.208  0.00  0.00    +0.000 N 
ATOM     18  C   UNL     1      13.772   1.799  53.217  0.00  0.00    +0.000 C 
ATOM     19  C   UNL     1      12.522   2.031  52.348  0.00  0.00    +0.000 C 
ATOM     20  O   UNL     1      11.840   3.232  52.726  0.00  0.00    +0.000 OA
ATOM     21  C   UNL     1      12.719   4.359  52.621  0.00  0.00    +0.000 C 
ATOM     22  C   UNL     1      13.979   4.169  53.482  0.00  0.00    +0.000 C 
ATOM     23  H   UNL     1      15.436   2.825  53.945  0.00  0.00    +0.000 HD
ENDBRANCH  16  17
ENDBRANCH  15  16
ENDBRANCH  14  15
ENDBRANCH  12  14
ENDBRANCH   7  10
BRANCH   1  24
ATOM     24  S   UNL     1      24.748   1.074  52.345  0.00  0.00    +0.000 S 
BRANCH  24  29
ATOM     25  C   UNL     1      30.194  -1.168  53.996  0.00  0.00    +0.000 C 
ATOM     26  C   UNL     1      28.849  -0.604  53.647  0.00  0.00    +0.000 A 
ATOM     27  C   UNL     1      28.460   0.662  54.091  0.00  0.00    +0.000 A 
ATOM     28  C   UNL     1      27.217   1.193  53.730  0.00  0.00    +0.000 A 
ATOM     29  C   UNL     1      26.337   0.470  52.914  0.00  0.00    +0.000 A 
ATOM     30  C   UNL     1      26.722  -0.809  52.494  0.00  0.00    +0.000 A 
ATOM     31  C   UNL     1      27.964  -1.341  52.854  0.00  0.00    +0.000 A 
ENDBRANCH  24  29
ENDBRANCH   1  24
TORSDOF 7
ENDMDL
MODEL 3
REMARK VINA RESULT:    -7.629      3.359      7.052
REMARK INTER + INTRA:         -11.773
REMARK INTER:                 -10.705
REMARK INTRA:                  -1.067
REMARK UNBOUND:                -1.021
REMARK  Name = 
REMARK  8 active torsions:
REMARK  status: ('A' for Active; 'I' for Inactive)
REMARK    1  A    between atoms: C_1  and  C_2
REMARK    2  A    between atoms: C_5  and  S_6
REMARK    3  A    between atoms: S_6  and  C_7
REMARK    4  A    between atoms: C_13  and  C_14
REMARK    5  A    between atoms: N_16  and  C_17
REMARK    6  A    between atoms: C_17  and  C_18
REMARK    7  A    between atoms: C_18  and  C_19
REMARK    8  A    between atoms: C_19  and  N_20
REMARK                            x       y       z     vdW  Elec       q    Type
REMARK                         _______ _______ _______ _____ _____    ______ ____
ROOT
ATOM      1  C   UNL     1      23.311   0.215  53.460  0.00  0.00    +0.000 A 
ATOM      2  C   UNL     1      23.701  -0.726  54.403  0.00  0.00    +0.000 A 
ATOM      3  N   UNL     1      22.860  -1.595  55.002  0.00  0.00    +0.000 NA
ATOM      4  C   UNL     1      21.546  -1.556  54.682  0.00  0.00    +0.000 A 
ATOM      5  C   UNL     1      21.067  -0.601  53.778  0.00  0.00    +0.000 A 
ATOM      6  S   UNL     1      19.434  -0.369  53.264  0.00  0.00    +0.000 S 
ATOM      7  C   UNL     1      19.822   1.011  52.344  0.00  0.00    +0.000 A 
ATOM      8  C   UNL     1      21.189   1.221  52.332  0.00  0.00    +0.000 A 
ATOM      9  C   UNL     1      21.927   0.314  53.165  0.00  0.00    +0.000 A 
ENDROOT
BRANCH   7  10
ATOM     10  C   UNL     1      18.833   1.856  51.685  0.00  0.00    +0.000 C 
ATOM     11  O   UNL     1      17.903   1.376  51.036  0.00  0.00    +0.000 OA
ATOM     12  N   UNL     1      18.999   3.223  51.801  0.00  0.00    +0.000 N 
ATOM     13  H   UNL     1      19.639   3.571  52.463  0.00  0.00    +0.000 HD
BRANCH  12  14
ATOM     14  C   UNL     1      18.258   4.166  50.976  0.00  0.00    +0.000 C 
BRANCH  14  15
ATOM     15  C   UNL     1      19.003   4.762  49.773  0.00  0.00    +0.000 C 
BRANCH  15  16
ATOM     16  C   UNL     1      20.478   4.347  49.679  0.00  0.00    +0.000 C 
BRANCH  16  17
ATOM     17  N   UNL     1      21.428   5.456  49.899  0.00  0.00    +0.000 N 
ATOM     18  C   UNL     1      22.752   5.167  49.293  0.00  0.00    +0.000 C 
ATOM     19  C   UNL     1      23.621   4.192  50.110  0.00  0.00    +0.000 C 
ATOM     20  O   UNL     1      23.812   4.662  51.448  0.00  0.00    +0.000 OA
ATOM     21  C   UNL     1      22.548   4.845  52.099  0.00  0.00    +0.000 C 
ATOM     22  C   UNL     1      21.652   5.819  51.317  0.00  0.00    +0.000 C 
ATOM     23  H   UNL     1      20.975   6.251  49.446  0.00  0.00    +0.000 HD
ENDBRANCH  16  17
ENDBRANCH  15  16
ENDBRANCH  14  15
ENDBRANCH  12  14
ENDBRANCH   7  10
BRANCH   1  24
ATOM     24  S   UNL     1      24.468   1.259  52.630  0.00  0.00    +0.000 S 
BRANCH  24  29
ATOM     25  C   UNL     1      29.950  -1.163  53.857  0.00  0.00    +0.000 C 
ATOM     26  C   UNL     1      28.596  -0.565  53.613  0.00  0.00    +0.000 A 
ATOM     27  C   UNL     1      28.193   0.600  54.269  0.00  0.00    +0.000 A 
ATOM     28  C   UNL     1      26.941   1.169  54.008  0.00  0.00    +0.000 A 
ATOM     29  C   UNL     1      26.067   0.586  53.082  0.00  0.00    +0.000 A 
ATOM     30  C   UNL     1      26.466  -0.596  52.448  0.00  0.00    +0.000 A 
ATOM     31  C   UNL     1      27.716  -1.166  52.708  0.00  0.00    +0.000 A 
ENDBRANCH  24  29
ENDBRANCH   1  24
TORSDOF 7
ENDMDL
MODEL 4
REMARK VINA RESULT:    -7.473      4.220      7.637
REMARK INTER + INTRA:         -11.552
REMARK INTER:                 -10.614
REMARK INTRA:                  -0.939
REMARK UNBOUND:                -1.021
REMARK  Name = 
REMARK  8 active torsions:
REMARK  status: ('A' for Active; 'I' for Inactive)
REMARK    1  A    between atoms: C_1  and  C_2
REMARK    2  A    between atoms: C_5  and  S_6
REMARK    3  A    between atoms: S_6  and  C_7
REMARK    4  A    between atoms: C_13  and  C_14
REMARK    5  A    between atoms: N_16  and  C_17
REMARK    6  A    between atoms: C_17  and  C_18
REMARK    7  A    between atoms: C_18  and  C_19
REMARK    8  A    between atoms: C_19  and  N_20
REMARK                            x       y       z     vdW  Elec       q    Type
REMARK                         _______ _______ _______ _____ _____    ______ ____
ROOT
ATOM      1  C   UNL     1      18.607   0.008  51.669  0.00  0.00    +0.000 A 
ATOM      2  C   UNL     1      18.286  -0.871  52.694  0.00  0.00    +0.000 A 
ATOM      3  N   UNL     1      19.145  -1.258  53.660  0.00  0.00    +0.000 NA
ATOM      4  C   UNL     1      20.409  -0.775  53.641  0.00  0.00    +0.000 A 
ATOM      5  C   UNL     1      20.824   0.075  52.609  0.00  0.00    +0.000 A 
ATOM      6  S   UNL     1      22.390   0.771  52.389  0.00  0.00    +0.000 S 
ATOM      7  C   UNL     1      21.969   1.478  50.899  0.00  0.00    +0.000 A 
ATOM      8  C   UNL     1      20.625   1.289  50.631  0.00  0.00    +0.000 A 
ATOM      9  C   UNL     1      19.947   0.469  51.595  0.00  0.00    +0.000 A 
ENDROOT
BRANCH   7  10
ATOM     10  C   UNL     1      22.914   2.165  50.026  0.00  0.00    +0.000 C 
ATOM     11  O   UNL     1      22.791   2.148  48.801  0.00  0.00    +0.000 OA
ATOM     12  N   UNL     1      23.970   2.817  50.634  0.00  0.00    +0.000 N 
ATOM     13  H   UNL     1      23.944   2.960  51.608  0.00  0.00    +0.000 HD
BRANCH  12  14
ATOM     14  C   UNL     1      25.119   3.298  49.882  0.00  0.00    +0.000 C 
BRANCH  14  15
ATOM     15  C   UNL     1      26.504   2.986  50.467  0.00  0.00    +0.000 C 
BRANCH  15  16
ATOM     16  C   UNL     1      26.497   1.905  51.557  0.00  0.00    +0.000 C 
BRANCH  16  17
ATOM     17  N   UNL     1      26.800   2.415  52.909  0.00  0.00    +0.000 N 
ATOM     18  C   UNL     1      28.235   2.247  53.246  0.00  0.00    +0.000 C 
ATOM     19  C   UNL     1      28.628   0.812  53.643  0.00  0.00    +0.000 C 
ATOM     20  O   UNL     1      27.833   0.340  54.737  0.00  0.00    +0.000 OA
ATOM     21  C   UNL     1      26.441   0.385  54.399  0.00  0.00    +0.000 C 
ATOM     22  C   UNL     1      26.007   1.806  54.002  0.00  0.00    +0.000 C 
ATOM     23  H   UNL     1      26.541   3.401  52.855  0.00  0.00    +0.000 HD
ENDBRANCH  16  17
ENDBRANCH  15  16
ENDBRANCH  14  15
ENDBRANCH  12  14
ENDBRANCH   7  10
BRANCH   1  24
ATOM     24  S   UNL     1      17.416   0.563  50.490  0.00  0.00    +0.000 S 
BRANCH  24  29
ATOM     25  C   UNL     1      14.008   4.443  53.768  0.00  0.00    +0.000 C 
ATOM     26  C   UNL     1      14.843   3.529  52.920  0.00  0.00    +0.000 A 
ATOM     27  C   UNL     1      15.961   4.005  52.232  0.00  0.00    +0.000 A 
ATOM     28  C   UNL     1      16.752   3.136  51.472  0.00  0.00    +0.000 A 
ATOM     29  C   UNL     1      16.443   1.772  51.386  0.00  0.00    +0.000 A 
ATOM     30  C   UNL     1      15.305   1.308  52.056  0.00  0.00    +0.000 A 
ATOM     31  C   UNL     1      14.513   2.174  52.816  0.00  0.00    +0.000 A 
ENDBRANCH  24  29
ENDBRANCH   1  24
TORSDOF 7
ENDMDL
MODEL 5
REMARK VINA RESULT:    -7.431      2.646      5.869
REMARK INTER + INTRA:         -11.494
REMARK INTER:                 -10.849
REMARK INTRA:                  -0.645
REMARK UNBOUND:                -1.021
REMARK  Name = 
REMARK  8 active torsions:
REMARK  status: ('A' for Active; 'I' for Inactive)
REMARK    1  A    between atoms: C_1  and  C_2
REMARK    2  A    between atoms: C_5  and  S_6
REMARK    3  A    between atoms: S_6  and  C_7
REMARK    4  A    between atoms: C_13  and  C_14
REMARK    5  A    between atoms: N_16  and  C_17
REMARK    6  A    between atoms: C_17  and  C_18
REMARK    7  A    between atoms: C_18  and  C_19
REMARK    8  A    between atoms: C_19  and  N_20
REMARK                            x       y       z     vdW  Elec       q    Type
REMARK                         _______ _______ _______ _____ _____    ______ ____
ROOT
ATOM      1  C   UNL     1      25.287   2.166  51.544  0.00  0.00    +0.000 A 
ATOM      2  C   UNL     1      26.643   2.380  51.757  0.00  0.00    +0.000 A 
ATOM      3  N   UNL     1      27.394   1.681  52.633  0.00  0.00    +0.000 NA
ATOM      4  C   UNL     1      26.805   0.710  53.369  0.00  0.00    +0.000 A 
ATOM      5  C   UNL     1      25.431   0.469  53.250  0.00  0.00    +0.000 A 
ATOM      6  S   UNL     1      24.492  -0.695  54.112  0.00  0.00    +0.000 S 
ATOM      7  C   UNL     1      23.028  -0.162  53.425  0.00  0.00    +0.000 A 
ATOM      8  C   UNL     1      23.264   0.806  52.465  0.00  0.00    +0.000 A 
ATOM      9  C   UNL     1      24.641   1.199  52.357  0.00  0.00    +0.000 A 
ENDROOT
BRANCH   7  10
ATOM     10  C   UNL     1      21.714  -0.653  53.822  0.00  0.00    +0.000 C 
ATOM     11  O   UNL     1      21.584  -1.531  54.676  0.00  0.00    +0.000 OA
ATOM     12  N   UNL     1      20.619  -0.107  53.179  0.00  0.00    +0.000 N 
ATOM     13  H   UNL     1      20.742   0.705  52.636  0.00  0.00    +0.000 HD
BRANCH  12  14
ATOM     14  C   UNL     1      19.291  -0.694  53.277  0.00  0.00    +0.000 C 
BRANCH  14  15
ATOM     15  C   UNL     1      18.271  -0.271  52.211  0.00  0.00    +0.000 C 
BRANCH  15  16
ATOM     16  C   UNL     1      18.897   0.327  50.943  0.00  0.00    +0.000 C 
BRANCH  16  17
ATOM     17  N   UNL     1      18.446   1.700  50.642  0.00  0.00    +0.000 N 
ATOM     18  C   UNL     1      19.128   2.246  49.442  0.00  0.00    +0.000 C 
ATOM     19  C   UNL     1      20.570   2.721  49.696  0.00  0.00    +0.000 C 
ATOM     20  O   UNL     1      20.621   3.694  50.745  0.00  0.00    +0.000 OA
ATOM     21  C   UNL     1      20.068   3.155  51.953  0.00  0.00    +0.000 C 
ATOM     22  C   UNL     1      18.623   2.675  51.742  0.00  0.00    +0.000 C 
ATOM     23  H   UNL     1      17.443   1.592  50.485  0.00  0.00    +0.000 HD
ENDBRANCH  16  17
ENDBRANCH  15  16
ENDBRANCH  14  15
ENDBRANCH  12  14
ENDBRANCH   7  10
BRANCH   1  24
ATOM     24  S   UNL     1      24.373   3.037  50.312  0.00  0.00    +0.000 S 
BRANCH  24  29
ATOM     25  C   UNL     1      28.317   7.185  48.155  0.00  0.00    +0.000 C 
ATOM     26  C   UNL     1      27.348   6.197  48.734  0.00  0.00    +0.000 A 
ATOM     27  C   UNL     1      26.179   6.622  49.370  0.00  0.00    +0.000 A 
ATOM     28  C   UNL     1      25.265   5.690  49.876  0.00  0.00    +0.000 A 
ATOM     29  C   UNL     1      25.499   4.315  49.753  0.00  0.00    +0.000 A 
ATOM     30  C   UNL     1      26.685   3.897  49.139  0.00  0.00    +0.000 A 
ATOM     31  C   UNL     1      27.600   4.826  48.633  0.00  0.00    +0.000 A 
ENDBRANCH  24  29
ENDBRANCH   1  24
TORSDOF 7
ENDMDL
MODEL 6
REMARK VINA RESULT:    -7.274      4.123      7.834
REMARK INTER + INTRA:         -11.272
REMARK INTER:                 -10.268
REMARK INTRA:                  -1.004
REMARK UNBOUND:                -1.021
REMARK  Name = 
REMARK  8 active torsions:
REMARK  status: ('A' for Active; 'I' for Inactive)
REMARK    1  A    between atoms: C_1  and  C_2
REMARK    2  A    between atoms: C_5  and  S_6
REMARK    3  A    between atoms: S_6  and  C_7
REMARK    4  A    between atoms: C_13  and  C_14
REMARK    5  A    between atoms: N_16  and  C_17
REMARK    6  A    between atoms: C_17  and  C_18
REMARK    7  A    between atoms: C_18  and  C_19
REMARK    8  A    between atoms: C_19  and  N_20
REMARK                            x       y       z     vdW  Elec       q    Type
REMARK                         _______ _______ _______ _____ _____    ______ ____
ROOT
ATOM      1  C   UNL     1      24.187   2.444  51.901  0.00  0.00    +0.000 A 
ATOM      2  C   UNL     1      24.699   2.990  50.731  0.00  0.00    +0.000 A 
ATOM      3  N   UNL     1      24.046   3.005  49.551  0.00  0.00    +0.000 NA
ATOM      4  C   UNL     1      22.813   2.450  49.480  0.00  0.00    +0.000 A 
ATOM      5  C   UNL     1      22.250   1.834  50.603  0.00  0.00    +0.000 A 
ATOM      6  S   UNL     1      20.715   1.050  50.711  0.00  0.00    +0.000 S 
ATOM      7  C   UNL     1      20.983   0.542  52.315  0.00  0.00    +0.000 A 
ATOM      8  C   UNL     1      22.169   1.063  52.800  0.00  0.00    +0.000 A 
ATOM      9  C   UNL     1      22.926   1.798  51.827  0.00  0.00    +0.000 A 
ENDROOT
BRANCH   7  10
ATOM     10  C   UNL     1      20.085  -0.340  53.052  0.00  0.00    +0.000 C 
ATOM     11  O   UNL     1      20.471  -0.984  54.028  0.00  0.00    +0.000 OA
ATOM     12  N   UNL     1      18.787  -0.441  52.591  0.00  0.00    +0.000 N 
ATOM     13  H   UNL     1      18.465   0.210  51.925  0.00  0.00    +0.000 HD
BRANCH  12  14
ATOM     14  C   UNL     1      17.879  -1.479  53.055  0.00  0.00    +0.000 C 
BRANCH  14  15
ATOM     15  C   UNL     1      16.468  -1.481  52.449  0.00  0.00    +0.000 C 
BRANCH  15  16
ATOM     16  C   UNL     1      15.605  -0.280  52.861  0.00  0.00    +0.000 C 
BRANCH  16  17
ATOM     17  N   UNL     1      14.934   0.391  51.730  0.00  0.00    +0.000 N 
ATOM     18  C   UNL     1      15.904   0.796  50.683  0.00  0.00    +0.000 C 
ATOM     19  C   UNL     1      16.710   2.063  51.023  0.00  0.00    +0.000 C 
ATOM     20  O   UNL     1      15.845   3.168  51.310  0.00  0.00    +0.000 OA
ATOM     21  C   UNL     1      14.967   2.845  52.396  0.00  0.00    +0.000 C 
ATOM     22  C   UNL     1      14.138   1.587  52.091  0.00  0.00    +0.000 C 
ATOM     23  H   UNL     1      14.285  -0.317  51.384  0.00  0.00    +0.000 HD
ENDBRANCH  16  17
ENDBRANCH  15  16
ENDBRANCH  14  15
ENDBRANCH  12  14
ENDBRANCH   7  10
BRANCH   1  24
ATOM     24  S   UNL     1      25.039   2.542  53.443  0.00  0.00    +0.000 S 
BRANCH  24  29
ATOM     25  C   UNL     1      29.443  -1.702  53.345  0.00  0.00    +0.000 C 
ATOM     26  C   UNL     1      28.347  -0.678  53.316  0.00  0.00    +0.000 A 
ATOM     27  C   UNL     1      27.046  -1.025  52.944  0.00  0.00    +0.000 A 
ATOM     28  C   UNL     1      26.024  -0.069  52.954  0.00  0.00    +0.000 A 
ATOM     29  C   UNL     1      26.280   1.253  53.340  0.00  0.00    +0.000 A 
ATOM     30  C   UNL     1      27.592   1.600  53.685  0.00  0.00    +0.000 A 
ATOM     31  C   UNL     1      28.615   0.646  53.675  0.00  0.00    +0.000 A 
ENDBRANCH  24  29
ENDBRANCH   1  24
TORSDOF 7
ENDMDL
MODEL 7
REMARK VINA RESULT:    -7.214      1.583      1.663
REMARK INTER + INTRA:         -11.188
REMARK INTER:                 -10.198
REMARK INTRA:                  -0.990
REMARK UNBOUND:                -1.021
REMARK  Name = 
REMARK  8 active torsions:
REMARK  status: ('A' for Active; 'I' for Inactive)
REMARK    1  A    between atoms: C_1  and  C_2
REMARK    2  A    between atoms: C_5  and  S_6
REMARK    3  A    between atoms: S_6  and  C_7
REMARK    4  A    between atoms: C_13  and  C_14
REMARK    5  A    between atoms: N_16  and  C_17
REMARK    6  A    between atoms: C_17  and  C_18
REMARK    7  A    between atoms: C_18  and  C_19
REMARK    8  A    between atoms: C_19  and  N_20
REMARK                            x       y       z     vdW  Elec       q    Type
REMARK                         _______ _______ _______ _____ _____    ______ ____
ROOT
ATOM      1  C   UNL     1      22.597   6.205  50.316  0.00  0.00    +0.000 A 
ATOM      2  C   UNL     1      22.054   6.859  49.217  0.00  0.00    +0.000 A 
ATOM      3  N   UNL     1      20.970   6.431  48.538  0.00  0.00    +0.000 NA
ATOM      4  C   UNL     1      20.363   5.287  48.932  0.00  0.00    +0.000 A 
ATOM      5  C   UNL     1      20.881   4.543  49.998  0.00  0.00    +0.000 A 
ATOM      6  S   UNL     1      20.276   3.055  50.632  0.00  0.00    +0.000 S 
ATOM      7  C   UNL     1      21.566   2.891  51.732  0.00  0.00    +0.000 A 
ATOM      8  C   UNL     1      22.378   4.009  51.701  0.00  0.00    +0.000 A 
ATOM      9  C   UNL     1      22.014   4.970  50.698  0.00  0.00    +0.000 A 
ENDROOT
BRANCH   7  10
ATOM     10  C   UNL     1      21.781   1.715  52.567  0.00  0.00    +0.000 C 
ATOM     11  O   UNL     1      20.888   1.262  53.285  0.00  0.00    +0.000 OA
ATOM     12  N   UNL     1      23.039   1.145  52.538  0.00  0.00    +0.000 N 
ATOM     13  H   UNL     1      23.669   1.419  51.832  0.00  0.00    +0.000 HD
BRANCH  12  14
ATOM     14  C   UNL     1      23.464   0.155  53.515  0.00  0.00    +0.000 C 
BRANCH  14  15
ATOM     15  C   UNL     1      24.692  -0.692  53.149  0.00  0.00    +0.000 C 
BRANCH  15  16
ATOM     16  C   UNL     1      25.972  -0.302  53.901  0.00  0.00    +0.000 C 
BRANCH  16  17
ATOM     17  N   UNL     1      27.150  -0.125  53.028  0.00  0.00    +0.000 N 
ATOM     18  C   UNL     1      28.406  -0.493  53.728  0.00  0.00    +0.000 C 
ATOM     19  C   UNL     1      28.914   0.573  54.716  0.00  0.00    +0.000 C 
ATOM     20  O   UNL     1      29.093   1.838  54.071  0.00  0.00    +0.000 OA
ATOM     21  C   UNL     1      27.863   2.275  53.478  0.00  0.00    +0.000 C 
ATOM     22  C   UNL     1      27.325   1.239  52.477  0.00  0.00    +0.000 C 
ATOM     23  H   UNL     1      26.961  -0.751  52.244  0.00  0.00    +0.000 HD
ENDBRANCH  16  17
ENDBRANCH  15  16
ENDBRANCH  14  15
ENDBRANCH  12  14
ENDBRANCH   7  10
BRANCH   1  24
ATOM     24  S   UNL     1      23.954   6.862  51.232  0.00  0.00    +0.000 S 
BRANCH  24  29
ATOM     25  C   UNL     1      28.921   6.349  47.699  0.00  0.00    +0.000 C 
ATOM     26  C   UNL     1      27.673   6.445  48.526  0.00  0.00    +0.000 A 
ATOM     27  C   UNL     1      26.894   5.317  48.788  0.00  0.00    +0.000 A 
ATOM     28  C   UNL     1      25.750   5.412  49.590  0.00  0.00    +0.000 A 
ATOM     29  C   UNL     1      25.364   6.637  50.149  0.00  0.00    +0.000 A 
ATOM     30  C   UNL     1      26.135   7.769  49.860  0.00  0.00    +0.000 A 
ATOM     31  C   UNL     1      27.278   7.676  49.058  0.00  0.00    +0.000 A 
ENDBRANCH  24  29
ENDBRANCH   1  24
TORSDOF 7
ENDMDL
MODEL 8
REMARK VINA RESULT:    -7.134      5.032      8.174
REMARK INTER + INTRA:         -11.075
REMARK INTER:                 -10.329
REMARK INTRA:                  -0.746
REMARK UNBOUND:                -1.021
REMARK  Name = 
REMARK  8 active torsions:
REMARK  status: ('A' for Active; 'I' for Inactive)
REMARK    1  A    between atoms: C_1  and  C_2
REMARK    2  A    between atoms: C_5  and  S_6
REMARK    3  A    between atoms: S_6  and  C_7
REMARK    4  A    between atoms: C_13  and  C_14
REMARK    5  A    between atoms: N_16  and  C_17
REMARK    6  A    between atoms: C_17  and  C_18
REMARK    7  A    between atoms: C_18  and  C_19
REMARK    8  A    between atoms: C_19  and  N_20
REMARK                            x       y       z     vdW  Elec       q    Type
REMARK                         _______ _______ _______ _____ _____    ______ ____
ROOT
ATOM      1  C   UNL     1      17.216  -0.165  51.669  0.00  0.00    +0.000 A 
ATOM      2  C   UNL     1      16.567  -1.301  52.134  0.00  0.00    +0.000 A 
ATOM      3  N   UNL     1      17.069  -2.134  53.069  0.00  0.00    +0.000 NA
ATOM      4  C   UNL     1      18.288  -1.866  53.595  0.00  0.00    +0.000 A 
ATOM      5  C   UNL     1      19.027  -0.768  53.140  0.00  0.00    +0.000 A 
ATOM      6  S   UNL     1      20.600  -0.275  53.657  0.00  0.00    +0.000 S 
ATOM      7  C   UNL     1      20.686   0.980  52.510  0.00  0.00    +0.000 A 
ATOM      8  C   UNL     1      19.490   1.099  51.826  0.00  0.00    +0.000 A 
ATOM      9  C   UNL     1      18.523   0.091  52.160  0.00  0.00    +0.000 A 
ENDROOT
BRANCH   7  10
ATOM     10  C   UNL     1      21.874   1.793  52.278  0.00  0.00    +0.000 C 
ATOM     11  O   UNL     1      21.845   2.786  51.550  0.00  0.00    +0.000 OA
ATOM     12  N   UNL     1      23.043   1.386  52.893  0.00  0.00    +0.000 N 
ATOM     13  H   UNL     1      22.996   0.702  53.599  0.00  0.00    +0.000 HD
BRANCH  12  14
ATOM     14  C   UNL     1      24.341   1.935  52.530  0.00  0.00    +0.000 C 
BRANCH  14  15
ATOM     15  C   UNL     1      25.216   2.453  53.680  0.00  0.00    +0.000 C 
BRANCH  15  16
ATOM     16  C   UNL     1      26.654   1.917  53.666  0.00  0.00    +0.000 C 
BRANCH  16  17
ATOM     17  N   UNL     1      26.865   0.742  54.535  0.00  0.00    +0.000 N 
ATOM     18  C   UNL     1      28.308   0.500  54.782  0.00  0.00    +0.000 C 
ATOM     19  C   UNL     1      29.046  -0.171  53.609  0.00  0.00    +0.000 C 
ATOM     20  O   UNL     1      28.422  -1.405  53.239  0.00  0.00    +0.000 OA
ATOM     21  C   UNL     1      27.051  -1.185  52.886  0.00  0.00    +0.000 C 
ATOM     22  C   UNL     1      26.276  -0.522  54.036  0.00  0.00    +0.000 C 
ATOM     23  H   UNL     1      26.375   0.991  55.395  0.00  0.00    +0.000 HD
ENDBRANCH  16  17
ENDBRANCH  15  16
ENDBRANCH  14  15
ENDBRANCH  12  14
ENDBRANCH   7  10
BRANCH   1  24
ATOM     24  S   UNL     1      16.471   0.948  50.520  0.00  0.00    +0.000 S 
BRANCH  24  29
ATOM     25  C   UNL     1      12.733   4.467  53.846  0.00  0.00    +0.000 C 
ATOM     26  C   UNL     1      13.627   3.557  53.057  0.00  0.00    +0.000 A 
ATOM     27  C   UNL     1      13.117   2.434  52.403  0.00  0.00    +0.000 A 
ATOM     28  C   UNL     1      13.955   1.611  51.641  0.00  0.00    +0.000 A 
ATOM     29  C   UNL     1      15.320   1.898  51.513  0.00  0.00    +0.000 A 
ATOM     30  C   UNL     1      15.830   3.010  52.193  0.00  0.00    +0.000 A 
ATOM     31  C   UNL     1      14.994   3.833  52.956  0.00  0.00    +0.000 A 
ENDBRANCH  24  29
ENDBRANCH   1  24
TORSDOF 7
ENDMDL
MODEL 9
REMARK VINA RESULT:    -7.000      2.744      6.897
REMARK INTER + INTRA:         -10.886
REMARK INTER:                 -10.001
REMARK INTRA:                  -0.885
REMARK UNBOUND:                -1.021
REMARK  Name = 
REMARK  8 active torsions:
REMARK  status: ('A' for Active; 'I' for Inactive)
REMARK    1  A    between atoms: C_1  and  C_2
REMARK    2  A    between atoms: C_5  and  S_6
REMARK    3  A    between atoms: S_6  and  C_7
REMARK    4  A    between atoms: C_13  and  C_14
REMARK    5  A    between atoms: N_16  and  C_17
REMARK    6  A    between atoms: C_17  and  C_18
REMARK    7  A    between atoms: C_18  and  C_19
REMARK    8  A    between atoms: C_19  and  N_20
REMARK                            x       y       z     vdW  Elec       q    Type
REMARK                         _______ _______ _______ _____ _____    ______ ____
ROOT
ATOM      1  C   UNL     1      23.606   1.506  52.665  0.00  0.00    +0.000 A 
ATOM      2  C   UNL     1      23.172   0.607  53.630  0.00  0.00    +0.000 A 
ATOM      3  N   UNL     1      22.161  -0.269  53.453  0.00  0.00    +0.000 NA
ATOM      4  C   UNL     1      21.509  -0.281  52.267  0.00  0.00    +0.000 A 
ATOM      5  C   UNL     1      21.853   0.630  51.262  0.00  0.00    +0.000 A 
ATOM      6  S   UNL     1      21.131   0.795  49.702  0.00  0.00    +0.000 S 
ATOM      7  C   UNL     1      22.073   2.156  49.306  0.00  0.00    +0.000 A 
ATOM      8  C   UNL     1      23.006   2.409  50.295  0.00  0.00    +0.000 A 
ATOM      9  C   UNL     1      22.888   1.552  51.442  0.00  0.00    +0.000 A 
ENDROOT
BRANCH   7  10
ATOM     10  C   UNL     1      21.892   2.950  48.096  0.00  0.00    +0.000 C 
ATOM     11  O   UNL     1      22.345   2.584  47.011  0.00  0.00    +0.000 OA
ATOM     12  N   UNL     1      21.211   4.144  48.224  0.00  0.00    +0.000 N 
ATOM     13  H   UNL     1      20.715   4.323  49.056  0.00  0.00    +0.000 HD
BRANCH  12  14
ATOM     14  C   UNL     1      21.202   5.149  47.171  0.00  0.00    +0.000 C 
BRANCH  14  15
ATOM     15  C   UNL     1      21.611   6.573  47.574  0.00  0.00    +0.000 C 
BRANCH  15  16
ATOM     16  C   UNL     1      22.037   6.713  49.042  0.00  0.00    +0.000 C 
BRANCH  16  17
ATOM     17  N   UNL     1      23.134   7.678  49.258  0.00  0.00    +0.000 N 
ATOM     18  C   UNL     1      24.287   7.399  48.367  0.00  0.00    +0.000 C 
ATOM     19  C   UNL     1      25.166   6.219  48.821  0.00  0.00    +0.000 C 
ATOM     20  O   UNL     1      25.644   6.409  50.156  0.00  0.00    +0.000 OA
ATOM     21  C   UNL     1      24.545   6.570  51.062  0.00  0.00    +0.000 C 
ATOM     22  C   UNL     1      23.645   7.746  50.646  0.00  0.00    +0.000 C 
ATOM     23  H   UNL     1      22.705   8.578  49.044  0.00  0.00    +0.000 HD
ENDBRANCH  16  17
ENDBRANCH  15  16
ENDBRANCH  14  15
ENDBRANCH  12  14
ENDBRANCH   7  10
BRANCH   1  24
ATOM     24  S   UNL     1      25.001   2.559  52.911  0.00  0.00    +0.000 S 
BRANCH  24  29
ATOM     25  C   UNL     1      29.833  -1.127  53.607  0.00  0.00    +0.000 C 
ATOM     26  C   UNL     1      28.643  -0.242  53.382  0.00  0.00    +0.000 A 
ATOM     27  C   UNL     1      27.473  -0.740  52.805  0.00  0.00    +0.000 A 
ATOM     28  C   UNL     1      26.356   0.087  52.631  0.00  0.00    +0.000 A 
ATOM     29  C   UNL     1      26.386   1.428  53.034  0.00  0.00    +0.000 A 
ATOM     30  C   UNL     1      27.572   1.928  53.586  0.00  0.00    +0.000 A 
ATOM     31  C   UNL     1      28.688   1.103  53.760  0.00  0.00    +0.000 A 
ENDBRANCH  24  29
ENDBRANCH   1  24
TORSDOF 7
ENDMDL
