MODEL 1
REMARK VINA RESULT:    -7.819      0.000      0.000
REMARK INTER + INTRA:         -11.412
REMARK INTER:                 -10.562
REMARK INTRA:                  -0.850
REMARK UNBOUND:                -0.850
REMARK  Name = 
REMARK  9 active torsions:
REMARK  status: ('A' for Active; 'I' for Inactive)
REMARK    1  A    between atoms: C_1  and  C_2
REMARK    2  A    between atoms: C_2  and  N_3
REMARK    3  A    between atoms: N_3  and  C_4
REMARK    4  A    between atoms: C_4  and  C_5
REMARK    5  A    between atoms: N_8  and  C_9
REMARK    6  A    between atoms: C_16  and  C_17
REMARK    7  A    between atoms: N_21  and  C_22
REMARK    8  A    between atoms: C_22  and  C_23
REMARK    9  A    between atoms: C_22  and  C_24
REMARK                            x       y       z     vdW  Elec       q    Type
REMARK                         _______ _______ _______ _____ _____    ______ ____
ROOT
ATOM      1  C   UNL     1      23.899   1.046  52.874  0.00  0.00    +0.000 A 
ATOM      2  C   UNL     1      23.915  -0.106  53.673  0.00  0.00    +0.000 A 
ATOM      3  F   UNL     1      25.048  -0.526  54.249  0.00  0.00    +0.000 F 
ATOM      4  C   UNL     1      22.755  -0.821  53.941  0.00  0.00    +0.000 A 
ATOM      5  C   UNL     1      21.526  -0.400  53.407  0.00  0.00    +0.000 A 
ATOM      6  C   UNL     1      20.322  -1.207  53.734  0.00  0.00    +0.000 A 
ATOM      7  O   UNL     1      20.422  -2.155  54.501  0.00  0.00    +0.000 OA
ATOM      8  C   UNL     1      19.044  -0.800  53.119  0.00  0.00    +0.000 A 
ATOM      9  C   UNL     1      19.065   0.299  52.352  0.00  0.00    +0.000 A 
ATOM     10  N   UNL     1      20.150   1.131  52.085  0.00  0.00    +0.000 N 
ATOM     11  C   UNL     1      21.425   0.749  52.597  0.00  0.00    +0.000 A 
ATOM     12  C   UNL     1      22.638   1.436  52.363  0.00  0.00    +0.000 A 
ATOM     13  F   UNL     1      22.658   2.518  51.564  0.00  0.00    +0.000 F 
ENDROOT
BRANCH   1  17
ATOM     14  C   UNL     1      27.294   2.375  52.985  0.00  0.00    +0.000 C 
ATOM     15  C   UNL     1      27.185   1.558  51.695  0.00  0.00    +0.000 C 
ATOM     16  C   UNL     1      25.728   1.742  51.291  0.00  0.00    +0.000 C 
ATOM     17  N   UNL     1      25.015   1.811  52.561  0.00  0.00    +0.000 N 
ATOM     18  C   UNL     1      25.935   2.131  53.664  0.00  0.00    +0.000 C 
BRANCH  14  19
ATOM     19  C   UNL     1      28.468   1.974  53.885  0.00  0.00    +0.000 C 
BRANCH  19  20
ATOM     20  N   UNL     1      28.109   0.874  54.785  0.00  0.00    +0.000 N 
ATOM     21  H   UNL     1      28.447   1.089  55.723  0.00  0.00    +0.000 HD
ATOM     22  H   UNL     1      27.094   0.774  54.782  0.00  0.00    +0.000 HD
BRANCH  20  24
ATOM     23  C   UNL     1      29.973  -0.129  53.547  0.00  0.00    +0.000 C 
ATOM     24  C   UNL     1      28.701  -0.390  54.342  0.00  0.00    +0.000 C 
ENDBRANCH  20  24
ENDBRANCH  19  20
ENDBRANCH  14  19
ENDBRANCH   1  17
BRANCH   8  25
ATOM     25  C   UNL     1      17.753  -1.483  53.297  0.00  0.00    +0.000 C 
ATOM     26  O   UNL     1      17.606  -2.632  53.689  0.00  0.00    +0.000 OA
ATOM     27  O   UNL     1      16.687  -0.720  53.024  0.00  0.00    +0.000 OA
ENDBRANCH   8  25
BRANCH  10  28
ATOM     28  C   UNL     1      20.034   2.331  51.207  0.00  0.00    +0.000 C 
ATOM     29  C   UNL     1      19.794   1.920  49.751  0.00  0.00    +0.000 C 
ATOM     30  C   UNL     1      19.004   3.344  51.722  0.00  0.00    +0.000 C 
ENDBRANCH  10  28
TORSDOF 6
ENDMDL
MODEL 2
REMARK VINA RESULT:    -7.684      3.658      5.830
REMARK INTER + INTRA:         -11.229
REMARK INTER:                 -10.271
REMARK INTRA:                  -0.958
REMARK UNBOUND:                -0.850
REMARK  Name = 
REMARK  9 active torsions:
REMARK  status: ('A' for Active; 'I' for Inactive)
REMARK    1  A    between atoms: C_1  and  C_2
REMARK    2  A    between atoms: C_2  and  N_3
REMARK    3  A    between atoms: N_3  and  C_4
REMARK    4  A    between atoms: C_4  and  C_5
REMARK    5  A    between atoms: N_8  and  C_9
REMARK    6  A    between atoms: C_16  and  C_17
REMARK    7  A    between atoms: N_21  and  C_22
REMARK    8  A    between atoms: C_22  and  C_23
REMARK    9  A    between atoms: C_22  and  C_24
REMARK                            x       y       z     vdW  Elec       q    Type
REMARK                         _______ _______ _______ _____ _____    ______ ____
ROOT
ATOM      1  C   UNL     1      22.762   4.059  50.903  0.00  0.00    +0.000 A 
ATOM      2  C   UNL     1      21.435   3.800  51.274  0.00  0.00    +0.000 A 
ATOM      3  F   UNL     1      20.434   4.563  50.818  0.00  0.00    +0.000 F 
ATOM      4  C   UNL     1      21.103   2.719  52.080  0.00  0.00    +0.000 A 
ATOM      5  C   UNL     1      22.105   1.853  52.548  0.00  0.00    +0.000 A 
ATOM      6  C   UNL     1      21.683   0.714  53.404  0.00  0.00    +0.000 A 
ATOM      7  O   UNL     1      20.492   0.525  53.613  0.00  0.00    +0.000 OA
ATOM      8  C   UNL     1      22.743  -0.156  53.947  0.00  0.00    +0.000 A 
ATOM      9  C   UNL     1      24.002   0.124  53.583  0.00  0.00    +0.000 A 
ATOM     10  N   UNL     1      24.435   1.129  52.719  0.00  0.00    +0.000 N 
ATOM     11  C   UNL     1      23.462   2.042  52.218  0.00  0.00    +0.000 A 
ATOM     12  C   UNL     1      23.736   3.157  51.393  0.00  0.00    +0.000 A 
ATOM     13  F   UNL     1      25.005   3.453  51.058  0.00  0.00    +0.000 F 
ENDROOT
BRANCH   1  17
ATOM     14  C   UNL     1      24.696   6.909  49.701  0.00  0.00    +0.000 C 
ATOM     15  C   UNL     1      24.980   5.750  48.742  0.00  0.00    +0.000 C 
ATOM     16  C   UNL     1      23.670   4.974  48.741  0.00  0.00    +0.000 C 
ATOM     17  N   UNL     1      23.171   5.118  50.103  0.00  0.00    +0.000 N 
ATOM     18  C   UNL     1      23.815   6.255  50.780  0.00  0.00    +0.000 C 
BRANCH  14  19
ATOM     19  C   UNL     1      25.952   7.553  50.297  0.00  0.00    +0.000 C 
BRANCH  19  20
ATOM     20  N   UNL     1      27.162   7.156  49.571  0.00  0.00    +0.000 N 
ATOM     21  H   UNL     1      27.815   6.723  50.225  0.00  0.00    +0.000 HD
ATOM     22  H   UNL     1      26.896   6.496  48.839  0.00  0.00    +0.000 HD
BRANCH  20  24
ATOM     23  C   UNL     1      27.920   9.460  49.933  0.00  0.00    +0.000 C 
ATOM     24  C   UNL     1      27.808   8.310  48.942  0.00  0.00    +0.000 C 
ENDBRANCH  20  24
ENDBRANCH  19  20
ENDBRANCH  14  19
ENDBRANCH   1  17
BRANCH   8  25
ATOM     25  C   UNL     1      22.532  -1.314  54.832  0.00  0.00    +0.000 C 
ATOM     26  O   UNL     1      21.644  -2.146  54.710  0.00  0.00    +0.000 OA
ATOM     27  O   UNL     1      23.439  -1.429  55.809  0.00  0.00    +0.000 OA
ENDBRANCH   8  25
BRANCH  10  28
ATOM     28  C   UNL     1      25.877   1.332  52.396  0.00  0.00    +0.000 C 
ATOM     29  C   UNL     1      26.617   1.961  53.581  0.00  0.00    +0.000 C 
ATOM     30  C   UNL     1      26.553   0.058  51.875  0.00  0.00    +0.000 C 
ENDBRANCH  10  28
TORSDOF 6
ENDMDL
MODEL 3
REMARK VINA RESULT:    -7.613      1.904      2.496
REMARK INTER + INTRA:         -11.134
REMARK INTER:                 -10.619
REMARK INTRA:                  -0.515
REMARK UNBOUND:                -0.850
REMARK  Name = 
REMARK  9 active torsions:
REMARK  status: ('A' for Active; 'I' for Inactive)
REMARK    1  A    between atoms: C_1  and  C_2
REMARK    2  A    between atoms: C_2  and  N_3
REMARK    3  A    between atoms: N_3  and  C_4
REMARK    4  A    between atoms: C_4  and  C_5
REMARK    5  A    between atoms: N_8  and  C_9
REMARK    6  A    between atoms: C_16  and  C_17
REMARK    7  A    between atoms: N_21  and  C_22
REMARK    8  A    between atoms: C_22  and  C_23
REMARK    9  A    between atoms: C_22  and  C_24
REMARK                            x       y       z     vdW  Elec       q    Type
REMARK                         _______ _______ _______ _____ _____    ______ ____
ROOT
ATOM      1  C   UNL     1      22.751   0.244  53.350  0.00  0.00    +0.000 A 
ATOM      2  C   UNL     1      21.881  -0.508  54.152  0.00  0.00    +0.000 A 
ATOM      3  F   UNL     1      22.297  -1.029  55.313  0.00  0.00    +0.000 F 
ATOM      4  C   UNL     1      20.550  -0.696  53.804  0.00  0.00    +0.000 A 
ATOM      5  C   UNL     1      20.043  -0.130  52.623  0.00  0.00    +0.000 A 
ATOM      6  C   UNL     1      18.609  -0.366  52.309  0.00  0.00    +0.000 A 
ATOM      7  O   UNL     1      17.909  -0.973  53.108  0.00  0.00    +0.000 OA
ATOM      8  C   UNL     1      18.096   0.174  51.036  0.00  0.00    +0.000 A 
ATOM      9  C   UNL     1      18.955   0.879  50.286  0.00  0.00    +0.000 A 
ATOM     10  N   UNL     1      20.280   1.193  50.579  0.00  0.00    +0.000 N 
ATOM     11  C   UNL     1      20.851   0.641  51.763  0.00  0.00    +0.000 A 
ATOM     12  C   UNL     1      22.194   0.799  52.173  0.00  0.00    +0.000 A 
ATOM     13  F   UNL     1      23.061   1.478  51.400  0.00  0.00    +0.000 F 
ENDROOT
BRANCH   1  17
ATOM     14  C   UNL     1      26.383  -0.086  53.271  0.00  0.00    +0.000 C 
ATOM     15  C   UNL     1      26.047   1.232  52.569  0.00  0.00    +0.000 C 
ATOM     16  C   UNL     1      24.800   1.706  53.303  0.00  0.00    +0.000 C 
ATOM     17  N   UNL     1      24.092   0.474  53.630  0.00  0.00    +0.000 N 
ATOM     18  C   UNL     1      24.996  -0.685  53.563  0.00  0.00    +0.000 C 
BRANCH  14  19
ATOM     19  C   UNL     1      27.256  -1.034  52.442  0.00  0.00    +0.000 C 
BRANCH  19  20
ATOM     20  N   UNL     1      27.666  -2.210  53.216  0.00  0.00    +0.000 N 
ATOM     21  H   UNL     1      27.334  -2.109  54.175  0.00  0.00    +0.000 HD
ATOM     22  H   UNL     1      27.260  -3.039  52.780  0.00  0.00    +0.000 HD
BRANCH  20  24
ATOM     23  C   UNL     1      29.788  -1.040  53.591  0.00  0.00    +0.000 C 
ATOM     24  C   UNL     1      29.123  -2.360  53.226  0.00  0.00    +0.000 C 
ENDBRANCH  20  24
ENDBRANCH  19  20
ENDBRANCH  14  19
ENDBRANCH   1  17
BRANCH   8  25
ATOM     25  C   UNL     1      16.719   0.024  50.536  0.00  0.00    +0.000 C 
ATOM     26  O   UNL     1      15.724   0.529  51.036  0.00  0.00    +0.000 OA
ATOM     27  O   UNL     1      16.619  -0.707  49.419  0.00  0.00    +0.000 OA
ENDBRANCH   8  25
BRANCH  10  28
ATOM     28  C   UNL     1      21.131   1.992  49.650  0.00  0.00    +0.000 C 
ATOM     29  C   UNL     1      21.559   1.150  48.444  0.00  0.00    +0.000 C 
ATOM     30  C   UNL     1      20.485   3.324  49.251  0.00  0.00    +0.000 C 
ENDBRANCH  10  28
TORSDOF 6
ENDMDL
MODEL 4
REMARK VINA RESULT:    -7.572      3.342      7.825
REMARK INTER + INTRA:         -11.079
REMARK INTER:                 -10.419
REMARK INTRA:                  -0.659
REMARK UNBOUND:                -0.850
REMARK  Name = 
REMARK  9 active torsions:
REMARK  status: ('A' for Active; 'I' for Inactive)
REMARK    1  A    between atoms: C_1  and  C_2
REMARK    2  A    between atoms: C_2  and  N_3
REMARK    3  A    between atoms: N_3  and  C_4
REMARK    4  A    between atoms: C_4  and  C_5
REMARK    5  A    between atoms: N_8  and  C_9
REMARK    6  A    between atoms: C_16  and  C_17
REMARK    7  A    between atoms: N_21  and  C_22
REMARK    8  A    between atoms: C_22  and  C_23
REMARK    9  A    between atoms: C_22  and  C_24
REMARK                            x       y       z     vdW  Elec       q    Type
REMARK                         _______ _______ _______ _____ _____    ______ ____
ROOT
ATOM      1  C   UNL     1      22.166   0.566  52.084  0.00  0.00    +0.000 A 
ATOM      2  C   UNL     1      22.538  -0.287  53.132  0.00  0.00    +0.000 A 
ATOM      3  F   UNL     1      21.656  -1.141  53.666  0.00  0.00    +0.000 F 
ATOM      4  C   UNL     1      23.838  -0.319  53.618  0.00  0.00    +0.000 A 
ATOM      5  C   UNL     1      24.820   0.518  53.063  0.00  0.00    +0.000 A 
ATOM      6  C   UNL     1      26.193   0.434  53.626  0.00  0.00    +0.000 A 
ATOM      7  O   UNL     1      26.440  -0.395  54.491  0.00  0.00    +0.000 OA
ATOM      8  C   UNL     1      27.206   1.360  53.086  0.00  0.00    +0.000 A 
ATOM      9  C   UNL     1      26.817   2.171  52.092  0.00  0.00    +0.000 A 
ATOM     10  N   UNL     1      25.566   2.226  51.479  0.00  0.00    +0.000 N 
ATOM     11  C   UNL     1      24.529   1.403  52.005  0.00  0.00    +0.000 A 
ATOM     12  C   UNL     1      23.190   1.386  51.552  0.00  0.00    +0.000 A 
ATOM     13  F   UNL     1      22.796   2.226  50.578  0.00  0.00    +0.000 F 
ENDROOT
BRANCH   1  17
ATOM     14  C   UNL     1      19.001   1.994  50.967  0.00  0.00    +0.000 C 
ATOM     15  C   UNL     1      19.773   1.599  49.706  0.00  0.00    +0.000 C 
ATOM     16  C   UNL     1      20.563   0.376  50.153  0.00  0.00    +0.000 C 
ATOM     17  N   UNL     1      20.888   0.655  51.546  0.00  0.00    +0.000 N 
ATOM     18  C   UNL     1      20.005   1.697  52.093  0.00  0.00    +0.000 C 
BRANCH  14  19
ATOM     19  C   UNL     1      18.531   3.452  50.984  0.00  0.00    +0.000 C 
BRANCH  19  20
ATOM     20  N   UNL     1      17.654   3.726  52.126  0.00  0.00    +0.000 N 
ATOM     21  H   UNL     1      17.535   2.869  52.667  0.00  0.00    +0.000 HD
ATOM     22  H   UNL     1      18.085   4.454  52.696  0.00  0.00    +0.000 HD
BRANCH  20  24
ATOM     23  C   UNL     1      15.364   4.215  52.855  0.00  0.00    +0.000 C 
ATOM     24  C   UNL     1      16.340   4.200  51.686  0.00  0.00    +0.000 C 
ENDBRANCH  20  24
ENDBRANCH  19  20
ENDBRANCH  14  19
ENDBRANCH   1  17
BRANCH   8  25
ATOM     25  C   UNL     1      28.607   1.449  53.529  0.00  0.00    +0.000 C 
ATOM     26  O   UNL     1      29.398   0.518  53.572  0.00  0.00    +0.000 OA
ATOM     27  O   UNL     1      28.997   2.685  53.866  0.00  0.00    +0.000 OA
ENDBRANCH   8  25
BRANCH  10  28
ATOM     28  C   UNL     1      25.265   3.183  50.375  0.00  0.00    +0.000 C 
ATOM     29  C   UNL     1      24.759   4.516  50.933  0.00  0.00    +0.000 C 
ATOM     30  C   UNL     1      26.435   3.348  49.397  0.00  0.00    +0.000 C 
ENDBRANCH  10  28
TORSDOF 6
ENDMDL
MODEL 5
REMARK VINA RESULT:    -7.497      4.228      5.411
REMARK INTER + INTRA:         -10.977
REMARK INTER:                  -9.597
REMARK INTRA:                  -1.380
REMARK UNBOUND:                -0.850
REMARK  Name = 
REMARK  9 active torsions:
REMARK  status: ('A' for Active; 'I' for Inactive)
REMARK    1  A    between atoms: C_1  and  C_2
REMARK    2  A    between atoms: C_2  and  N_3
REMARK    3  A    between atoms: N_3  and  C_4
REMARK    4  A    between atoms: C_4  and  C_5
REMARK    5  A    between atoms: N_8  and  C_9
REMARK    6  A    between atoms: C_16  and  C_17
REMARK    7  A    between atoms: N_21  and  C_22
REMARK    8  A    between atoms: C_22  and  C_23
REMARK    9  A    between atoms: C_22  and  C_24
REMARK                            x       y       z     vdW  Elec       q    Type
REMARK                         _______ _______ _______ _____ _____    ______ ____
ROOT
ATOM      1  C   UNL     1      23.980   1.939  52.175  0.00  0.00    +0.000 A 
ATOM      2  C   UNL     1      24.298   3.092  52.906  0.00  0.00    +0.000 A 
ATOM      3  F   UNL     1      25.129   3.033  53.954  0.00  0.00    +0.000 F 
ATOM      4  C   UNL     1      23.810   4.341  52.543  0.00  0.00    +0.000 A 
ATOM      5  C   UNL     1      22.974   4.475  51.422  0.00  0.00    +0.000 A 
ATOM      6  C   UNL     1      22.489   5.838  51.085  0.00  0.00    +0.000 A 
ATOM      7  O   UNL     1      22.880   6.796  51.739  0.00  0.00    +0.000 OA
ATOM      8  C   UNL     1      21.559   5.966  49.947  0.00  0.00    +0.000 A 
ATOM      9  C   UNL     1      21.266   4.843  49.276  0.00  0.00    +0.000 A 
ATOM     10  N   UNL     1      21.761   3.561  49.504  0.00  0.00    +0.000 N 
ATOM     11  C   UNL     1      22.610   3.365  50.633  0.00  0.00    +0.000 A 
ATOM     12  C   UNL     1      23.140   2.123  51.050  0.00  0.00    +0.000 A 
ATOM     13  F   UNL     1      22.815   0.995  50.394  0.00  0.00    +0.000 F 
ENDROOT
BRANCH   1  17
ATOM     14  C   UNL     1      26.222  -0.794  53.071  0.00  0.00    +0.000 C 
ATOM     15  C   UNL     1      25.313  -0.560  54.279  0.00  0.00    +0.000 C 
ATOM     16  C   UNL     1      24.005  -0.104  53.645  0.00  0.00    +0.000 C 
ATOM     17  N   UNL     1      24.427   0.659  52.476  0.00  0.00    +0.000 N 
ATOM     18  C   UNL     1      25.813   0.332  52.107  0.00  0.00    +0.000 C 
BRANCH  14  19
ATOM     19  C   UNL     1      27.720  -0.758  53.395  0.00  0.00    +0.000 C 
BRANCH  19  20
ATOM     20  N   UNL     1      27.985  -0.059  54.656  0.00  0.00    +0.000 N 
ATOM     21  H   UNL     1      27.130   0.403  54.966  0.00  0.00    +0.000 HD
ATOM     22  H   UNL     1      28.293  -0.745  55.346  0.00  0.00    +0.000 HD
BRANCH  20  24
ATOM     23  C   UNL     1      28.524   2.134  53.702  0.00  0.00    +0.000 C 
ATOM     24  C   UNL     1      29.041   0.943  54.497  0.00  0.00    +0.000 C 
ENDBRANCH  20  24
ENDBRANCH  19  20
ENDBRANCH  14  19
ENDBRANCH   1  17
BRANCH   8  25
ATOM     25  C   UNL     1      20.950   7.220  49.476  0.00  0.00    +0.000 C 
ATOM     26  O   UNL     1      19.850   7.642  49.805  0.00  0.00    +0.000 OA
ATOM     27  O   UNL     1      21.727   7.930  48.649  0.00  0.00    +0.000 OA
ENDBRANCH   8  25
BRANCH  10  28
ATOM     28  C   UNL     1      21.350   2.391  48.675  0.00  0.00    +0.000 C 
ATOM     29  C   UNL     1      19.849   2.441  48.369  0.00  0.00    +0.000 C 
ATOM     30  C   UNL     1      22.212   2.222  47.418  0.00  0.00    +0.000 C 
ENDBRANCH  10  28
TORSDOF 6
ENDMDL
MODEL 6
REMARK VINA RESULT:    -7.361      3.594      4.962
REMARK INTER + INTRA:         -10.793
REMARK INTER:                 -10.388
REMARK INTRA:                  -0.405
REMARK UNBOUND:                -0.850
REMARK  Name = 
REMARK  9 active torsions:
REMARK  status: ('A' for Active; 'I' for Inactive)
REMARK    1  A    between atoms: C_1  and  C_2
REMARK    2  A    between atoms: C_2  and  N_3
REMARK    3  A    between atoms: N_3  and  C_4
REMARK    4  A    between atoms: C_4  and  C_5
REMARK    5  A    between atoms: N_8  and  C_9
REMARK    6  A    between atoms: C_16  and  C_17
REMARK    7  A    between atoms: N_21  and  C_22
REMARK    8  A    between atoms: C_22  and  C_23
REMARK    9  A    between atoms: C_22  and  C_24
REMARK                            x       y       z     vdW  Elec       q    Type
REMARK                         _______ _______ _______ _____ _____    ______ ____
ROOT
ATOM      1  C   UNL     1      24.993   3.048  50.625  0.00  0.00    +0.000 A 
ATOM      2  C   UNL     1      25.966   2.424  51.418  0.00  0.00    +0.000 A 
ATOM      3  F   UNL     1      27.256   2.770  51.319  0.00  0.00    +0.000 F 
ATOM      4  C   UNL     1      25.628   1.467  52.366  0.00  0.00    +0.000 A 
ATOM      5  C   UNL     1      24.286   1.100  52.551  0.00  0.00    +0.000 A 
ATOM      6  C   UNL     1      23.991   0.073  53.584  0.00  0.00    +0.000 A 
ATOM      7  O   UNL     1      24.900  -0.362  54.279  0.00  0.00    +0.000 OA
ATOM      8  C   UNL     1      22.588  -0.359  53.731  0.00  0.00    +0.000 A 
ATOM      9  C   UNL     1      21.683   0.249  52.952  0.00  0.00    +0.000 A 
ATOM     10  N   UNL     1      21.902   1.271  52.030  0.00  0.00    +0.000 N 
ATOM     11  C   UNL     1      23.247   1.681  51.797  0.00  0.00    +0.000 A 
ATOM     12  C   UNL     1      23.653   2.650  50.851  0.00  0.00    +0.000 A 
ATOM     13  F   UNL     1      22.744   3.231  50.047  0.00  0.00    +0.000 F 
ENDROOT
BRANCH   1  17
ATOM     14  C   UNL     1      25.488   6.310  49.070  0.00  0.00    +0.000 C 
ATOM     15  C   UNL     1      26.862   5.637  49.124  0.00  0.00    +0.000 C 
ATOM     16  C   UNL     1      26.529   4.158  48.969  0.00  0.00    +0.000 C 
ATOM     17  N   UNL     1      25.252   4.010  49.657  0.00  0.00    +0.000 N 
ATOM     18  C   UNL     1      24.586   5.312  49.815  0.00  0.00    +0.000 C 
BRANCH  14  19
ATOM     19  C   UNL     1      25.448   7.705  49.701  0.00  0.00    +0.000 C 
BRANCH  19  20
ATOM     20  N   UNL     1      26.606   7.943  50.568  0.00  0.00    +0.000 N 
ATOM     21  H   UNL     1      26.294   7.972  51.538  0.00  0.00    +0.000 HD
ATOM     22  H   UNL     1      27.274   7.184  50.427  0.00  0.00    +0.000 HD
BRANCH  20  24
ATOM     23  C   UNL     1      27.853   9.148  48.834  0.00  0.00    +0.000 C 
ATOM     24  C   UNL     1      27.267   9.207  50.238  0.00  0.00    +0.000 C 
ENDBRANCH  20  24
ENDBRANCH  19  20
ENDBRANCH  14  19
ENDBRANCH   1  17
BRANCH   8  25
ATOM     25  C   UNL     1      22.100  -1.379  54.674  0.00  0.00    +0.000 C 
ATOM     26  O   UNL     1      22.728  -1.823  55.625  0.00  0.00    +0.000 OA
ATOM     27  O   UNL     1      20.847  -1.787  54.439  0.00  0.00    +0.000 OA
ENDBRANCH   8  25
BRANCH  10  28
ATOM     28  C   UNL     1      20.797   1.863  51.223  0.00  0.00    +0.000 C 
ATOM     29  C   UNL     1      20.116   0.792  50.363  0.00  0.00    +0.000 C 
ATOM     30  C   UNL     1      19.805   2.667  52.073  0.00  0.00    +0.000 C 
ENDBRANCH  10  28
TORSDOF 6
ENDMDL
MODEL 7
REMARK VINA RESULT:    -7.241      3.739      7.435
REMARK INTER + INTRA:         -10.631
REMARK INTER:                  -9.476
REMARK INTRA:                  -1.155
REMARK UNBOUND:                -0.850
REMARK  Name = 
REMARK  9 active torsions:
REMARK  status: ('A' for Active; 'I' for Inactive)
REMARK    1  A    between atoms: C_1  and  C_2
REMARK    2  A    between atoms: C_2  and  N_3
REMARK    3  A    between atoms: N_3  and  C_4
REMARK    4  A    between atoms: C_4  and  C_5
REMARK    5  A    between atoms: N_8  and  C_9
REMARK    6  A    between atoms: C_16  and  C_17
REMARK    7  A    between atoms: N_21  and  C_22
REMARK    8  A    between atoms: C_22  and  C_23
REMARK    9  A    between atoms: C_22  and  C_24
REMARK                            x       y       z     vdW  Elec       q    Type
REMARK                         _______ _______ _______ _____ _____    ______ ____
ROOT
ATOM      1  C   UNL     1      22.411   2.654  51.171  0.00  0.00    +0.000 A 
ATOM      2  C   UNL     1      23.590   3.215  50.662  0.00  0.00    +0.000 A 
ATOM      3  F   UNL     1      23.547   4.260  49.827  0.00  0.00    +0.000 F 
ATOM      4  C   UNL     1      24.842   2.747  51.041  0.00  0.00    +0.000 A 
ATOM      5  C   UNL     1      24.952   1.686  51.954  0.00  0.00    +0.000 A 
ATOM      6  C   UNL     1      26.320   1.234  52.320  0.00  0.00    +0.000 A 
ATOM      7  O   UNL     1      27.291   1.835  51.881  0.00  0.00    +0.000 OA
ATOM      8  C   UNL     1      26.432   0.077  53.228  0.00  0.00    +0.000 A 
ATOM      9  C   UNL     1      25.287  -0.444  53.690  0.00  0.00    +0.000 A 
ATOM     10  N   UNL     1      23.989  -0.003  53.438  0.00  0.00    +0.000 N 
ATOM     11  C   UNL     1      23.816   1.069  52.514  0.00  0.00    +0.000 A 
ATOM     12  C   UNL     1      22.572   1.591  52.093  0.00  0.00    +0.000 A 
ATOM     13  F   UNL     1      21.425   1.042  52.532  0.00  0.00    +0.000 F 
ENDROOT
BRANCH   1  17
ATOM     14  C   UNL     1      18.871   2.501  50.307  0.00  0.00    +0.000 C 
ATOM     15  C   UNL     1      18.951   3.063  51.728  0.00  0.00    +0.000 C 
ATOM     16  C   UNL     1      20.261   3.841  51.719  0.00  0.00    +0.000 C 
ATOM     17  N   UNL     1      21.127   3.065  50.840  0.00  0.00    +0.000 N 
ATOM     18  C   UNL     1      20.337   2.164  49.986  0.00  0.00    +0.000 C 
BRANCH  14  19
ATOM     19  C   UNL     1      17.956   1.280  50.166  0.00  0.00    +0.000 C 
BRANCH  19  20
ATOM     20  N   UNL     1      18.576   0.071  50.715  0.00  0.00    +0.000 N 
ATOM     21  H   UNL     1      18.664  -0.624  49.973  0.00  0.00    +0.000 HD
ATOM     22  H   UNL     1      19.493   0.320  51.087  0.00  0.00    +0.000 HD
BRANCH  20  24
ATOM     23  C   UNL     1      18.656  -0.817  53.000  0.00  0.00    +0.000 C 
ATOM     24  C   UNL     1      17.772  -0.492  51.803  0.00  0.00    +0.000 C 
ENDBRANCH  20  24
ENDBRANCH  19  20
ENDBRANCH  14  19
ENDBRANCH   1  17
BRANCH   8  25
ATOM     25  C   UNL     1      27.691  -0.533  53.685  0.00  0.00    +0.000 C 
ATOM     26  O   UNL     1      28.322  -1.391  53.085  0.00  0.00    +0.000 OA
ATOM     27  O   UNL     1      28.149  -0.042  54.844  0.00  0.00    +0.000 OA
ENDBRANCH   8  25
BRANCH  10  28
ATOM     28  C   UNL     1      22.794  -0.679  54.021  0.00  0.00    +0.000 C 
ATOM     29  C   UNL     1      22.286  -1.785  53.090  0.00  0.00    +0.000 C 
ATOM     30  C   UNL     1      23.027  -1.165  55.457  0.00  0.00    +0.000 C 
ENDBRANCH  10  28
TORSDOF 6
ENDMDL
MODEL 8
REMARK VINA RESULT:    -6.959      3.247      7.906
REMARK INTER + INTRA:         -10.250
REMARK INTER:                  -9.440
REMARK INTRA:                  -0.810
REMARK UNBOUND:                -0.850
REMARK  Name = 
REMARK  9 active torsions:
REMARK  status: ('A' for Active; 'I' for Inactive)
REMARK    1  A    between atoms: C_1  and  C_2
REMARK    2  A    between atoms: C_2  and  N_3
REMARK    3  A    between atoms: N_3  and  C_4
REMARK    4  A    between atoms: C_4  and  C_5
REMARK    5  A    between atoms: N_8  and  C_9
REMARK    6  A    between atoms: C_16  and  C_17
REMARK    7  A    between atoms: N_21  and  C_22
REMARK    8  A    between atoms: C_22  and  C_23
REMARK    9  A    between atoms: C_22  and  C_24
REMARK                            x       y       z     vdW  Elec       q    Type
REMARK                         _______ _______ _______ _____ _____    ______ ____
ROOT
ATOM      1  C   UNL     1      21.967   1.536  51.746  0.00  0.00    +0.000 A 
ATOM      2  C   UNL     1      22.145   0.730  52.879  0.00  0.00    +0.000 A 
ATOM      3  F   UNL     1      21.112   0.078  53.426  0.00  0.00    +0.000 F 
ATOM      4  C   UNL     1      23.399   0.535  53.443  0.00  0.00    +0.000 A 
ATOM      5  C   UNL     1      24.529   1.152  52.882  0.00  0.00    +0.000 A 
ATOM      6  C   UNL     1      25.842   0.900  53.531  0.00  0.00    +0.000 A 
ATOM      7  O   UNL     1      25.910   0.121  54.473  0.00  0.00    +0.000 OA
ATOM      8  C   UNL     1      27.017   1.602  52.981  0.00  0.00    +0.000 A 
ATOM      9  C   UNL     1      26.812   2.374  51.904  0.00  0.00    +0.000 A 
ATOM     10  N   UNL     1      25.617   2.574  51.215  0.00  0.00    +0.000 N 
ATOM     11  C   UNL     1      24.436   1.975  51.742  0.00  0.00    +0.000 A 
ATOM     12  C   UNL     1      23.134   2.133  51.213  0.00  0.00    +0.000 A 
ATOM     13  F   UNL     1      22.929   2.936  50.153  0.00  0.00    +0.000 F 
ENDROOT
BRANCH   1  17
ATOM     14  C   UNL     1      18.558   1.028  50.554  0.00  0.00    +0.000 C 
ATOM     15  C   UNL     1      18.479   2.068  51.673  0.00  0.00    +0.000 C 
ATOM     16  C   UNL     1      19.804   2.809  51.549  0.00  0.00    +0.000 C 
ATOM     17  N   UNL     1      20.747   1.780  51.128  0.00  0.00    +0.000 N 
ATOM     18  C   UNL     1      20.040   0.619  50.565  0.00  0.00    +0.000 C 
BRANCH  14  19
ATOM     19  C   UNL     1      17.628  -0.175  50.748  0.00  0.00    +0.000 C 
BRANCH  19  20
ATOM     20  N   UNL     1      17.570  -0.595  52.151  0.00  0.00    +0.000 N 
ATOM     21  H   UNL     1      18.033  -1.499  52.247  0.00  0.00    +0.000 HD
ATOM     22  H   UNL     1      18.040   0.112  52.718  0.00  0.00    +0.000 HD
BRANCH  20  24
ATOM     23  C   UNL     1      15.505  -1.901  51.948  0.00  0.00    +0.000 C 
ATOM     24  C   UNL     1      16.186  -0.714  52.615  0.00  0.00    +0.000 C 
ENDBRANCH  20  24
ENDBRANCH  19  20
ENDBRANCH  14  19
ENDBRANCH   1  17
BRANCH   8  25
ATOM     25  C   UNL     1      28.392   1.505  53.498  0.00  0.00    +0.000 C 
ATOM     26  O   UNL     1      29.034   2.426  53.981  0.00  0.00    +0.000 OA
ATOM     27  O   UNL     1      28.914   0.273  53.438  0.00  0.00    +0.000 OA
ENDBRANCH   8  25
BRANCH  10  28
ATOM     28  C   UNL     1      25.528   3.465  50.023  0.00  0.00    +0.000 C 
ATOM     29  C   UNL     1      25.153   4.892  50.437  0.00  0.00    +0.000 C 
ATOM     30  C   UNL     1      26.782   3.406  49.143  0.00  0.00    +0.000 C 
ENDBRANCH  10  28
TORSDOF 6
ENDMDL
MODEL 9
REMARK VINA RESULT:    -6.806      4.232      7.369
REMARK INTER + INTRA:         -10.044
REMARK INTER:                  -8.782
REMARK INTRA:                  -1.262
REMARK UNBOUND:                -0.850
REMARK  Name = 
REMARK  9 active torsions:
REMARK  status: ('A' for Active; 'I' for Inactive)
REMARK    1  A    between atoms: C_1  and  C_2
REMARK    2  A    between atoms: C_2  and  N_3
REMARK    3  A    between atoms: N_3  and  C_4
REMARK    4  A    between atoms: C_4  and  C_5
REMARK    5  A    between atoms: N_8  and  C_9
REMARK    6  A    between atoms: C_16  and  C_17
REMARK    7  A    between atoms: N_21  and  C_22
REMARK    8  A    between atoms: C_22  and  C_23
REMARK    9  A    between atoms: C_22  and  C_24
REMARK                            x       y       z     vdW  Elec       q    Type
REMARK                         _______ _______ _______ _____ _____    ______ ____
ROOT
ATOM      1  C   UNL     1      23.141   3.081  49.748  0.00  0.00    +0.000 A 
ATOM      2  C   UNL     1      24.452   3.567  49.651  0.00  0.00    +0.000 A 
ATOM      3  F   UNL     1      24.763   4.528  48.772  0.00  0.00    +0.000 F 
ATOM      4  C   UNL     1      25.460   3.114  50.491  0.00  0.00    +0.000 A 
ATOM      5  C   UNL     1      25.183   2.144  51.468  0.00  0.00    +0.000 A 
ATOM      6  C   UNL     1      26.304   1.704  52.338  0.00  0.00    +0.000 A 
ATOM      7  O   UNL     1      27.399   2.240  52.227  0.00  0.00    +0.000 OA
ATOM      8  C   UNL     1      26.025   0.638  53.318  0.00  0.00    +0.000 A 
ATOM      9  C   UNL     1      24.765   0.186  53.379  0.00  0.00    +0.000 A 
ATOM     10  N   UNL     1      23.666   0.625  52.643  0.00  0.00    +0.000 N 
ATOM     11  C   UNL     1      23.890   1.606  51.633  0.00  0.00    +0.000 A 
ATOM     12  C   UNL     1      22.907   2.109  50.750  0.00  0.00    +0.000 A 
ATOM     13  F   UNL     1      21.652   1.627  50.793  0.00  0.00    +0.000 F 
ENDROOT
BRANCH   1  17
ATOM     14  C   UNL     1      20.823   5.249  47.951  0.00  0.00    +0.000 C 
ATOM     15  C   UNL     1      21.688   4.560  46.893  0.00  0.00    +0.000 C 
ATOM     16  C   UNL     1      21.982   3.202  47.517  0.00  0.00    +0.000 C 
ATOM     17  N   UNL     1      22.082   3.483  48.944  0.00  0.00    +0.000 N 
ATOM     18  C   UNL     1      21.445   4.768  49.273  0.00  0.00    +0.000 C 
BRANCH  14  19
ATOM     19  C   UNL     1      20.801   6.778  47.847  0.00  0.00    +0.000 C 
BRANCH  19  20
ATOM     20  N   UNL     1      21.916   7.386  48.579  0.00  0.00    +0.000 N 
ATOM     21  H   UNL     1      21.542   7.968  49.330  0.00  0.00    +0.000 HD
ATOM     22  H   UNL     1      22.498   6.639  48.959  0.00  0.00    +0.000 HD
BRANCH  20  24
ATOM     23  C   UNL     1      23.993   7.456  47.278  0.00  0.00    +0.000 C 
ATOM     24  C   UNL     1      22.742   8.215  47.698  0.00  0.00    +0.000 C 
ENDBRANCH  20  24
ENDBRANCH  19  20
ENDBRANCH  14  19
ENDBRANCH   1  17
BRANCH   8  25
ATOM     25  C   UNL     1      27.005   0.050  54.246  0.00  0.00    +0.000 C 
ATOM     26  O   UNL     1      28.105  -0.385  53.935  0.00  0.00    +0.000 OA
ATOM     27  O   UNL     1      26.616   0.053  55.527  0.00  0.00    +0.000 OA
ENDBRANCH   8  25
BRANCH  10  28
ATOM     28  C   UNL     1      22.308   0.032  52.811  0.00  0.00    +0.000 C 
ATOM     29  C   UNL     1      22.404  -1.457  53.157  0.00  0.00    +0.000 C 
ATOM     30  C   UNL     1      21.435   0.821  53.795  0.00  0.00    +0.000 C 
ENDBRANCH  10  28
TORSDOF 6
ENDMDL
