MODEL 1
REMARK VINA RESULT:    -9.628      0.000      0.000
REMARK INTER + INTRA:         -12.120
REMARK INTER:                 -11.316
REMARK INTRA:                  -0.804
REMARK UNBOUND:                -0.804
REMARK  Name = 
REMARK  5 active torsions:
REMARK  status: ('A' for Active; 'I' for Inactive)
REMARK    1  A    between atoms: C_1  and  N_2
REMARK    2  A    between atoms: C_5  and  C_6
REMARK    3  A    between atoms: C_7  and  O_8
REMARK    4  A    between atoms: C_10  and  O_11
REMARK    5  A    between atoms: C_16  and  C_17
REMARK                            x       y       z     vdW  Elec       q    Type
REMARK                         _______ _______ _______ _____ _____    ______ ____
ROOT
ATOM      1  C   UNL     1      24.160  -0.313  53.951  0.00  0.00    +0.000 A 
ATOM      2  C   UNL     1      23.971  -1.184  55.036  0.00  0.00    +0.000 A 
ATOM      3  C   UNL     1      22.708  -1.691  55.341  0.00  0.00    +0.000 A 
ATOM      4  C   UNL     1      21.611  -1.325  54.561  0.00  0.00    +0.000 A 
ATOM      5  C   UNL     1      21.766  -0.450  53.474  0.00  0.00    +0.000 A 
ATOM      6  C   UNL     1      20.613  -0.013  52.616  0.00  0.00    +0.000 A 
ATOM      7  O   UNL     1      19.463  -0.405  52.766  0.00  0.00    +0.000 OA
ATOM      8  C   UNL     1      20.934   0.921  51.537  0.00  0.00    +0.000 A 
ATOM      9  C   UNL     1      22.197   1.319  51.359  0.00  0.00    +0.000 A 
ATOM     10  O   UNL     1      23.266   0.905  52.120  0.00  0.00    +0.000 OA
ATOM     11  C   UNL     1      23.043   0.051  53.175  0.00  0.00    +0.000 A 
ENDROOT
BRANCH   1  16
ATOM     12  C   UNL     1      29.446   1.052  54.054  0.00  0.00    +0.000 C 
ATOM     13  N   UNL     1      28.257   1.062  53.227  0.00  0.00    +0.000 N 
ATOM     14  C   UNL     1      27.810  -0.225  52.724  0.00  0.00    +0.000 C 
ATOM     15  C   UNL     1      26.405  -0.624  53.036  0.00  0.00    +0.000 C 
ATOM     16  C   UNL     1      25.514   0.183  53.625  0.00  0.00    +0.000 C 
ATOM     17  C   UNL     1      25.852   1.592  54.004  0.00  0.00    +0.000 C 
ATOM     18  C   UNL     1      27.259   2.064  53.580  0.00  0.00    +0.000 C 
ATOM     19  H   UNL     1      28.583   1.450  52.341  0.00  0.00    +0.000 HD
ENDBRANCH   1  16
BRANCH   9  20
ATOM     20  C   UNL     1      22.549   2.257  50.284  0.00  0.00    +0.000 A 
ATOM     21  C   UNL     1      22.228   1.912  48.961  0.00  0.00    +0.000 A 
ATOM     22  C   UNL     1      22.556   2.762  47.905  0.00  0.00    +0.000 A 
ATOM     23  C   UNL     1      23.201   3.974  48.157  0.00  0.00    +0.000 A 
ATOM     24  C   UNL     1      23.523   4.329  49.466  0.00  0.00    +0.000 A 
ATOM     25  C   UNL     1      23.200   3.478  50.526  0.00  0.00    +0.000 A 
ATOM     26 CL   UNL     1      23.624   3.982  52.126  0.00  0.00    +0.000 Cl
ENDBRANCH   9  20
BRANCH   2  27
ATOM     27  O   UNL     1      25.043  -1.539  55.809  0.00  0.00    +0.000 OA
ATOM     28  H   UNL     1      25.185  -2.438  56.029  0.00  0.00    +0.000 HD
ENDBRANCH   2  27
BRANCH   4  29
ATOM     29  O   UNL     1      20.385  -1.839  54.874  0.00  0.00    +0.000 OA
ATOM     30  H   UNL     1      20.201  -2.113  55.751  0.00  0.00    +0.000 HD
ENDBRANCH   4  29
TORSDOF 4
ENDMDL
MODEL 2
REMARK VINA RESULT:    -9.361      2.464      5.065
REMARK INTER + INTRA:         -11.807
REMARK INTER:                 -10.926
REMARK INTRA:                  -0.881
REMARK UNBOUND:                -0.804
REMARK  Name = 
REMARK  5 active torsions:
REMARK  status: ('A' for Active; 'I' for Inactive)
REMARK    1  A    between atoms: C_1  and  N_2
REMARK    2  A    between atoms: C_5  and  C_6
REMARK    3  A    between atoms: C_7  and  O_8
REMARK    4  A    between atoms: C_10  and  O_11
REMARK    5  A    between atoms: C_16  and  C_17
REMARK                            x       y       z     vdW  Elec       q    Type
REMARK                         _______ _______ _______ _____ _____    ______ ____
ROOT
ATOM      1  C   UNL     1      22.186   0.124  53.303  0.00  0.00    +0.000 A 
ATOM      2  C   UNL     1      21.803  -0.872  54.215  0.00  0.00    +0.000 A 
ATOM      3  C   UNL     1      22.731  -1.447  55.084  0.00  0.00    +0.000 A 
ATOM      4  C   UNL     1      24.063  -1.033  55.044  0.00  0.00    +0.000 A 
ATOM      5  C   UNL     1      24.477  -0.044  54.137  0.00  0.00    +0.000 A 
ATOM      6  C   UNL     1      25.902   0.422  54.044  0.00  0.00    +0.000 A 
ATOM      7  O   UNL     1      26.803   0.013  54.766  0.00  0.00    +0.000 OA
ATOM      8  C   UNL     1      26.179   1.441  53.032  0.00  0.00    +0.000 A 
ATOM      9  C   UNL     1      25.184   1.907  52.271  0.00  0.00    +0.000 A 
ATOM     10  O   UNL     1      23.871   1.508  52.364  0.00  0.00    +0.000 OA
ATOM     11  C   UNL     1      23.534   0.530  53.271  0.00  0.00    +0.000 A 
ENDROOT
BRANCH   1  16
ATOM     12  C   UNL     1      19.578   3.187  49.611  0.00  0.00    +0.000 C 
ATOM     13  N   UNL     1      19.399   2.116  50.569  0.00  0.00    +0.000 N 
ATOM     14  C   UNL     1      19.986   0.835  50.222  0.00  0.00    +0.000 C 
ATOM     15  C   UNL     1      20.943   0.237  51.201  0.00  0.00    +0.000 C 
ATOM     16  C   UNL     1      21.178   0.745  52.418  0.00  0.00    +0.000 C 
ATOM     17  C   UNL     1      20.467   1.965  52.916  0.00  0.00    +0.000 C 
ATOM     18  C   UNL     1      19.386   2.526  51.968  0.00  0.00    +0.000 C 
ATOM     19  H   UNL     1      18.420   1.854  50.459  0.00  0.00    +0.000 HD
ENDBRANCH   1  16
BRANCH   9  20
ATOM     20  C   UNL     1      25.433   2.929  51.246  0.00  0.00    +0.000 A 
ATOM     21  C   UNL     1      26.481   2.723  50.333  0.00  0.00    +0.000 A 
ATOM     22  C   UNL     1      26.767   3.672  49.352  0.00  0.00    +0.000 A 
ATOM     23  C   UNL     1      26.003   4.837  49.263  0.00  0.00    +0.000 A 
ATOM     24  C   UNL     1      24.959   5.053  50.161  0.00  0.00    +0.000 A 
ATOM     25  C   UNL     1      24.673   4.106  51.148  0.00  0.00    +0.000 A 
ATOM     26 CL   UNL     1      23.361   4.434  52.227  0.00  0.00    +0.000 Cl
ENDBRANCH   9  20
BRANCH   2  27
ATOM     27  O   UNL     1      20.500  -1.287  54.252  0.00  0.00    +0.000 OA
ATOM     28  H   UNL     1      20.002  -1.200  55.042  0.00  0.00    +0.000 HD
ENDBRANCH   2  27
BRANCH   4  29
ATOM     29  O   UNL     1      24.952  -1.605  55.908  0.00  0.00    +0.000 OA
ATOM     30  H   UNL     1      25.767  -1.939  55.589  0.00  0.00    +0.000 HD
ENDBRANCH   4  29
TORSDOF 4
ENDMDL
MODEL 3
REMARK VINA RESULT:    -9.266      1.646      2.183
REMARK INTER + INTRA:         -11.696
REMARK INTER:                 -11.210
REMARK INTRA:                  -0.485
REMARK UNBOUND:                -0.804
REMARK  Name = 
REMARK  5 active torsions:
REMARK  status: ('A' for Active; 'I' for Inactive)
REMARK    1  A    between atoms: C_1  and  N_2
REMARK    2  A    between atoms: C_5  and  C_6
REMARK    3  A    between atoms: C_7  and  O_8
REMARK    4  A    between atoms: C_10  and  O_11
REMARK    5  A    between atoms: C_16  and  C_17
REMARK                            x       y       z     vdW  Elec       q    Type
REMARK                         _______ _______ _______ _____ _____    ______ ____
ROOT
ATOM      1  C   UNL     1      23.930  -0.248  54.053  0.00  0.00    +0.000 A 
ATOM      2  C   UNL     1      23.133  -1.076  54.859  0.00  0.00    +0.000 A 
ATOM      3  C   UNL     1      21.742  -0.974  54.842  0.00  0.00    +0.000 A 
ATOM      4  C   UNL     1      21.128  -0.033  54.015  0.00  0.00    +0.000 A 
ATOM      5  C   UNL     1      21.899   0.815  53.202  0.00  0.00    +0.000 A 
ATOM      6  C   UNL     1      21.287   1.855  52.309  0.00  0.00    +0.000 A 
ATOM      7  O   UNL     1      20.080   2.027  52.187  0.00  0.00    +0.000 OA
ATOM      8  C   UNL     1      22.225   2.676  51.542  0.00  0.00    +0.000 A 
ATOM      9  C   UNL     1      23.539   2.460  51.655  0.00  0.00    +0.000 A 
ATOM     10  O   UNL     1      24.111   1.493  52.449  0.00  0.00    +0.000 OA
ATOM     11  C   UNL     1      23.298   0.700  53.225  0.00  0.00    +0.000 A 
ENDROOT
BRANCH   1  16
ATOM     12  C   UNL     1      29.305   0.418  53.363  0.00  0.00    +0.000 C 
ATOM     13  N   UNL     1      28.306  -0.451  53.949  0.00  0.00    +0.000 N 
ATOM     14  C   UNL     1      27.617   0.056  55.122  0.00  0.00    +0.000 C 
ATOM     15  C   UNL     1      26.126   0.112  55.063  0.00  0.00    +0.000 C 
ATOM     16  C   UNL     1      25.400  -0.399  54.060  0.00  0.00    +0.000 C 
ATOM     17  C   UNL     1      26.037  -1.104  52.903  0.00  0.00    +0.000 C 
ATOM     18  C   UNL     1      27.567  -1.280  53.004  0.00  0.00    +0.000 C 
ATOM     19  H   UNL     1      28.857  -1.173  54.414  0.00  0.00    +0.000 HD
ENDBRANCH   1  16
BRANCH   9  20
ATOM     20  C   UNL     1      24.504   3.269  50.899  0.00  0.00    +0.000 A 
ATOM     21  C   UNL     1      25.554   2.613  50.235  0.00  0.00    +0.000 A 
ATOM     22  C   UNL     1      26.504   3.338  49.517  0.00  0.00    +0.000 A 
ATOM     23  C   UNL     1      26.414   4.729  49.445  0.00  0.00    +0.000 A 
ATOM     24  C   UNL     1      25.377   5.392  50.098  0.00  0.00    +0.000 A 
ATOM     25  C   UNL     1      24.424   4.669  50.821  0.00  0.00    +0.000 A 
ATOM     26 CL   UNL     1      23.160   5.554  51.603  0.00  0.00    +0.000 Cl
ENDBRANCH   9  20
BRANCH   2  27
ATOM     27  O   UNL     1      23.730  -1.995  55.678  0.00  0.00    +0.000 OA
ATOM     28  H   UNL     1      24.303  -2.643  55.317  0.00  0.00    +0.000 HD
ENDBRANCH   2  27
BRANCH   4  29
ATOM     29  O   UNL     1      19.766   0.044  54.009  0.00  0.00    +0.000 OA
ATOM     30  H   UNL     1      19.306   0.171  53.203  0.00  0.00    +0.000 HD
ENDBRANCH   4  29
TORSDOF 4
ENDMDL
MODEL 4
REMARK VINA RESULT:    -9.132      2.314      5.664
REMARK INTER + INTRA:         -11.538
REMARK INTER:                 -10.673
REMARK INTRA:                  -0.865
REMARK UNBOUND:                -0.804
REMARK  Name = 
REMARK  5 active torsions:
REMARK  status: ('A' for Active; 'I' for Inactive)
REMARK    1  A    between atoms: C_1  and  N_2
REMARK    2  A    between atoms: C_5  and  C_6
REMARK    3  A    between atoms: C_7  and  O_8
REMARK    4  A    between atoms: C_10  and  O_11
REMARK    5  A    between atoms: C_16  and  C_17
REMARK                            x       y       z     vdW  Elec       q    Type
REMARK                         _______ _______ _______ _____ _____    ______ ____
ROOT
ATOM      1  C   UNL     1      22.706   1.830  52.349  0.00  0.00    +0.000 A 
ATOM      2  C   UNL     1      21.304   1.886  52.298  0.00  0.00    +0.000 A 
ATOM      3  C   UNL     1      20.521   1.005  53.044  0.00  0.00    +0.000 A 
ATOM      4  C   UNL     1      21.136   0.049  53.852  0.00  0.00    +0.000 A 
ATOM      5  C   UNL     1      22.537  -0.036  53.918  0.00  0.00    +0.000 A 
ATOM      6  C   UNL     1      23.245  -1.060  54.759  0.00  0.00    +0.000 A 
ATOM      7  O   UNL     1      22.673  -1.871  55.475  0.00  0.00    +0.000 OA
ATOM      8  C   UNL     1      24.707  -1.035  54.703  0.00  0.00    +0.000 A 
ATOM      9  C   UNL     1      25.326  -0.126  53.945  0.00  0.00    +0.000 A 
ATOM     10  O   UNL     1      24.689   0.834  53.192  0.00  0.00    +0.000 OA
ATOM     11  C   UNL     1      23.314   0.858  53.166  0.00  0.00    +0.000 A 
ENDROOT
BRANCH   1  16
ATOM     12  C   UNL     1      24.432   5.743  48.954  0.00  0.00    +0.000 C 
ATOM     13  N   UNL     1      24.872   4.793  49.955  0.00  0.00    +0.000 N 
ATOM     14  C   UNL     1      24.500   5.082  51.328  0.00  0.00    +0.000 C 
ATOM     15  C   UNL     1      23.744   4.025  52.063  0.00  0.00    +0.000 C 
ATOM     16  C   UNL     1      23.515   2.798  51.578  0.00  0.00    +0.000 C 
ATOM     17  C   UNL     1      24.032   2.368  50.240  0.00  0.00    +0.000 C 
ATOM     18  C   UNL     1      24.919   3.403  49.518  0.00  0.00    +0.000 C 
ATOM     19  H   UNL     1      25.872   4.979  50.041  0.00  0.00    +0.000 HD
ENDBRANCH   1  16
BRANCH   9  20
ATOM     20  C   UNL     1      26.793  -0.078  53.868  0.00  0.00    +0.000 A 
ATOM     21  C   UNL     1      27.467   0.946  54.554  0.00  0.00    +0.000 A 
ATOM     22  C   UNL     1      28.857   1.043  54.499  0.00  0.00    +0.000 A 
ATOM     23  C   UNL     1      29.594   0.113  53.764  0.00  0.00    +0.000 A 
ATOM     24  C   UNL     1      28.937  -0.908  53.080  0.00  0.00    +0.000 A 
ATOM     25  C   UNL     1      27.544  -1.006  53.130  0.00  0.00    +0.000 A 
ATOM     26 CL   UNL     1      26.793  -2.301  52.262  0.00  0.00    +0.000 Cl
ENDBRANCH   9  20
BRANCH   2  27
ATOM     27  O   UNL     1      20.696   2.817  51.501  0.00  0.00    +0.000 OA
ATOM     28  H   UNL     1      20.600   3.700  51.800  0.00  0.00    +0.000 HD
ENDBRANCH   2  27
BRANCH   4  29
ATOM     29  O   UNL     1      20.350  -0.798  54.578  0.00  0.00    +0.000 OA
ATOM     30  H   UNL     1      20.642  -1.109  55.412  0.00  0.00    +0.000 HD
ENDBRANCH   4  29
TORSDOF 4
ENDMDL
MODEL 5
REMARK VINA RESULT:    -8.760      1.541      1.818
REMARK INTER + INTRA:         -11.100
REMARK INTER:                 -10.778
REMARK INTRA:                  -0.322
REMARK UNBOUND:                -0.804
REMARK  Name = 
REMARK  5 active torsions:
REMARK  status: ('A' for Active; 'I' for Inactive)
REMARK    1  A    between atoms: C_1  and  N_2
REMARK    2  A    between atoms: C_5  and  C_6
REMARK    3  A    between atoms: C_7  and  O_8
REMARK    4  A    between atoms: C_10  and  O_11
REMARK    5  A    between atoms: C_16  and  C_17
REMARK                            x       y       z     vdW  Elec       q    Type
REMARK                         _______ _______ _______ _____ _____    ______ ____
ROOT
ATOM      1  C   UNL     1      24.238  -0.040  53.870  0.00  0.00    +0.000 A 
ATOM      2  C   UNL     1      23.670  -0.953  54.772  0.00  0.00    +0.000 A 
ATOM      3  C   UNL     1      22.291  -1.005  54.971  0.00  0.00    +0.000 A 
ATOM      4  C   UNL     1      21.458  -0.133  54.268  0.00  0.00    +0.000 A 
ATOM      5  C   UNL     1      21.998   0.797  53.364  0.00  0.00    +0.000 A 
ATOM      6  C   UNL     1      21.146   1.767  52.598  0.00  0.00    +0.000 A 
ATOM      7  O   UNL     1      19.923   1.806  52.666  0.00  0.00    +0.000 OA
ATOM      8  C   UNL     1      21.859   2.689  51.714  0.00  0.00    +0.000 A 
ATOM      9  C   UNL     1      23.190   2.619  51.619  0.00  0.00    +0.000 A 
ATOM     10  O   UNL     1      23.980   1.717  52.294  0.00  0.00    +0.000 OA
ATOM     11  C   UNL     1      23.387   0.837  53.170  0.00  0.00    +0.000 A 
ENDROOT
BRANCH   1  16
ATOM     12  C   UNL     1      29.623  -0.905  54.140  0.00  0.00    +0.000 C 
ATOM     13  N   UNL     1      28.593  -0.194  53.410  0.00  0.00    +0.000 N 
ATOM     14  C   UNL     1      27.732  -0.997  52.562  0.00  0.00    +0.000 C 
ATOM     15  C   UNL     1      26.261  -0.901  52.801  0.00  0.00    +0.000 C 
ATOM     16  C   UNL     1      25.700  -0.028  53.648  0.00  0.00    +0.000 C 
ATOM     17  C   UNL     1      26.517   0.960  54.422  0.00  0.00    +0.000 C 
ATOM     18  C   UNL     1      28.025   0.960  54.098  0.00  0.00    +0.000 C 
ATOM     19  H   UNL     1      29.109   0.285  52.671  0.00  0.00    +0.000 HD
ENDBRANCH   1  16
BRANCH   9  20
ATOM     20  C   UNL     1      23.934   3.532  50.740  0.00  0.00    +0.000 A 
ATOM     21  C   UNL     1      23.271   4.662  50.232  0.00  0.00    +0.000 A 
ATOM     22  C   UNL     1      23.929   5.549  49.381  0.00  0.00    +0.000 A 
ATOM     23  C   UNL     1      25.262   5.325  49.032  0.00  0.00    +0.000 A 
ATOM     24  C   UNL     1      25.931   4.208  49.530  0.00  0.00    +0.000 A 
ATOM     25  C   UNL     1      25.273   3.314  50.380  0.00  0.00    +0.000 A 
ATOM     26 CL   UNL     1      26.164   1.952  50.966  0.00  0.00    +0.000 Cl
ENDBRANCH   9  20
BRANCH   2  27
ATOM     27  O   UNL     1      24.483  -1.805  55.470  0.00  0.00    +0.000 OA
ATOM     28  H   UNL     1      24.429  -1.843  56.404  0.00  0.00    +0.000 HD
ENDBRANCH   2  27
BRANCH   4  29
ATOM     29  O   UNL     1      20.111  -0.206  54.474  0.00  0.00    +0.000 OA
ATOM     30  H   UNL     1      19.519  -0.030  53.769  0.00  0.00    +0.000 HD
ENDBRANCH   4  29
TORSDOF 4
ENDMDL
MODEL 6
REMARK VINA RESULT:    -8.740      2.858      5.535
REMARK INTER + INTRA:         -11.077
REMARK INTER:                 -10.919
REMARK INTRA:                  -0.159
REMARK UNBOUND:                -0.804
REMARK  Name = 
REMARK  5 active torsions:
REMARK  status: ('A' for Active; 'I' for Inactive)
REMARK    1  A    between atoms: C_1  and  N_2
REMARK    2  A    between atoms: C_5  and  C_6
REMARK    3  A    between atoms: C_7  and  O_8
REMARK    4  A    between atoms: C_10  and  O_11
REMARK    5  A    between atoms: C_16  and  C_17
REMARK                            x       y       z     vdW  Elec       q    Type
REMARK                         _______ _______ _______ _____ _____    ______ ____
ROOT
ATOM      1  C   UNL     1      20.879   0.234  52.902  0.00  0.00    +0.000 A 
ATOM      2  C   UNL     1      20.217  -0.672  53.746  0.00  0.00    +0.000 A 
ATOM      3  C   UNL     1      20.925  -1.458  54.655  0.00  0.00    +0.000 A 
ATOM      4  C   UNL     1      22.315  -1.349  54.727  0.00  0.00    +0.000 A 
ATOM      5  C   UNL     1      23.005  -0.456  53.890  0.00  0.00    +0.000 A 
ATOM      6  C   UNL     1      24.500  -0.316  53.917  0.00  0.00    +0.000 A 
ATOM      7  O   UNL     1      25.231  -0.930  54.684  0.00  0.00    +0.000 OA
ATOM      8  C   UNL     1      25.073   0.639  52.967  0.00  0.00    +0.000 A 
ATOM      9  C   UNL     1      24.267   1.330  52.156  0.00  0.00    +0.000 A 
ATOM     10  O   UNL     1      22.894   1.230  52.140  0.00  0.00    +0.000 OA
ATOM     11  C   UNL     1      22.281   0.332  52.982  0.00  0.00    +0.000 A 
ENDROOT
BRANCH   1  16
ATOM     12  C   UNL     1      16.918   2.696  50.062  0.00  0.00    +0.000 C 
ATOM     13  N   UNL     1      18.353   2.645  50.255  0.00  0.00    +0.000 N 
ATOM     14  C   UNL     1      18.856   3.197  51.500  0.00  0.00    +0.000 C 
ATOM     15  C   UNL     1      19.691   2.298  52.352  0.00  0.00    +0.000 C 
ATOM     16  C   UNL     1      20.104   1.082  51.972  0.00  0.00    +0.000 C 
ATOM     17  C   UNL     1      19.776   0.522  50.622  0.00  0.00    +0.000 C 
ATOM     18  C   UNL     1      19.019   1.483  49.681  0.00  0.00    +0.000 C 
ATOM     19  H   UNL     1      18.706   3.370  49.630  0.00  0.00    +0.000 HD
ENDBRANCH   1  16
BRANCH   9  20
ATOM     20  C   UNL     1      24.813   2.294  51.191  0.00  0.00    +0.000 A 
ATOM     21  C   UNL     1      23.934   2.901  50.279  0.00  0.00    +0.000 A 
ATOM     22  C   UNL     1      24.407   3.810  49.333  0.00  0.00    +0.000 A 
ATOM     23  C   UNL     1      25.764   4.133  49.292  0.00  0.00    +0.000 A 
ATOM     24  C   UNL     1      26.646   3.540  50.193  0.00  0.00    +0.000 A 
ATOM     25  C   UNL     1      26.176   2.625  51.139  0.00  0.00    +0.000 A 
ATOM     26 CL   UNL     1      27.325   1.929  52.230  0.00  0.00    +0.000 Cl
ENDBRANCH   9  20
BRANCH   2  27
ATOM     27  O   UNL     1      18.856  -0.789  53.674  0.00  0.00    +0.000 OA
ATOM     28  H   UNL     1      18.310  -0.242  54.203  0.00  0.00    +0.000 HD
ENDBRANCH   2  27
BRANCH   4  29
ATOM     29  O   UNL     1      22.986  -2.122  55.628  0.00  0.00    +0.000 OA
ATOM     30  H   UNL     1      22.828  -3.045  55.665  0.00  0.00    +0.000 HD
ENDBRANCH   4  29
TORSDOF 4
ENDMDL
MODEL 7
REMARK VINA RESULT:    -8.653      2.323      4.338
REMARK INTER + INTRA:         -10.975
REMARK INTER:                 -10.377
REMARK INTRA:                  -0.598
REMARK UNBOUND:                -0.804
REMARK  Name = 
REMARK  5 active torsions:
REMARK  status: ('A' for Active; 'I' for Inactive)
REMARK    1  A    between atoms: C_1  and  N_2
REMARK    2  A    between atoms: C_5  and  C_6
REMARK    3  A    between atoms: C_7  and  O_8
REMARK    4  A    between atoms: C_10  and  O_11
REMARK    5  A    between atoms: C_16  and  C_17
REMARK                            x       y       z     vdW  Elec       q    Type
REMARK                         _______ _______ _______ _____ _____    ______ ____
ROOT
ATOM      1  C   UNL     1      24.787   1.619  53.127  0.00  0.00    +0.000 A 
ATOM      2  C   UNL     1      25.961   1.503  53.888  0.00  0.00    +0.000 A 
ATOM      3  C   UNL     1      26.114   0.482  54.825  0.00  0.00    +0.000 A 
ATOM      4  C   UNL     1      25.084  -0.439  55.018  0.00  0.00    +0.000 A 
ATOM      5  C   UNL     1      23.894  -0.345  54.277  0.00  0.00    +0.000 A 
ATOM      6  C   UNL     1      22.751  -1.301  54.460  0.00  0.00    +0.000 A 
ATOM      7  O   UNL     1      22.771  -2.252  55.233  0.00  0.00    +0.000 OA
ATOM      8  C   UNL     1      21.570  -1.056  53.631  0.00  0.00    +0.000 A 
ATOM      9  C   UNL     1      21.567  -0.037  52.767  0.00  0.00    +0.000 A 
ATOM     10  O   UNL     1      22.619   0.829  52.570  0.00  0.00    +0.000 OA
ATOM     11  C   UNL     1      23.753   0.685  53.334  0.00  0.00    +0.000 A 
ENDROOT
BRANCH   1  16
ATOM     12  C   UNL     1      25.523   6.025  49.988  0.00  0.00    +0.000 C 
ATOM     13  N   UNL     1      24.655   4.887  50.211  0.00  0.00    +0.000 N 
ATOM     14  C   UNL     1      25.187   3.588  49.841  0.00  0.00    +0.000 C 
ATOM     15  C   UNL     1      25.215   2.538  50.903  0.00  0.00    +0.000 C 
ATOM     16  C   UNL     1      24.662   2.687  52.114  0.00  0.00    +0.000 C 
ATOM     17  C   UNL     1      23.932   3.936  52.500  0.00  0.00    +0.000 C 
ATOM     18  C   UNL     1      23.786   4.984  51.377  0.00  0.00    +0.000 C 
ATOM     19  H   UNL     1      23.958   4.966  49.471  0.00  0.00    +0.000 HD
ENDBRANCH   1  16
BRANCH   9  20
ATOM     20  C   UNL     1      20.396   0.234  51.923  0.00  0.00    +0.000 A 
ATOM     21  C   UNL     1      19.126  -0.131  52.400  0.00  0.00    +0.000 A 
ATOM     22  C   UNL     1      17.986   0.091  51.629  0.00  0.00    +0.000 A 
ATOM     23  C   UNL     1      18.097   0.688  50.372  0.00  0.00    +0.000 A 
ATOM     24  C   UNL     1      19.351   1.056  49.887  0.00  0.00    +0.000 A 
ATOM     25  C   UNL     1      20.497   0.832  50.656  0.00  0.00    +0.000 A 
ATOM     26 CL   UNL     1      22.021   1.317  49.996  0.00  0.00    +0.000 Cl
ENDBRANCH   9  20
BRANCH   2  27
ATOM     27  O   UNL     1      26.971   2.409  53.709  0.00  0.00    +0.000 OA
ATOM     28  H   UNL     1      26.867   3.292  54.004  0.00  0.00    +0.000 HD
ENDBRANCH   2  27
BRANCH   4  29
ATOM     29  O   UNL     1      25.259  -1.434  55.936  0.00  0.00    +0.000 OA
ATOM     30  H   UNL     1      24.996  -1.303  56.825  0.00  0.00    +0.000 HD
ENDBRANCH   4  29
TORSDOF 4
ENDMDL
MODEL 8
REMARK VINA RESULT:    -8.633      2.731      6.161
REMARK INTER + INTRA:         -10.951
REMARK INTER:                 -10.264
REMARK INTRA:                  -0.688
REMARK UNBOUND:                -0.804
REMARK  Name = 
REMARK  5 active torsions:
REMARK  status: ('A' for Active; 'I' for Inactive)
REMARK    1  A    between atoms: C_1  and  N_2
REMARK    2  A    between atoms: C_5  and  C_6
REMARK    3  A    between atoms: C_7  and  O_8
REMARK    4  A    between atoms: C_10  and  O_11
REMARK    5  A    between atoms: C_16  and  C_17
REMARK                            x       y       z     vdW  Elec       q    Type
REMARK                         _______ _______ _______ _____ _____    ______ ____
ROOT
ATOM      1  C   UNL     1      24.700   2.700  51.069  0.00  0.00    +0.000 A 
ATOM      2  C   UNL     1      26.059   3.048  51.085  0.00  0.00    +0.000 A 
ATOM      3  C   UNL     1      26.987   2.297  51.807  0.00  0.00    +0.000 A 
ATOM      4  C   UNL     1      26.559   1.183  52.530  0.00  0.00    +0.000 A 
ATOM      5  C   UNL     1      25.204   0.814  52.540  0.00  0.00    +0.000 A 
ATOM      6  C   UNL     1      24.693  -0.365  53.317  0.00  0.00    +0.000 A 
ATOM      7  O   UNL     1      25.407  -1.116  53.970  0.00  0.00    +0.000 OA
ATOM      8  C   UNL     1      23.251  -0.605  53.246  0.00  0.00    +0.000 A 
ATOM      9  C   UNL     1      22.482   0.199  52.505  0.00  0.00    +0.000 A 
ATOM     10  O   UNL     1      22.942   1.265  51.767  0.00  0.00    +0.000 OA
ATOM     11  C   UNL     1      24.281   1.576  51.807  0.00  0.00    +0.000 A 
ENDROOT
BRANCH   1  16
ATOM     12  C   UNL     1      20.258   4.605  48.527  0.00  0.00    +0.000 C 
ATOM     13  N   UNL     1      21.661   4.868  48.772  0.00  0.00    +0.000 N 
ATOM     14  C   UNL     1      22.014   5.291  50.115  0.00  0.00    +0.000 C 
ATOM     15  C   UNL     1      23.042   4.482  50.835  0.00  0.00    +0.000 C 
ATOM     16  C   UNL     1      23.741   3.490  50.267  0.00  0.00    +0.000 C 
ATOM     17  C   UNL     1      23.561   3.120  48.828  0.00  0.00    +0.000 C 
ATOM     18  C   UNL     1      22.593   4.022  48.035  0.00  0.00    +0.000 C 
ATOM     19  H   UNL     1      21.827   5.756  48.299  0.00  0.00    +0.000 HD
ENDBRANCH   1  16
BRANCH   9  20
ATOM     20  C   UNL     1      21.031  -0.017  52.415  0.00  0.00    +0.000 A 
ATOM     21  C   UNL     1      20.368  -0.584  53.516  0.00  0.00    +0.000 A 
ATOM     22  C   UNL     1      18.995  -0.824  53.472  0.00  0.00    +0.000 A 
ATOM     23  C   UNL     1      18.263  -0.491  52.331  0.00  0.00    +0.000 A 
ATOM     24  C   UNL     1      18.909   0.074  51.233  0.00  0.00    +0.000 A 
ATOM     25  C   UNL     1      20.286   0.312  51.272  0.00  0.00    +0.000 A 
ATOM     26 CL   UNL     1      21.023   1.021  49.876  0.00  0.00    +0.000 Cl
ENDBRANCH   9  20
BRANCH   2  27
ATOM     27  O   UNL     1      26.482   4.144  50.383  0.00  0.00    +0.000 OA
ATOM     28  H   UNL     1      26.299   5.005  50.704  0.00  0.00    +0.000 HD
ENDBRANCH   2  27
BRANCH   4  29
ATOM     29  O   UNL     1      27.485   0.458  53.224  0.00  0.00    +0.000 OA
ATOM     30  H   UNL     1      27.269   0.102  54.063  0.00  0.00    +0.000 HD
ENDBRANCH   4  29
TORSDOF 4
ENDMDL
MODEL 9
REMARK VINA RESULT:    -8.018      3.251      7.426
REMARK INTER + INTRA:         -10.229
REMARK INTER:                  -9.529
REMARK INTRA:                  -0.699
REMARK UNBOUND:                -0.804
REMARK  Name = 
REMARK  5 active torsions:
REMARK  status: ('A' for Active; 'I' for Inactive)
REMARK    1  A    between atoms: C_1  and  N_2
REMARK    2  A    between atoms: C_5  and  C_6
REMARK    3  A    between atoms: C_7  and  O_8
REMARK    4  A    between atoms: C_10  and  O_11
REMARK    5  A    between atoms: C_16  and  C_17
REMARK                            x       y       z     vdW  Elec       q    Type
REMARK                         _______ _______ _______ _____ _____    ______ ____
ROOT
ATOM      1  C   UNL     1      23.217   3.722  49.700  0.00  0.00    +0.000 A 
ATOM      2  C   UNL     1      24.029   4.620  48.990  0.00  0.00    +0.000 A 
ATOM      3  C   UNL     1      25.408   4.660  49.195  0.00  0.00    +0.000 A 
ATOM      4  C   UNL     1      25.993   3.797  50.123  0.00  0.00    +0.000 A 
ATOM      5  C   UNL     1      25.206   2.892  50.854  0.00  0.00    +0.000 A 
ATOM      6  C   UNL     1      25.786   1.957  51.875  0.00  0.00    +0.000 A 
ATOM      7  O   UNL     1      26.982   1.878  52.129  0.00  0.00    +0.000 OA
ATOM      8  C   UNL     1      24.832   1.092  52.570  0.00  0.00    +0.000 A 
ATOM      9  C   UNL     1      23.532   1.160  52.264  0.00  0.00    +0.000 A 
ATOM     10  O   UNL     1      22.992   1.993  51.311  0.00  0.00    +0.000 OA
ATOM     11  C   UNL     1      23.819   2.860  50.636  0.00  0.00    +0.000 A 
ENDROOT
BRANCH   1  16
ATOM     12  C   UNL     1      17.883   2.555  49.757  0.00  0.00    +0.000 C 
ATOM     13  N   UNL     1      18.884   3.395  49.133  0.00  0.00    +0.000 N 
ATOM     14  C   UNL     1      19.444   4.452  49.956  0.00  0.00    +0.000 C 
ATOM     15  C   UNL     1      20.928   4.476  50.113  0.00  0.00    +0.000 C 
ATOM     16  C   UNL     1      21.762   3.673  49.440  0.00  0.00    +0.000 C 
ATOM     17  C   UNL     1      21.265   2.682  48.433  0.00  0.00    +0.000 C 
ATOM     18  C   UNL     1      19.746   2.726  48.166  0.00  0.00    +0.000 C 
ATOM     19  H   UNL     1      18.343   3.985  48.500  0.00  0.00    +0.000 HD
ENDBRANCH   1  16
BRANCH   9  20
ATOM     20  C   UNL     1      22.551   0.305  52.945  0.00  0.00    +0.000 A 
ATOM     21  C   UNL     1      22.942  -0.986  53.334  0.00  0.00    +0.000 A 
ATOM     22  C   UNL     1      22.042  -1.841  53.969  0.00  0.00    +0.000 A 
ATOM     23  C   UNL     1      20.739  -1.414  54.233  0.00  0.00    +0.000 A 
ATOM     24  C   UNL     1      20.339  -0.134  53.853  0.00  0.00    +0.000 A 
ATOM     25  C   UNL     1      21.238   0.724  53.213  0.00  0.00    +0.000 A 
ATOM     26 CL   UNL     1      20.677   2.301  52.774  0.00  0.00    +0.000 Cl
ENDBRANCH   9  20
BRANCH   2  27
ATOM     27  O   UNL     1      23.459   5.474  48.085  0.00  0.00    +0.000 OA
ATOM     28  H   UNL     1      23.987   6.111  47.646  0.00  0.00    +0.000 HD
ENDBRANCH   2  27
BRANCH   4  29
ATOM     29  O   UNL     1      27.346   3.848  50.302  0.00  0.00    +0.000 OA
ATOM     30  H   UNL     1      27.857   3.065  50.242  0.00  0.00    +0.000 HD
ENDBRANCH   4  29
TORSDOF 4
ENDMDL
