MODEL 1
REMARK VINA RESULT:    -8.240      0.000      0.000
REMARK INTER + INTRA:         -13.665
REMARK INTER:                 -12.094
REMARK INTRA:                  -1.572
REMARK UNBOUND:                -1.572
REMARK  Name = 
REMARK  12 active torsions:
REMARK  status: ('A' for Active; 'I' for Inactive)
REMARK    1  A    between atoms: C_1  and  C_2
REMARK    2  A    between atoms: C_3  and  C_4
REMARK    3  A    between atoms: C_5  and  C_6
REMARK    4  A    between atoms: C_6  and  O_8
REMARK    5  A    between atoms: O_8  and  C_9
REMARK    6  A    between atoms: C_9  and  C_10
REMARK    7  A    between atoms: C_9  and  C_15
REMARK    8  A    between atoms: C_10  and  C_11
REMARK    9  A    between atoms: C_12  and  C_13
REMARK   10  A    between atoms: C_12  and  C_14
REMARK   11  A    between atoms: C_20  and  O_21
REMARK   12  A    between atoms: C_24  and  O_25
REMARK                            x       y       z     vdW  Elec       q    Type
REMARK                         _______ _______ _______ _____ _____    ______ ____
ROOT
ATOM      1  C   UNL     1      22.295   1.587  52.895  0.00  0.00    +0.000 C 
ATOM      2  C   UNL     1      22.423   0.443  53.580  0.00  0.00    +0.000 C 
ATOM      3  C   UNL     1      21.251  -0.360  53.967  0.00  0.00    +0.000 C 
ATOM      4  O   UNL     1      21.348  -1.274  54.774  0.00  0.00    +0.000 OA
ATOM      5  C   UNL     1      19.988  -0.104  53.254  0.00  0.00    +0.000 A 
ATOM      6  C   UNL     1      18.958  -1.050  53.278  0.00  0.00    +0.000 A 
ATOM      7  C   UNL     1      17.807  -0.858  52.517  0.00  0.00    +0.000 A 
ATOM      8  C   UNL     1      17.679   0.278  51.718  0.00  0.00    +0.000 A 
ATOM      9  C   UNL     1      18.699   1.231  51.705  0.00  0.00    +0.000 A 
ATOM     10  C   UNL     1      19.847   1.057  52.494  0.00  0.00    +0.000 A 
ATOM     11  C   UNL     1      20.926   2.067  52.540  0.00  0.00    +0.000 C 
ATOM     12  O   UNL     1      20.718   3.249  52.306  0.00  0.00    +0.000 OA
ENDROOT
BRANCH   6  13
ATOM     13  O   UNL     1      19.022  -2.206  54.008  0.00  0.00    +0.000 OA
ATOM     14  H   UNL     1      18.246  -2.708  54.159  0.00  0.00    +0.000 HD
ENDBRANCH   6  13
BRANCH   9  15
ATOM     15  O   UNL     1      18.585   2.305  50.871  0.00  0.00    +0.000 OA
ATOM     16  H   UNL     1      18.051   2.246  50.102  0.00  0.00    +0.000 HD
ENDBRANCH   9  15
BRANCH   1  17
ATOM     17  C   UNL     1      23.435   2.373  52.296  0.00  0.00    +0.000 C 
BRANCH  17  18
ATOM     18  O   UNL     1      23.818   1.819  51.000  0.00  0.00    +0.000 OA
BRANCH  18  19
ATOM     19  C   UNL     1      23.601   2.648  49.939  0.00  0.00    +0.000 C 
ATOM     20  O   UNL     1      22.609   2.643  49.223  0.00  0.00    +0.000 OA
BRANCH  19  22
ATOM     21  C   UNL     1      26.072   3.281  49.744  0.00  0.00    +0.000 C 
ATOM     22  C   UNL     1      24.758   3.495  49.569  0.00  0.00    +0.000 C 
BRANCH  21  25
ATOM     23  C   UNL     1      27.872   6.385  48.297  0.00  0.00    +0.000 C 
ATOM     24  C   UNL     1      26.809   5.428  48.749  0.00  0.00    +0.000 C 
ATOM     25  C   UNL     1      27.060   4.172  49.152  0.00  0.00    +0.000 C 
ENDBRANCH  21  25
ENDBRANCH  19  22
ENDBRANCH  18  19
ENDBRANCH  17  18
BRANCH  17  26
ATOM     26  C   UNL     1      24.636   2.699  53.211  0.00  0.00    +0.000 C 
BRANCH  26  27
ATOM     27  C   UNL     1      25.742   1.816  53.731  0.00  0.00    +0.000 C 
ATOM     28  C   UNL     1      26.509   0.772  53.359  0.00  0.00    +0.000 C 
ATOM     29  C   UNL     1      27.536   0.258  54.354  0.00  0.00    +0.000 C 
ATOM     30  C   UNL     1      26.495   0.012  52.069  0.00  0.00    +0.000 C 
ENDBRANCH  26  27
ENDBRANCH  17  26
ENDBRANCH   1  17
TORSDOF 9
ENDMDL
MODEL 2
REMARK VINA RESULT:    -8.210      2.275      6.630
REMARK INTER + INTRA:         -13.621
REMARK INTER:                 -12.027
REMARK INTRA:                  -1.594
REMARK UNBOUND:                -1.572
REMARK  Name = 
REMARK  12 active torsions:
REMARK  status: ('A' for Active; 'I' for Inactive)
REMARK    1  A    between atoms: C_1  and  C_2
REMARK    2  A    between atoms: C_3  and  C_4
REMARK    3  A    between atoms: C_5  and  C_6
REMARK    4  A    between atoms: C_6  and  O_8
REMARK    5  A    between atoms: O_8  and  C_9
REMARK    6  A    between atoms: C_9  and  C_10
REMARK    7  A    between atoms: C_9  and  C_15
REMARK    8  A    between atoms: C_10  and  C_11
REMARK    9  A    between atoms: C_12  and  C_13
REMARK   10  A    between atoms: C_12  and  C_14
REMARK   11  A    between atoms: C_20  and  O_21
REMARK   12  A    between atoms: C_24  and  O_25
REMARK                            x       y       z     vdW  Elec       q    Type
REMARK                         _______ _______ _______ _____ _____    ______ ____
ROOT
ATOM      1  C   UNL     1      25.137   1.035  52.009  0.00  0.00    +0.000 C 
ATOM      2  C   UNL     1      26.195   1.730  51.571  0.00  0.00    +0.000 C 
ATOM      3  C   UNL     1      26.039   3.031  50.900  0.00  0.00    +0.000 C 
ATOM      4  O   UNL     1      26.972   3.555  50.307  0.00  0.00    +0.000 OA
ATOM      5  C   UNL     1      24.757   3.736  51.076  0.00  0.00    +0.000 A 
ATOM      6  C   UNL     1      24.661   5.106  50.811  0.00  0.00    +0.000 A 
ATOM      7  C   UNL     1      23.480   5.794  51.080  0.00  0.00    +0.000 A 
ATOM      8  C   UNL     1      22.388   5.120  51.624  0.00  0.00    +0.000 A 
ATOM      9  C   UNL     1      22.476   3.751  51.875  0.00  0.00    +0.000 A 
ATOM     10  C   UNL     1      23.653   3.046  51.577  0.00  0.00    +0.000 A 
ATOM     11  C   UNL     1      23.768   1.587  51.787  0.00  0.00    +0.000 C 
ATOM     12  O   UNL     1      22.790   0.851  51.774  0.00  0.00    +0.000 OA
ENDROOT
BRANCH   6  13
ATOM     13  O   UNL     1      25.698   5.844  50.310  0.00  0.00    +0.000 OA
ATOM     14  H   UNL     1      25.565   6.392  49.562  0.00  0.00    +0.000 HD
ENDBRANCH   6  13
BRANCH   9  15
ATOM     15  O   UNL     1      21.420   3.120  52.466  0.00  0.00    +0.000 OA
ATOM     16  H   UNL     1      20.662   3.611  52.716  0.00  0.00    +0.000 HD
ENDBRANCH   9  15
BRANCH   1  17
ATOM     17  C   UNL     1      25.207  -0.205  52.866  0.00  0.00    +0.000 C 
BRANCH  17  18
ATOM     18  O   UNL     1      25.117   0.142  54.282  0.00  0.00    +0.000 OA
BRANCH  18  19
ATOM     19  C   UNL     1      24.452  -0.767  55.050  0.00  0.00    +0.000 C 
ATOM     20  O   UNL     1      24.910  -1.347  56.024  0.00  0.00    +0.000 OA
BRANCH  19  22
ATOM     21  C   UNL     1      21.916  -0.623  54.741  0.00  0.00    +0.000 C 
ATOM     22  C   UNL     1      23.125  -1.167  54.526  0.00  0.00    +0.000 C 
BRANCH  21  25
ATOM     23  C   UNL     1      18.675  -0.718  52.630  0.00  0.00    +0.000 C 
ATOM     24  C   UNL     1      19.778  -0.265  53.540  0.00  0.00    +0.000 C 
ATOM     25  C   UNL     1      20.751  -1.072  53.991  0.00  0.00    +0.000 C 
ENDBRANCH  21  25
ENDBRANCH  19  22
ENDBRANCH  18  19
ENDBRANCH  17  18
BRANCH  17  26
ATOM     26  C   UNL     1      26.317  -1.231  52.548  0.00  0.00    +0.000 C 
BRANCH  26  27
ATOM     27  C   UNL     1      27.782  -1.236  52.904  0.00  0.00    +0.000 C 
ATOM     28  C   UNL     1      28.655  -0.644  53.743  0.00  0.00    +0.000 C 
ATOM     29  C   UNL     1      30.113  -1.067  53.660  0.00  0.00    +0.000 C 
ATOM     30  C   UNL     1      28.397   0.409  54.774  0.00  0.00    +0.000 C 
ENDBRANCH  26  27
ENDBRANCH  17  26
ENDBRANCH   1  17
TORSDOF 9
ENDMDL
MODEL 3
REMARK VINA RESULT:    -8.203      2.462      7.866
REMARK INTER + INTRA:         -13.611
REMARK INTER:                 -12.787
REMARK INTRA:                  -0.825
REMARK UNBOUND:                -1.572
REMARK  Name = 
REMARK  12 active torsions:
REMARK  status: ('A' for Active; 'I' for Inactive)
REMARK    1  A    between atoms: C_1  and  C_2
REMARK    2  A    between atoms: C_3  and  C_4
REMARK    3  A    between atoms: C_5  and  C_6
REMARK    4  A    between atoms: C_6  and  O_8
REMARK    5  A    between atoms: O_8  and  C_9
REMARK    6  A    between atoms: C_9  and  C_10
REMARK    7  A    between atoms: C_9  and  C_15
REMARK    8  A    between atoms: C_10  and  C_11
REMARK    9  A    between atoms: C_12  and  C_13
REMARK   10  A    between atoms: C_12  and  C_14
REMARK   11  A    between atoms: C_20  and  O_21
REMARK   12  A    between atoms: C_24  and  O_25
REMARK                            x       y       z     vdW  Elec       q    Type
REMARK                         _______ _______ _______ _____ _____    ______ ____
ROOT
ATOM      1  C   UNL     1      24.903   0.274  52.714  0.00  0.00    +0.000 C 
ATOM      2  C   UNL     1      25.202  -1.027  52.596  0.00  0.00    +0.000 C 
ATOM      3  C   UNL     1      26.598  -1.497  52.568  0.00  0.00    +0.000 C 
ATOM      4  O   UNL     1      26.874  -2.643  52.240  0.00  0.00    +0.000 OA
ATOM      5  C   UNL     1      27.634  -0.577  53.070  0.00  0.00    +0.000 A 
ATOM      6  C   UNL     1      28.894  -1.063  53.435  0.00  0.00    +0.000 A 
ATOM      7  C   UNL     1      29.837  -0.214  54.009  0.00  0.00    +0.000 A 
ATOM      8  C   UNL     1      29.525   1.127  54.232  0.00  0.00    +0.000 A 
ATOM      9  C   UNL     1      28.274   1.617  53.855  0.00  0.00    +0.000 A 
ATOM     10  C   UNL     1      27.332   0.773  53.247  0.00  0.00    +0.000 A 
ATOM     11  C   UNL     1      26.014   1.267  52.793  0.00  0.00    +0.000 C 
ATOM     12  O   UNL     1      25.832   2.437  52.486  0.00  0.00    +0.000 OA
ENDROOT
BRANCH   6  13
ATOM     13  O   UNL     1      29.263  -2.371  53.280  0.00  0.00    +0.000 OA
ATOM     14  H   UNL     1      30.009  -2.589  52.756  0.00  0.00    +0.000 HD
ENDBRANCH   6  13
BRANCH   9  15
ATOM     15  O   UNL     1      27.964   2.916  54.138  0.00  0.00    +0.000 OA
ATOM     16  H   UNL     1      27.355   3.380  53.596  0.00  0.00    +0.000 HD
ENDBRANCH   9  15
BRANCH   1  17
ATOM     17  C   UNL     1      23.517   0.828  52.939  0.00  0.00    +0.000 C 
BRANCH  17  18
ATOM     18  O   UNL     1      22.540  -0.252  53.044  0.00  0.00    +0.000 OA
BRANCH  18  19
ATOM     19  C   UNL     1      21.525  -0.019  53.922  0.00  0.00    +0.000 C 
ATOM     20  O   UNL     1      21.641   0.078  55.136  0.00  0.00    +0.000 OA
BRANCH  19  22
ATOM     21  C   UNL     1      19.794   0.043  52.039  0.00  0.00    +0.000 C 
ATOM     22  C   UNL     1      20.170  -0.052  53.325  0.00  0.00    +0.000 C 
BRANCH  21  25
ATOM     23  C   UNL     1      16.076  -1.025  52.003  0.00  0.00    +0.000 C 
ATOM     24  C   UNL     1      17.537  -0.938  52.330  0.00  0.00    +0.000 C 
ATOM     25  C   UNL     1      18.410  -0.183  51.646  0.00  0.00    +0.000 C 
ENDBRANCH  21  25
ENDBRANCH  19  22
ENDBRANCH  18  19
ENDBRANCH  17  18
BRANCH  17  26
ATOM     26  C   UNL     1      23.060   1.994  52.036  0.00  0.00    +0.000 C 
BRANCH  26  27
ATOM     27  C   UNL     1      22.811   2.046  50.550  0.00  0.00    +0.000 C 
ATOM     28  C   UNL     1      23.244   2.676  49.439  0.00  0.00    +0.000 C 
ATOM     29  C   UNL     1      22.590   2.306  48.117  0.00  0.00    +0.000 C 
ATOM     30  C   UNL     1      24.302   3.726  49.309  0.00  0.00    +0.000 C 
ENDBRANCH  26  27
ENDBRANCH  17  26
ENDBRANCH   1  17
TORSDOF 9
ENDMDL
MODEL 4
REMARK VINA RESULT:    -8.007      2.641      5.962
REMARK INTER + INTRA:         -13.324
REMARK INTER:                 -11.785
REMARK INTRA:                  -1.539
REMARK UNBOUND:                -1.572
REMARK  Name = 
REMARK  12 active torsions:
REMARK  status: ('A' for Active; 'I' for Inactive)
REMARK    1  A    between atoms: C_1  and  C_2
REMARK    2  A    between atoms: C_3  and  C_4
REMARK    3  A    between atoms: C_5  and  C_6
REMARK    4  A    between atoms: C_6  and  O_8
REMARK    5  A    between atoms: O_8  and  C_9
REMARK    6  A    between atoms: C_9  and  C_10
REMARK    7  A    between atoms: C_9  and  C_15
REMARK    8  A    between atoms: C_10  and  C_11
REMARK    9  A    between atoms: C_12  and  C_13
REMARK   10  A    between atoms: C_12  and  C_14
REMARK   11  A    between atoms: C_20  and  O_21
REMARK   12  A    between atoms: C_24  and  O_25
REMARK                            x       y       z     vdW  Elec       q    Type
REMARK                         _______ _______ _______ _____ _____    ______ ____
ROOT
ATOM      1  C   UNL     1      24.363   2.173  51.387  0.00  0.00    +0.000 C 
ATOM      2  C   UNL     1      23.660   1.269  52.082  0.00  0.00    +0.000 C 
ATOM      3  C   UNL     1      24.321   0.269  52.936  0.00  0.00    +0.000 C 
ATOM      4  O   UNL     1      23.703  -0.685  53.389  0.00  0.00    +0.000 OA
ATOM      5  C   UNL     1      25.717   0.528  53.328  0.00  0.00    +0.000 A 
ATOM      6  C   UNL     1      26.282  -0.143  54.418  0.00  0.00    +0.000 A 
ATOM      7  C   UNL     1      27.565   0.178  54.856  0.00  0.00    +0.000 A 
ATOM      8  C   UNL     1      28.291   1.180  54.213  0.00  0.00    +0.000 A 
ATOM      9  C   UNL     1      27.736   1.841  53.116  0.00  0.00    +0.000 A 
ATOM     10  C   UNL     1      26.456   1.498  52.652  0.00  0.00    +0.000 A 
ATOM     11  C   UNL     1      25.854   2.145  51.466  0.00  0.00    +0.000 C 
ATOM     12  O   UNL     1      26.537   2.633  50.577  0.00  0.00    +0.000 OA
ENDROOT
BRANCH   6  13
ATOM     13  O   UNL     1      25.621  -1.113  55.122  0.00  0.00    +0.000 OA
ATOM     14  H   UNL     1      26.059  -1.572  55.812  0.00  0.00    +0.000 HD
ENDBRANCH   6  13
BRANCH   9  15
ATOM     15  O   UNL     1      28.435   2.861  52.539  0.00  0.00    +0.000 OA
ATOM     16  H   UNL     1      29.371   2.839  52.528  0.00  0.00    +0.000 HD
ENDBRANCH   9  15
BRANCH   1  17
ATOM     17  C   UNL     1      23.773   3.345  50.641  0.00  0.00    +0.000 C 
BRANCH  17  18
ATOM     18  O   UNL     1      23.749   4.535  51.487  0.00  0.00    +0.000 OA
BRANCH  18  19
ATOM     19  C   UNL     1      24.003   5.704  50.833  0.00  0.00    +0.000 C 
ATOM     20  O   UNL     1      23.188   6.590  50.616  0.00  0.00    +0.000 OA
BRANCH  19  22
ATOM     21  C   UNL     1      25.695   5.946  48.930  0.00  0.00    +0.000 C 
ATOM     22  C   UNL     1      25.347   5.790  50.218  0.00  0.00    +0.000 C 
BRANCH  21  25
ATOM     23  C   UNL     1      29.410   5.445  47.971  0.00  0.00    +0.000 C 
ATOM     24  C   UNL     1      28.031   5.226  48.519  0.00  0.00    +0.000 C 
ATOM     25  C   UNL     1      27.083   6.176  48.553  0.00  0.00    +0.000 C 
ENDBRANCH  21  25
ENDBRANCH  19  22
ENDBRANCH  18  19
ENDBRANCH  17  18
BRANCH  17  26
ATOM     26  C   UNL     1      22.460   3.108  49.864  0.00  0.00    +0.000 C 
BRANCH  26  27
ATOM     27  C   UNL     1      21.042   3.503  50.189  0.00  0.00    +0.000 C 
ATOM     28  C   UNL     1      20.114   3.365  51.157  0.00  0.00    +0.000 C 
ATOM     29  C   UNL     1      18.761   4.021  50.939  0.00  0.00    +0.000 C 
ATOM     30  C   UNL     1      20.219   2.630  52.457  0.00  0.00    +0.000 C 
ENDBRANCH  26  27
ENDBRANCH  17  26
ENDBRANCH   1  17
TORSDOF 9
ENDMDL
MODEL 5
REMARK VINA RESULT:    -8.005      2.870      6.157
REMARK INTER + INTRA:         -13.320
REMARK INTER:                 -11.271
REMARK INTRA:                  -2.049
REMARK UNBOUND:                -1.572
REMARK  Name = 
REMARK  12 active torsions:
REMARK  status: ('A' for Active; 'I' for Inactive)
REMARK    1  A    between atoms: C_1  and  C_2
REMARK    2  A    between atoms: C_3  and  C_4
REMARK    3  A    between atoms: C_5  and  C_6
REMARK    4  A    between atoms: C_6  and  O_8
REMARK    5  A    between atoms: O_8  and  C_9
REMARK    6  A    between atoms: C_9  and  C_10
REMARK    7  A    between atoms: C_9  and  C_15
REMARK    8  A    between atoms: C_10  and  C_11
REMARK    9  A    between atoms: C_12  and  C_13
REMARK   10  A    between atoms: C_12  and  C_14
REMARK   11  A    between atoms: C_20  and  O_21
REMARK   12  A    between atoms: C_24  and  O_25
REMARK                            x       y       z     vdW  Elec       q    Type
REMARK                         _______ _______ _______ _____ _____    ______ ____
ROOT
ATOM      1  C   UNL     1      22.959   3.145  50.646  0.00  0.00    +0.000 C 
ATOM      2  C   UNL     1      22.737   3.109  49.326  0.00  0.00    +0.000 C 
ATOM      3  C   UNL     1      22.605   4.341  48.531  0.00  0.00    +0.000 C 
ATOM      4  O   UNL     1      22.185   4.313  47.382  0.00  0.00    +0.000 OA
ATOM      5  C   UNL     1      23.114   5.590  49.126  0.00  0.00    +0.000 A 
ATOM      6  C   UNL     1      23.379   6.701  48.318  0.00  0.00    +0.000 A 
ATOM      7  C   UNL     1      23.961   7.844  48.862  0.00  0.00    +0.000 A 
ATOM      8  C   UNL     1      24.291   7.883  50.216  0.00  0.00    +0.000 A 
ATOM      9  C   UNL     1      24.014   6.781  51.027  0.00  0.00    +0.000 A 
ATOM     10  C   UNL     1      23.398   5.639  50.490  0.00  0.00    +0.000 A 
ATOM     11  C   UNL     1      23.048   4.471  51.327  0.00  0.00    +0.000 C 
ATOM     12  O   UNL     1      22.832   4.575  52.527  0.00  0.00    +0.000 OA
ENDROOT
BRANCH   6  13
ATOM     13  O   UNL     1      23.117   6.728  46.976  0.00  0.00    +0.000 OA
ATOM     14  H   UNL     1      22.261   6.960  46.670  0.00  0.00    +0.000 HD
ENDBRANCH   6  13
BRANCH   9  15
ATOM     15  O   UNL     1      24.400   6.813  52.335  0.00  0.00    +0.000 OA
ATOM     16  H   UNL     1      25.062   6.224  52.642  0.00  0.00    +0.000 HD
ENDBRANCH   9  15
BRANCH   1  17
ATOM     17  C   UNL     1      23.293   1.950  51.504  0.00  0.00    +0.000 C 
BRANCH  17  18
ATOM     18  O   UNL     1      24.645   1.476  51.223  0.00  0.00    +0.000 OA
BRANCH  18  19
ATOM     19  C   UNL     1      25.634   2.156  51.869  0.00  0.00    +0.000 C 
ATOM     20  O   UNL     1      25.799   2.192  53.081  0.00  0.00    +0.000 OA
BRANCH  19  22
ATOM     21  C   UNL     1      26.467   3.147  49.663  0.00  0.00    +0.000 C 
ATOM     22  C   UNL     1      26.450   3.035  51.001  0.00  0.00    +0.000 C 
BRANCH  21  25
ATOM     23  C   UNL     1      27.657   6.569  48.305  0.00  0.00    +0.000 C 
ATOM     24  C   UNL     1      26.796   5.457  48.828  0.00  0.00    +0.000 C 
ATOM     25  C   UNL     1      27.232   4.201  49.010  0.00  0.00    +0.000 C 
ENDBRANCH  21  25
ENDBRANCH  19  22
ENDBRANCH  18  19
ENDBRANCH  17  18
BRANCH  17  26
ATOM     26  C   UNL     1      22.244   0.819  51.592  0.00  0.00    +0.000 C 
BRANCH  26  27
ATOM     27  C   UNL     1      22.080  -0.292  52.598  0.00  0.00    +0.000 C 
ATOM     28  C   UNL     1      21.543  -0.533  53.810  0.00  0.00    +0.000 C 
ATOM     29  C   UNL     1      21.687  -1.935  54.381  0.00  0.00    +0.000 C 
ATOM     30  C   UNL     1      20.808   0.407  54.714  0.00  0.00    +0.000 C 
ENDBRANCH  26  27
ENDBRANCH  17  26
ENDBRANCH   1  17
TORSDOF 9
ENDMDL
MODEL 6
REMARK VINA RESULT:    -7.855      2.273      6.601
REMARK INTER + INTRA:         -13.101
REMARK INTER:                 -11.860
REMARK INTRA:                  -1.241
REMARK UNBOUND:                -1.572
REMARK  Name = 
REMARK  12 active torsions:
REMARK  status: ('A' for Active; 'I' for Inactive)
REMARK    1  A    between atoms: C_1  and  C_2
REMARK    2  A    between atoms: C_3  and  C_4
REMARK    3  A    between atoms: C_5  and  C_6
REMARK    4  A    between atoms: C_6  and  O_8
REMARK    5  A    between atoms: O_8  and  C_9
REMARK    6  A    between atoms: C_9  and  C_10
REMARK    7  A    between atoms: C_9  and  C_15
REMARK    8  A    between atoms: C_10  and  C_11
REMARK    9  A    between atoms: C_12  and  C_13
REMARK   10  A    between atoms: C_12  and  C_14
REMARK   11  A    between atoms: C_20  and  O_21
REMARK   12  A    between atoms: C_24  and  O_25
REMARK                            x       y       z     vdW  Elec       q    Type
REMARK                         _______ _______ _______ _____ _____    ______ ____
ROOT
ATOM      1  C   UNL     1      24.576   2.211  51.286  0.00  0.00    +0.000 C 
ATOM      2  C   UNL     1      23.763   1.388  51.960  0.00  0.00    +0.000 C 
ATOM      3  C   UNL     1      24.289   0.367  52.881  0.00  0.00    +0.000 C 
ATOM      4  O   UNL     1      23.571  -0.521  53.320  0.00  0.00    +0.000 OA
ATOM      5  C   UNL     1      25.676   0.527  53.351  0.00  0.00    +0.000 A 
ATOM      6  C   UNL     1      26.119  -0.150  54.492  0.00  0.00    +0.000 A 
ATOM      7  C   UNL     1      27.395   0.083  55.000  0.00  0.00    +0.000 A 
ATOM      8  C   UNL     1      28.236   1.004  54.376  0.00  0.00    +0.000 A 
ATOM      9  C   UNL     1      27.802   1.670  53.229  0.00  0.00    +0.000 A 
ATOM     10  C   UNL     1      26.529   1.415  52.696  0.00  0.00    +0.000 A 
ATOM     11  C   UNL     1      26.053   2.068  51.458  0.00  0.00    +0.000 C 
ATOM     12  O   UNL     1      26.826   2.471  50.599  0.00  0.00    +0.000 OA
ENDROOT
BRANCH   6  13
ATOM     13  O   UNL     1      25.341  -1.042  55.180  0.00  0.00    +0.000 OA
ATOM     14  H   UNL     1      25.028  -0.828  56.037  0.00  0.00    +0.000 HD
ENDBRANCH   6  13
BRANCH   9  15
ATOM     15  O   UNL     1      28.614   2.613  52.669  0.00  0.00    +0.000 OA
ATOM     16  H   UNL     1      28.784   2.596  51.747  0.00  0.00    +0.000 HD
ENDBRANCH   9  15
BRANCH   1  17
ATOM     17  C   UNL     1      24.129   3.401  50.473  0.00  0.00    +0.000 C 
BRANCH  17  18
ATOM     18  O   UNL     1      23.941   3.027  49.073  0.00  0.00    +0.000 OA
BRANCH  18  19
ATOM     19  C   UNL     1      22.736   3.385  48.545  0.00  0.00    +0.000 C 
ATOM     20  O   UNL     1      22.544   4.317  47.777  0.00  0.00    +0.000 OA
BRANCH  19  22
ATOM     21  C   UNL     1      21.315   1.335  49.116  0.00  0.00    +0.000 C 
ATOM     22  C   UNL     1      21.575   2.653  49.101  0.00  0.00    +0.000 C 
BRANCH  21  25
ATOM     23  C   UNL     1      19.019   0.072  51.963  0.00  0.00    +0.000 C 
ATOM     24  C   UNL     1      20.229   0.459  51.164  0.00  0.00    +0.000 C 
ATOM     25  C   UNL     1      20.186   0.804  49.868  0.00  0.00    +0.000 C 
ENDBRANCH  21  25
ENDBRANCH  19  22
ENDBRANCH  18  19
ENDBRANCH  17  18
BRANCH  17  26
ATOM     26  C   UNL     1      24.899   4.726  50.664  0.00  0.00    +0.000 C 
BRANCH  26  27
ATOM     27  C   UNL     1      25.420   5.714  49.651  0.00  0.00    +0.000 C 
ATOM     28  C   UNL     1      26.463   5.906  48.820  0.00  0.00    +0.000 C 
ATOM     29  C   UNL     1      26.468   7.166  47.971  0.00  0.00    +0.000 C 
ATOM     30  C   UNL     1      27.664   5.037  48.607  0.00  0.00    +0.000 C 
ENDBRANCH  26  27
ENDBRANCH  17  26
ENDBRANCH   1  17
TORSDOF 9
ENDMDL
MODEL 7
REMARK VINA RESULT:    -7.665      2.080      5.394
REMARK INTER + INTRA:         -12.822
REMARK INTER:                 -10.744
REMARK INTRA:                  -2.078
REMARK UNBOUND:                -1.572
REMARK  Name = 
REMARK  12 active torsions:
REMARK  status: ('A' for Active; 'I' for Inactive)
REMARK    1  A    between atoms: C_1  and  C_2
REMARK    2  A    between atoms: C_3  and  C_4
REMARK    3  A    between atoms: C_5  and  C_6
REMARK    4  A    between atoms: C_6  and  O_8
REMARK    5  A    between atoms: O_8  and  C_9
REMARK    6  A    between atoms: C_9  and  C_10
REMARK    7  A    between atoms: C_9  and  C_15
REMARK    8  A    between atoms: C_10  and  C_11
REMARK    9  A    between atoms: C_12  and  C_13
REMARK   10  A    between atoms: C_12  and  C_14
REMARK   11  A    between atoms: C_20  and  O_21
REMARK   12  A    between atoms: C_24  and  O_25
REMARK                            x       y       z     vdW  Elec       q    Type
REMARK                         _______ _______ _______ _____ _____    ______ ____
ROOT
ATOM      1  C   UNL     1      24.253   3.389  51.212  0.00  0.00    +0.000 C 
ATOM      2  C   UNL     1      25.357   2.631  51.244  0.00  0.00    +0.000 C 
ATOM      3  C   UNL     1      25.499   1.516  52.194  0.00  0.00    +0.000 C 
ATOM      4  O   UNL     1      26.579   0.971  52.377  0.00  0.00    +0.000 OA
ATOM      5  C   UNL     1      24.270   0.998  52.821  0.00  0.00    +0.000 A 
ATOM      6  C   UNL     1      24.259  -0.269  53.416  0.00  0.00    +0.000 A 
ATOM      7  C   UNL     1      23.072  -0.803  53.912  0.00  0.00    +0.000 A 
ATOM      8  C   UNL     1      21.884  -0.080  53.811  0.00  0.00    +0.000 A 
ATOM      9  C   UNL     1      21.896   1.190  53.233  0.00  0.00    +0.000 A 
ATOM     10  C   UNL     1      23.095   1.746  52.759  0.00  0.00    +0.000 A 
ATOM     11  C   UNL     1      23.153   3.106  52.182  0.00  0.00    +0.000 C 
ATOM     12  O   UNL     1      22.345   3.974  52.483  0.00  0.00    +0.000 OA
ENDROOT
BRANCH   6  13
ATOM     13  O   UNL     1      25.374  -1.054  53.521  0.00  0.00    +0.000 OA
ATOM     14  H   UNL     1      25.918  -1.200  52.772  0.00  0.00    +0.000 HD
ENDBRANCH   6  13
BRANCH   9  15
ATOM     15  O   UNL     1      20.715   1.857  53.086  0.00  0.00    +0.000 OA
ATOM     16  H   UNL     1      20.048   1.511  52.525  0.00  0.00    +0.000 HD
ENDBRANCH   9  15
BRANCH   1  17
ATOM     17  C   UNL     1      23.941   4.423  50.158  0.00  0.00    +0.000 C 
BRANCH  17  18
ATOM     18  O   UNL     1      23.949   3.823  48.827  0.00  0.00    +0.000 OA
BRANCH  18  19
ATOM     19  C   UNL     1      22.734   3.784  48.212  0.00  0.00    +0.000 C 
ATOM     20  O   UNL     1      22.344   4.564  47.354  0.00  0.00    +0.000 OA
BRANCH  19  22
ATOM     21  C   UNL     1      21.936   1.476  48.975  0.00  0.00    +0.000 C 
ATOM     22  C   UNL     1      21.786   2.796  48.776  0.00  0.00    +0.000 C 
BRANCH  21  25
ATOM     23  C   UNL     1      18.634   0.309  50.620  0.00  0.00    +0.000 C 
ATOM     24  C   UNL     1      19.709   1.165  50.019  0.00  0.00    +0.000 C 
ATOM     25  C   UNL     1      20.933   0.711  49.703  0.00  0.00    +0.000 C 
ENDBRANCH  21  25
ENDBRANCH  19  22
ENDBRANCH  18  19
ENDBRANCH  17  18
BRANCH  17  26
ATOM     26  C   UNL     1      24.692   5.771  50.237  0.00  0.00    +0.000 C 
BRANCH  26  27
ATOM     27  C   UNL     1      25.762   6.352  49.348  0.00  0.00    +0.000 C 
ATOM     28  C   UNL     1      26.902   6.003  48.720  0.00  0.00    +0.000 C 
ATOM     29  C   UNL     1      27.614   7.068  47.903  0.00  0.00    +0.000 C 
ATOM     30  C   UNL     1      27.601   4.679  48.713  0.00  0.00    +0.000 C 
ENDBRANCH  26  27
ENDBRANCH  17  26
ENDBRANCH   1  17
TORSDOF 9
ENDMDL
MODEL 8
REMARK VINA RESULT:    -7.591      3.542      8.967
REMARK INTER + INTRA:         -12.712
REMARK INTER:                 -11.122
REMARK INTRA:                  -1.590
REMARK UNBOUND:                -1.572
REMARK  Name = 
REMARK  12 active torsions:
REMARK  status: ('A' for Active; 'I' for Inactive)
REMARK    1  A    between atoms: C_1  and  C_2
REMARK    2  A    between atoms: C_3  and  C_4
REMARK    3  A    between atoms: C_5  and  C_6
REMARK    4  A    between atoms: C_6  and  O_8
REMARK    5  A    between atoms: O_8  and  C_9
REMARK    6  A    between atoms: C_9  and  C_10
REMARK    7  A    between atoms: C_9  and  C_15
REMARK    8  A    between atoms: C_10  and  C_11
REMARK    9  A    between atoms: C_12  and  C_13
REMARK   10  A    between atoms: C_12  and  C_14
REMARK   11  A    between atoms: C_20  and  O_21
REMARK   12  A    between atoms: C_24  and  O_25
REMARK                            x       y       z     vdW  Elec       q    Type
REMARK                         _______ _______ _______ _____ _____    ______ ____
ROOT
ATOM      1  C   UNL     1      26.313   4.734  49.282  0.00  0.00    +0.000 C 
ATOM      2  C   UNL     1      27.545   4.600  48.774  0.00  0.00    +0.000 C 
ATOM      3  C   UNL     1      28.325   5.766  48.328  0.00  0.00    +0.000 C 
ATOM      4  O   UNL     1      29.346   5.631  47.666  0.00  0.00    +0.000 OA
ATOM      5  C   UNL     1      27.904   7.092  48.814  0.00  0.00    +0.000 A 
ATOM      6  C   UNL     1      28.785   8.177  48.764  0.00  0.00    +0.000 A 
ATOM      7  C   UNL     1      28.426   9.402  49.321  0.00  0.00    +0.000 A 
ATOM      8  C   UNL     1      27.186   9.551  49.941  0.00  0.00    +0.000 A 
ATOM      9  C   UNL     1      26.299   8.474  49.979  0.00  0.00    +0.000 A 
ATOM     10  C   UNL     1      26.644   7.247  49.391  0.00  0.00    +0.000 A 
ATOM     11  C   UNL     1      25.712   6.098  49.373  0.00  0.00    +0.000 C 
ATOM     12  O   UNL     1      24.499   6.247  49.422  0.00  0.00    +0.000 OA
ENDROOT
BRANCH   6  13
ATOM     13  O   UNL     1      30.031   8.102  48.204  0.00  0.00    +0.000 OA
ATOM     14  H   UNL     1      30.436   8.872  47.855  0.00  0.00    +0.000 HD
ENDBRANCH   6  13
BRANCH   9  15
ATOM     15  O   UNL     1      25.117   8.618  50.645  0.00  0.00    +0.000 OA
ATOM     16  H   UNL     1      24.406   8.035  50.467  0.00  0.00    +0.000 HD
ENDBRANCH   9  15
BRANCH   1  17
ATOM     17  C   UNL     1      25.518   3.629  49.933  0.00  0.00    +0.000 C 
BRANCH  17  18
ATOM     18  O   UNL     1      26.359   2.459  50.169  0.00  0.00    +0.000 OA
BRANCH  18  19
ATOM     19  C   UNL     1      26.520   2.128  51.481  0.00  0.00    +0.000 C 
ATOM     20  O   UNL     1      27.366   2.592  52.234  0.00  0.00    +0.000 OA
BRANCH  19  22
ATOM     21  C   UNL     1      24.830   0.921  52.975  0.00  0.00    +0.000 C 
ATOM     22  C   UNL     1      25.684   0.996  51.941  0.00  0.00    +0.000 C 
BRANCH  21  25
ATOM     23  C   UNL     1      21.918  -1.421  53.977  0.00  0.00    +0.000 C 
ATOM     24  C   UNL     1      22.879  -0.270  53.932  0.00  0.00    +0.000 C 
ATOM     25  C   UNL     1      23.973  -0.243  53.156  0.00  0.00    +0.000 C 
ENDBRANCH  21  25
ENDBRANCH  19  22
ENDBRANCH  18  19
ENDBRANCH  17  18
BRANCH  17  26
ATOM     26  C   UNL     1      24.138   3.290  49.327  0.00  0.00    +0.000 C 
BRANCH  26  27
ATOM     27  C   UNL     1      23.103   2.277  49.747  0.00  0.00    +0.000 C 
ATOM     28  C   UNL     1      22.202   2.047  50.723  0.00  0.00    +0.000 C 
ATOM     29  C   UNL     1      21.370   0.778  50.631  0.00  0.00    +0.000 C 
ATOM     30  C   UNL     1      21.894   2.878  51.929  0.00  0.00    +0.000 C 
ENDBRANCH  26  27
ENDBRANCH  17  26
ENDBRANCH   1  17
TORSDOF 9
ENDMDL
MODEL 9
REMARK VINA RESULT:    -7.573      1.891      6.028
REMARK INTER + INTRA:         -12.686
REMARK INTER:                 -11.276
REMARK INTRA:                  -1.411
REMARK UNBOUND:                -1.572
REMARK  Name = 
REMARK  12 active torsions:
REMARK  status: ('A' for Active; 'I' for Inactive)
REMARK    1  A    between atoms: C_1  and  C_2
REMARK    2  A    between atoms: C_3  and  C_4
REMARK    3  A    between atoms: C_5  and  C_6
REMARK    4  A    between atoms: C_6  and  O_8
REMARK    5  A    between atoms: O_8  and  C_9
REMARK    6  A    between atoms: C_9  and  C_10
REMARK    7  A    between atoms: C_9  and  C_15
REMARK    8  A    between atoms: C_10  and  C_11
REMARK    9  A    between atoms: C_12  and  C_13
REMARK   10  A    between atoms: C_12  and  C_14
REMARK   11  A    between atoms: C_20  and  O_21
REMARK   12  A    between atoms: C_24  and  O_25
REMARK                            x       y       z     vdW  Elec       q    Type
REMARK                         _______ _______ _______ _____ _____    ______ ____
ROOT
ATOM      1  C   UNL     1      23.433   1.895  51.199  0.00  0.00    +0.000 C 
ATOM      2  C   UNL     1      24.719   1.527  51.279  0.00  0.00    +0.000 C 
ATOM      3  C   UNL     1      25.264   0.887  52.488  0.00  0.00    +0.000 C 
ATOM      4  O   UNL     1      26.470   0.756  52.647  0.00  0.00    +0.000 OA
ATOM      5  C   UNL     1      24.303   0.299  53.437  0.00  0.00    +0.000 A 
ATOM      6  C   UNL     1      24.727  -0.640  54.383  0.00  0.00    +0.000 A 
ATOM      7  C   UNL     1      23.802  -1.277  55.208  0.00  0.00    +0.000 A 
ATOM      8  C   UNL     1      22.444  -0.986  55.088  0.00  0.00    +0.000 A 
ATOM      9  C   UNL     1      22.019  -0.039  54.155  0.00  0.00    +0.000 A 
ATOM     10  C   UNL     1      22.950   0.629  53.344  0.00  0.00    +0.000 A 
ATOM     11  C   UNL     1      22.543   1.670  52.377  0.00  0.00    +0.000 C 
ATOM     12  O   UNL     1      21.525   2.332  52.528  0.00  0.00    +0.000 OA
ENDROOT
BRANCH   6  13
ATOM     13  O   UNL     1      26.037  -1.004  54.538  0.00  0.00    +0.000 OA
ATOM     14  H   UNL     1      26.634  -0.430  54.976  0.00  0.00    +0.000 HD
ENDBRANCH   6  13
BRANCH   9  15
ATOM     15  O   UNL     1      20.682   0.187  54.008  0.00  0.00    +0.000 OA
ATOM     16  H   UNL     1      20.383   0.958  53.566  0.00  0.00    +0.000 HD
ENDBRANCH   9  15
BRANCH   1  17
ATOM     17  C   UNL     1      22.746   2.380  49.947  0.00  0.00    +0.000 C 
BRANCH  17  18
ATOM     18  O   UNL     1      22.018   1.290  49.303  0.00  0.00    +0.000 OA
BRANCH  18  19
ATOM     19  C   UNL     1      20.705   1.551  49.052  0.00  0.00    +0.000 C 
ATOM     20  O   UNL     1      20.281   2.359  48.237  0.00  0.00    +0.000 OA
BRANCH  19  22
ATOM     21  C   UNL     1      18.700   1.402  50.635  0.00  0.00    +0.000 C 
ATOM     22  C   UNL     1      19.755   0.892  49.979  0.00  0.00    +0.000 C 
BRANCH  21  25
ATOM     23  C   UNL     1      17.237  -1.385  52.885  0.00  0.00    +0.000 C 
ATOM     24  C   UNL     1      18.150  -0.597  51.993  0.00  0.00    +0.000 C 
ATOM     25  C   UNL     1      17.790   0.537  51.373  0.00  0.00    +0.000 C 
ENDBRANCH  21  25
ENDBRANCH  19  22
ENDBRANCH  18  19
ENDBRANCH  17  18
BRANCH  17  26
ATOM     26  C   UNL     1      23.573   3.241  48.966  0.00  0.00    +0.000 C 
BRANCH  26  27
ATOM     27  C   UNL     1      24.386   4.488  49.200  0.00  0.00    +0.000 C 
ATOM     28  C   UNL     1      25.666   4.895  49.312  0.00  0.00    +0.000 C 
ATOM     29  C   UNL     1      25.919   6.373  49.563  0.00  0.00    +0.000 C 
ATOM     30  C   UNL     1      26.919   4.080  49.231  0.00  0.00    +0.000 C 
ENDBRANCH  26  27
ENDBRANCH  17  26
ENDBRANCH   1  17
TORSDOF 9
ENDMDL
