MODEL 1
REMARK VINA RESULT:    -6.831      0.000      0.000
REMARK INTER + INTRA:         -11.827
REMARK INTER:                 -10.225
REMARK INTRA:                  -1.602
REMARK UNBOUND:                -1.602
REMARK  Name = 
REMARK  10 active torsions:
REMARK  status: ('A' for Active; 'I' for Inactive)
REMARK    1  A    between atoms: C_1  and  O_2
REMARK    2  A    between atoms: O_2  and  C_3
REMARK    3  A    between atoms: C_3  and  C_5
REMARK    4  A    between atoms: C_10  and  O_11
REMARK    5  A    between atoms: O_11  and  C_12
REMARK    6  A    between atoms: C_12  and  C_13
REMARK    7  A    between atoms: C_13  and  C_14
REMARK    8  A    between atoms: C_14  and  O_15
REMARK    9  A    between atoms: O_15  and  C_16
REMARK   10  A    between atoms: C_21  and  O_22
REMARK                            x       y       z     vdW  Elec       q    Type
REMARK                         _______ _______ _______ _____ _____    ______ ____
ROOT
ATOM      1  C   UNL     1      21.911   0.235  53.852  0.00  0.00    +0.000 C 
ENDROOT
BRANCH   1   2
ATOM      2  C   UNL     1      21.469   0.554  52.409  0.00  0.00    +0.000 C 
BRANCH   2   3
ATOM      3  O   UNL     1      22.210   1.711  51.953  0.00  0.00    +0.000 OA
BRANCH   3   9
ATOM      4  C   UNL     1      23.097   2.891  49.945  0.00  0.00    +0.000 A 
ATOM      5  C   UNL     1      23.185   2.919  48.538  0.00  0.00    +0.000 A 
ATOM      6  C   UNL     1      22.425   2.050  47.763  0.00  0.00    +0.000 A 
ATOM      7  C   UNL     1      21.597   1.138  48.402  0.00  0.00    +0.000 A 
ATOM      8  C   UNL     1      21.607   1.036  49.800  0.00  0.00    +0.000 A 
ATOM      9  C   UNL     1      22.391   1.878  50.602  0.00  0.00    +0.000 A 
BRANCH   4  10
ATOM     10  C   UNL     1      23.497   4.150  50.620  0.00  0.00    +0.000 C 
ATOM     11  O   UNL     1      24.527   4.364  51.217  0.00  0.00    +0.000 OA
BRANCH  10  13
ATOM     12  C   UNL     1      21.747   5.509  51.542  0.00  0.00    +0.000 C 
ATOM     13  O   UNL     1      22.453   4.996  50.415  0.00  0.00    +0.000 OA
ENDBRANCH  10  13
ENDBRANCH   4  10
ENDBRANCH   3   9
ENDBRANCH   2   3
ENDBRANCH   1   2
BRANCH   1  14
ATOM     14  C   UNL     1      23.124  -0.707  54.000  0.00  0.00    +0.000 C 
BRANCH  14  15
ATOM     15  O   UNL     1      24.069  -0.506  52.949  0.00  0.00    +0.000 OA
BRANCH  15  16
ATOM     16  C   UNL     1      25.278   0.090  53.234  0.00  0.00    +0.000 A 
ATOM     17  C   UNL     1      26.343  -0.826  53.302  0.00  0.00    +0.000 A 
ATOM     18  C   UNL     1      27.603  -0.370  53.620  0.00  0.00    +0.000 A 
ATOM     19  C   UNL     1      27.844   0.955  53.942  0.00  0.00    +0.000 A 
ATOM     20  C   UNL     1      26.842   1.894  53.851  0.00  0.00    +0.000 A 
ATOM     21  C   UNL     1      25.558   1.456  53.465  0.00  0.00    +0.000 A 
ATOM     22  C   UNL     1      29.264   1.074  54.381  0.00  0.00    +0.000 C 
ATOM     23  C   UNL     1      29.792  -0.130  53.607  0.00  0.00    +0.000 C 
ATOM     24  O   UNL     1      28.746  -1.137  53.628  0.00  0.00    +0.000 OA
BRANCH  21  25
ATOM     25  O   UNL     1      24.587   2.411  53.309  0.00  0.00    +0.000 OA
ATOM     26  H   UNL     1      24.711   3.111  52.700  0.00  0.00    +0.000 HD
ENDBRANCH  21  25
ENDBRANCH  15  16
ENDBRANCH  14  15
ENDBRANCH   1  14
TORSDOF 9
ENDMDL
MODEL 2
REMARK VINA RESULT:    -6.781      2.397      6.747
REMARK INTER + INTRA:         -11.752
REMARK INTER:                 -10.616
REMARK INTRA:                  -1.136
REMARK UNBOUND:                -1.602
REMARK  Name = 
REMARK  10 active torsions:
REMARK  status: ('A' for Active; 'I' for Inactive)
REMARK    1  A    between atoms: C_1  and  O_2
REMARK    2  A    between atoms: O_2  and  C_3
REMARK    3  A    between atoms: C_3  and  C_5
REMARK    4  A    between atoms: C_10  and  O_11
REMARK    5  A    between atoms: O_11  and  C_12
REMARK    6  A    between atoms: C_12  and  C_13
REMARK    7  A    between atoms: C_13  and  C_14
REMARK    8  A    between atoms: C_14  and  O_15
REMARK    9  A    between atoms: O_15  and  C_16
REMARK   10  A    between atoms: C_21  and  O_22
REMARK                            x       y       z     vdW  Elec       q    Type
REMARK                         _______ _______ _______ _____ _____    ______ ____
ROOT
ATOM      1  C   UNL     1      23.074  -1.157  55.501  0.00  0.00    +0.000 C 
ENDROOT
BRANCH   1   2
ATOM      2  C   UNL     1      24.458  -0.804  54.918  0.00  0.00    +0.000 C 
BRANCH   2   3
ATOM      3  O   UNL     1      24.352  -0.788  53.474  0.00  0.00    +0.000 OA
BRANCH   3   9
ATOM      4  C   UNL     1      26.311   0.231  52.319  0.00  0.00    +0.000 A 
ATOM      5  C   UNL     1      26.819   1.348  51.625  0.00  0.00    +0.000 A 
ATOM      6  C   UNL     1      26.085   2.526  51.543  0.00  0.00    +0.000 A 
ATOM      7  C   UNL     1      24.832   2.574  52.138  0.00  0.00    +0.000 A 
ATOM      8  C   UNL     1      24.285   1.422  52.721  0.00  0.00    +0.000 A 
ATOM      9  C   UNL     1      24.992   0.213  52.785  0.00  0.00    +0.000 A 
BRANCH   4  10
ATOM     10  C   UNL     1      27.338  -0.727  52.797  0.00  0.00    +0.000 C 
ATOM     11  O   UNL     1      27.296  -1.934  52.736  0.00  0.00    +0.000 OA
BRANCH  10  13
ATOM     12  C   UNL     1      28.560   0.036  54.717  0.00  0.00    +0.000 C 
ATOM     13  O   UNL     1      28.324   0.056  53.311  0.00  0.00    +0.000 OA
ENDBRANCH  10  13
ENDBRANCH   4  10
ENDBRANCH   3   9
ENDBRANCH   2   3
ENDBRANCH   1   2
BRANCH   1  14
ATOM     14  C   UNL     1      22.085  -1.847  54.537  0.00  0.00    +0.000 C 
BRANCH  14  15
ATOM     15  O   UNL     1      20.765  -1.324  54.683  0.00  0.00    +0.000 OA
BRANCH  15  16
ATOM     16  C   UNL     1      20.110  -0.828  53.578  0.00  0.00    +0.000 A 
ATOM     17  C   UNL     1      20.956  -0.122  52.705  0.00  0.00    +0.000 A 
ATOM     18  C   UNL     1      20.423   0.464  51.578  0.00  0.00    +0.000 A 
ATOM     19  C   UNL     1      19.065   0.438  51.311  0.00  0.00    +0.000 A 
ATOM     20  C   UNL     1      18.203  -0.273  52.115  0.00  0.00    +0.000 A 
ATOM     21  C   UNL     1      18.742  -0.933  53.240  0.00  0.00    +0.000 A 
ATOM     22  C   UNL     1      18.812   1.287  50.112  0.00  0.00    +0.000 C 
ATOM     23  C   UNL     1      20.200   1.144  49.495  0.00  0.00    +0.000 C 
ATOM     24  O   UNL     1      21.148   1.099  50.595  0.00  0.00    +0.000 OA
BRANCH  21  25
ATOM     25  O   UNL     1      17.886  -1.696  53.992  0.00  0.00    +0.000 OA
ATOM     26  H   UNL     1      17.422  -2.407  53.598  0.00  0.00    +0.000 HD
ENDBRANCH  21  25
ENDBRANCH  15  16
ENDBRANCH  14  15
ENDBRANCH   1  14
TORSDOF 9
ENDMDL
MODEL 3
REMARK VINA RESULT:    -6.762      3.298      6.407
REMARK INTER + INTRA:         -11.724
REMARK INTER:                 -10.173
REMARK INTRA:                  -1.551
REMARK UNBOUND:                -1.602
REMARK  Name = 
REMARK  10 active torsions:
REMARK  status: ('A' for Active; 'I' for Inactive)
REMARK    1  A    between atoms: C_1  and  O_2
REMARK    2  A    between atoms: O_2  and  C_3
REMARK    3  A    between atoms: C_3  and  C_5
REMARK    4  A    between atoms: C_10  and  O_11
REMARK    5  A    between atoms: O_11  and  C_12
REMARK    6  A    between atoms: C_12  and  C_13
REMARK    7  A    between atoms: C_13  and  C_14
REMARK    8  A    between atoms: C_14  and  O_15
REMARK    9  A    between atoms: O_15  and  C_16
REMARK   10  A    between atoms: C_21  and  O_22
REMARK                            x       y       z     vdW  Elec       q    Type
REMARK                         _______ _______ _______ _____ _____    ______ ____
ROOT
ATOM      1  C   UNL     1      23.630   4.529  52.100  0.00  0.00    +0.000 C 
ENDROOT
BRANCH   1   2
ATOM      2  C   UNL     1      22.853   3.304  51.575  0.00  0.00    +0.000 C 
BRANCH   2   3
ATOM      3  O   UNL     1      23.784   2.206  51.425  0.00  0.00    +0.000 OA
BRANCH   3   9
ATOM      4  C   UNL     1      24.918   0.564  52.918  0.00  0.00    +0.000 A 
ATOM      5  C   UNL     1      24.767  -0.418  53.918  0.00  0.00    +0.000 A 
ATOM      6  C   UNL     1      23.504  -0.874  54.280  0.00  0.00    +0.000 A 
ATOM      7  C   UNL     1      22.393  -0.324  53.656  0.00  0.00    +0.000 A 
ATOM      8  C   UNL     1      22.545   0.736  52.751  0.00  0.00    +0.000 A 
ATOM      9  C   UNL     1      23.807   1.235  52.395  0.00  0.00    +0.000 A 
BRANCH   4  10
ATOM     10  C   UNL     1      26.243   0.577  52.251  0.00  0.00    +0.000 C 
ATOM     11  O   UNL     1      26.791  -0.348  51.697  0.00  0.00    +0.000 OA
BRANCH  10  13
ATOM     12  C   UNL     1      27.846   2.086  53.206  0.00  0.00    +0.000 C 
ATOM     13  O   UNL     1      26.691   1.852  52.405  0.00  0.00    +0.000 OA
ENDBRANCH  10  13
ENDBRANCH   4  10
ENDBRANCH   3   9
ENDBRANCH   2   3
ENDBRANCH   1   2
BRANCH   1  14
ATOM     14  C   UNL     1      23.686   5.753  51.162  0.00  0.00    +0.000 C 
BRANCH  14  15
ATOM     15  O   UNL     1      24.026   5.371  49.829  0.00  0.00    +0.000 OA
BRANCH  15  16
ATOM     16  C   UNL     1      25.343   5.417  49.429  0.00  0.00    +0.000 A 
ATOM     17  C   UNL     1      25.767   6.708  49.068  0.00  0.00    +0.000 A 
ATOM     18  C   UNL     1      27.052   6.890  48.609  0.00  0.00    +0.000 A 
ATOM     19  C   UNL     1      27.924   5.830  48.426  0.00  0.00    +0.000 A 
ATOM     20  C   UNL     1      27.567   4.554  48.801  0.00  0.00    +0.000 A 
ATOM     21  C   UNL     1      26.275   4.358  49.333  0.00  0.00    +0.000 A 
ATOM     22  C   UNL     1      29.161   6.353  47.779  0.00  0.00    +0.000 C 
ATOM     23  C   UNL     1      29.040   7.784  48.293  0.00  0.00    +0.000 C 
ATOM     24  O   UNL     1      27.624   8.107  48.315  0.00  0.00    +0.000 OA
BRANCH  21  25
ATOM     25  O   UNL     1      25.958   3.097  49.769  0.00  0.00    +0.000 OA
ATOM     26  H   UNL     1      25.067   2.811  49.768  0.00  0.00    +0.000 HD
ENDBRANCH  21  25
ENDBRANCH  15  16
ENDBRANCH  14  15
ENDBRANCH   1  14
TORSDOF 9
ENDMDL
MODEL 4
REMARK VINA RESULT:    -6.725      1.934      6.863
REMARK INTER + INTRA:         -11.668
REMARK INTER:                 -10.299
REMARK INTRA:                  -1.369
REMARK UNBOUND:                -1.602
REMARK  Name = 
REMARK  10 active torsions:
REMARK  status: ('A' for Active; 'I' for Inactive)
REMARK    1  A    between atoms: C_1  and  O_2
REMARK    2  A    between atoms: O_2  and  C_3
REMARK    3  A    between atoms: C_3  and  C_5
REMARK    4  A    between atoms: C_10  and  O_11
REMARK    5  A    between atoms: O_11  and  C_12
REMARK    6  A    between atoms: C_12  and  C_13
REMARK    7  A    between atoms: C_13  and  C_14
REMARK    8  A    between atoms: C_14  and  O_15
REMARK    9  A    between atoms: O_15  and  C_16
REMARK   10  A    between atoms: C_21  and  O_22
REMARK                            x       y       z     vdW  Elec       q    Type
REMARK                         _______ _______ _______ _____ _____    ______ ____
ROOT
ATOM      1  C   UNL     1      26.348   3.213  49.818  0.00  0.00    +0.000 C 
ENDROOT
BRANCH   1   2
ATOM      2  C   UNL     1      26.726   2.737  51.236  0.00  0.00    +0.000 C 
BRANCH   2   3
ATOM      3  O   UNL     1      26.604   1.296  51.278  0.00  0.00    +0.000 OA
BRANCH   3   9
ATOM      4  C   UNL     1      26.011  -0.327  53.074  0.00  0.00    +0.000 A 
ATOM      5  C   UNL     1      25.023  -0.781  53.973  0.00  0.00    +0.000 A 
ATOM      6  C   UNL     1      23.720  -0.302  53.896  0.00  0.00    +0.000 A 
ATOM      7  C   UNL     1      23.416   0.651  52.933  0.00  0.00    +0.000 A 
ATOM      8  C   UNL     1      24.430   1.184  52.124  0.00  0.00    +0.000 A 
ATOM      9  C   UNL     1      25.758   0.740  52.207  0.00  0.00    +0.000 A 
BRANCH   4  10
ATOM     10  C   UNL     1      27.156  -1.251  52.888  0.00  0.00    +0.000 C 
ATOM     11  O   UNL     1      27.129  -2.361  52.408  0.00  0.00    +0.000 OA
BRANCH  10  13
ATOM     12  C   UNL     1      29.486  -1.235  53.464  0.00  0.00    +0.000 C 
ATOM     13  O   UNL     1      28.228  -0.571  53.375  0.00  0.00    +0.000 OA
ENDBRANCH  10  13
ENDBRANCH   4  10
ENDBRANCH   3   9
ENDBRANCH   2   3
ENDBRANCH   1   2
BRANCH   1  14
ATOM     14  C   UNL     1      26.017   4.714  49.669  0.00  0.00    +0.000 C 
BRANCH  14  15
ATOM     15  O   UNL     1      24.647   4.912  49.323  0.00  0.00    +0.000 OA
BRANCH  15  16
ATOM     16  C   UNL     1      23.666   4.554  50.221  0.00  0.00    +0.000 A 
ATOM     17  C   UNL     1      22.818   3.541  49.738  0.00  0.00    +0.000 A 
ATOM     18  C   UNL     1      21.767   3.114  50.518  0.00  0.00    +0.000 A 
ATOM     19  C   UNL     1      21.474   3.699  51.739  0.00  0.00    +0.000 A 
ATOM     20  C   UNL     1      22.298   4.667  52.270  0.00  0.00    +0.000 A 
ATOM     21  C   UNL     1      23.416   5.072  51.512  0.00  0.00    +0.000 A 
ATOM     22  C   UNL     1      20.199   3.112  52.241  0.00  0.00    +0.000 C 
ATOM     23  C   UNL     1      20.308   1.785  51.496  0.00  0.00    +0.000 C 
ATOM     24  O   UNL     1      20.923   2.071  50.211  0.00  0.00    +0.000 OA
BRANCH  21  25
ATOM     25  O   UNL     1      24.267   5.983  52.083  0.00  0.00    +0.000 OA
ATOM     26  H   UNL     1      24.910   5.701  52.702  0.00  0.00    +0.000 HD
ENDBRANCH  21  25
ENDBRANCH  15  16
ENDBRANCH  14  15
ENDBRANCH   1  14
TORSDOF 9
ENDMDL
MODEL 5
REMARK VINA RESULT:    -6.710      2.204      5.245
REMARK INTER + INTRA:         -11.646
REMARK INTER:                 -10.521
REMARK INTRA:                  -1.126
REMARK UNBOUND:                -1.602
REMARK  Name = 
REMARK  10 active torsions:
REMARK  status: ('A' for Active; 'I' for Inactive)
REMARK    1  A    between atoms: C_1  and  O_2
REMARK    2  A    between atoms: O_2  and  C_3
REMARK    3  A    between atoms: C_3  and  C_5
REMARK    4  A    between atoms: C_10  and  O_11
REMARK    5  A    between atoms: O_11  and  C_12
REMARK    6  A    between atoms: C_12  and  C_13
REMARK    7  A    between atoms: C_13  and  C_14
REMARK    8  A    between atoms: C_14  and  O_15
REMARK    9  A    between atoms: O_15  and  C_16
REMARK   10  A    between atoms: C_21  and  O_22
REMARK                            x       y       z     vdW  Elec       q    Type
REMARK                         _______ _______ _______ _____ _____    ______ ____
ROOT
ATOM      1  C   UNL     1      26.333   0.254  52.182  0.00  0.00    +0.000 C 
ENDROOT
BRANCH   1   2
ATOM      2  C   UNL     1      25.920   1.741  52.222  0.00  0.00    +0.000 C 
BRANCH   2   3
ATOM      3  O   UNL     1      25.101   2.015  51.061  0.00  0.00    +0.000 OA
BRANCH   3   9
ATOM      4  C   UNL     1      24.344   4.138  49.996  0.00  0.00    +0.000 A 
ATOM      5  C   UNL     1      24.720   5.307  49.302  0.00  0.00    +0.000 A 
ATOM      6  C   UNL     1      26.018   5.465  48.830  0.00  0.00    +0.000 A 
ATOM      7  C   UNL     1      26.944   4.462  49.077  0.00  0.00    +0.000 A 
ATOM      8  C   UNL     1      26.595   3.360  49.871  0.00  0.00    +0.000 A 
ATOM      9  C   UNL     1      25.301   3.195  50.387  0.00  0.00    +0.000 A 
BRANCH   4  10
ATOM     10  C   UNL     1      22.892   3.837  49.971  0.00  0.00    +0.000 C 
ATOM     11  O   UNL     1      22.326   3.027  49.274  0.00  0.00    +0.000 OA
BRANCH  10  13
ATOM     12  C   UNL     1      22.111   4.178  52.214  0.00  0.00    +0.000 C 
ATOM     13  O   UNL     1      22.352   4.671  50.899  0.00  0.00    +0.000 OA
ENDBRANCH  10  13
ENDBRANCH   4  10
ENDBRANCH   3   9
ENDBRANCH   2   3
ENDBRANCH   1   2
BRANCH   1  14
ATOM     14  C   UNL     1      25.583  -0.686  53.149  0.00  0.00    +0.000 C 
BRANCH  14  15
ATOM     15  O   UNL     1      24.659   0.035  53.964  0.00  0.00    +0.000 OA
BRANCH  15  16
ATOM     16  C   UNL     1      23.315  -0.255  53.878  0.00  0.00    +0.000 A 
ATOM     17  C   UNL     1      22.678   0.388  52.802  0.00  0.00    +0.000 A 
ATOM     18  C   UNL     1      21.324   0.218  52.622  0.00  0.00    +0.000 A 
ATOM     19  C   UNL     1      20.552  -0.513  53.510  0.00  0.00    +0.000 A 
ATOM     20  C   UNL     1      21.136  -1.192  54.556  0.00  0.00    +0.000 A 
ATOM     21  C   UNL     1      22.533  -1.081  54.718  0.00  0.00    +0.000 A 
ATOM     22  C   UNL     1      19.123  -0.368  53.111  0.00  0.00    +0.000 C 
ATOM     23  C   UNL     1      19.378  -0.081  51.635  0.00  0.00    +0.000 C 
ATOM     24  O   UNL     1      20.596   0.708  51.562  0.00  0.00    +0.000 OA
BRANCH  21  25
ATOM     25  O   UNL     1      23.112  -1.817  55.719  0.00  0.00    +0.000 OA
ATOM     26  H   UNL     1      22.785  -2.671  55.922  0.00  0.00    +0.000 HD
ENDBRANCH  21  25
ENDBRANCH  15  16
ENDBRANCH  14  15
ENDBRANCH   1  14
TORSDOF 9
ENDMDL
MODEL 6
REMARK VINA RESULT:    -6.618      1.995      2.890
REMARK INTER + INTRA:         -11.509
REMARK INTER:                  -9.994
REMARK INTRA:                  -1.515
REMARK UNBOUND:                -1.602
REMARK  Name = 
REMARK  10 active torsions:
REMARK  status: ('A' for Active; 'I' for Inactive)
REMARK    1  A    between atoms: C_1  and  O_2
REMARK    2  A    between atoms: O_2  and  C_3
REMARK    3  A    between atoms: C_3  and  C_5
REMARK    4  A    between atoms: C_10  and  O_11
REMARK    5  A    between atoms: O_11  and  C_12
REMARK    6  A    between atoms: C_12  and  C_13
REMARK    7  A    between atoms: C_13  and  C_14
REMARK    8  A    between atoms: C_14  and  O_15
REMARK    9  A    between atoms: O_15  and  C_16
REMARK   10  A    between atoms: C_21  and  O_22
REMARK                            x       y       z     vdW  Elec       q    Type
REMARK                         _______ _______ _______ _____ _____    ______ ____
ROOT
ATOM      1  C   UNL     1      22.605   2.173  52.034  0.00  0.00    +0.000 C 
ENDROOT
BRANCH   1   2
ATOM      2  C   UNL     1      22.986   3.163  50.914  0.00  0.00    +0.000 C 
BRANCH   2   3
ATOM      3  O   UNL     1      23.956   4.097  51.444  0.00  0.00    +0.000 OA
BRANCH   3   9
ATOM      4  C   UNL     1      25.131   5.782  50.032  0.00  0.00    +0.000 A 
ATOM      5  C   UNL     1      26.236   6.057  49.202  0.00  0.00    +0.000 A 
ATOM      6  C   UNL     1      27.092   5.038  48.799  0.00  0.00    +0.000 A 
ATOM      7  C   UNL     1      26.852   3.748  49.252  0.00  0.00    +0.000 A 
ATOM      8  C   UNL     1      25.824   3.505  50.173  0.00  0.00    +0.000 A 
ATOM      9  C   UNL     1      24.969   4.523  50.620  0.00  0.00    +0.000 A 
BRANCH   4  10
ATOM     10  C   UNL     1      24.030   6.773  49.954  0.00  0.00    +0.000 C 
ATOM     11  O   UNL     1      23.894   7.769  50.626  0.00  0.00    +0.000 OA
BRANCH  10  13
ATOM     12  C   UNL     1      21.809   6.317  49.166  0.00  0.00    +0.000 C 
ATOM     13  O   UNL     1      23.220   6.308  48.965  0.00  0.00    +0.000 OA
ENDBRANCH  10  13
ENDBRANCH   4  10
ENDBRANCH   3   9
ENDBRANCH   2   3
ENDBRANCH   1   2
BRANCH   1  14
ATOM     14  C   UNL     1      23.316   0.803  52.002  0.00  0.00    +0.000 C 
BRANCH  14  15
ATOM     15  O   UNL     1      23.919   0.501  53.260  0.00  0.00    +0.000 OA
BRANCH  15  16
ATOM     16  C   UNL     1      25.283   0.631  53.403  0.00  0.00    +0.000 A 
ATOM     17  C   UNL     1      25.971  -0.589  53.275  0.00  0.00    +0.000 A 
ATOM     18  C   UNL     1      27.338  -0.611  53.436  0.00  0.00    +0.000 A 
ATOM     19  C   UNL     1      28.054   0.521  53.788  0.00  0.00    +0.000 A 
ATOM     20  C   UNL     1      27.430   1.745  53.886  0.00  0.00    +0.000 A 
ATOM     21  C   UNL     1      26.038   1.797  53.662  0.00  0.00    +0.000 A 
ATOM     22  C   UNL     1      29.469   0.119  54.030  0.00  0.00    +0.000 C 
ATOM     23  C   UNL     1      29.461  -1.113  53.129  0.00  0.00    +0.000 C 
ATOM     24  O   UNL     1      28.142  -1.712  53.245  0.00  0.00    +0.000 OA
BRANCH  21  25
ATOM     25  O   UNL     1      25.442   3.031  53.692  0.00  0.00    +0.000 OA
ATOM     26  H   UNL     1      25.799   3.738  53.192  0.00  0.00    +0.000 HD
ENDBRANCH  21  25
ENDBRANCH  15  16
ENDBRANCH  14  15
ENDBRANCH   1  14
TORSDOF 9
ENDMDL
MODEL 7
REMARK VINA RESULT:    -6.614      1.940      6.181
REMARK INTER + INTRA:         -11.503
REMARK INTER:                 -10.204
REMARK INTRA:                  -1.299
REMARK UNBOUND:                -1.602
REMARK  Name = 
REMARK  10 active torsions:
REMARK  status: ('A' for Active; 'I' for Inactive)
REMARK    1  A    between atoms: C_1  and  O_2
REMARK    2  A    between atoms: O_2  and  C_3
REMARK    3  A    between atoms: C_3  and  C_5
REMARK    4  A    between atoms: C_10  and  O_11
REMARK    5  A    between atoms: O_11  and  C_12
REMARK    6  A    between atoms: C_12  and  C_13
REMARK    7  A    between atoms: C_13  and  C_14
REMARK    8  A    between atoms: C_14  and  O_15
REMARK    9  A    between atoms: O_15  and  C_16
REMARK   10  A    between atoms: C_21  and  O_22
REMARK                            x       y       z     vdW  Elec       q    Type
REMARK                         _______ _______ _______ _____ _____    ______ ____
ROOT
ATOM      1  C   UNL     1      21.617  -0.702  54.338  0.00  0.00    +0.000 C 
ENDROOT
BRANCH   1   2
ATOM      2  C   UNL     1      22.752  -1.071  53.361  0.00  0.00    +0.000 C 
BRANCH   2   3
ATOM      3  O   UNL     1      23.979  -0.477  53.846  0.00  0.00    +0.000 OA
BRANCH   3   9
ATOM      4  C   UNL     1      25.999   0.115  52.509  0.00  0.00    +0.000 A 
ATOM      5  C   UNL     1      26.600   1.039  51.630  0.00  0.00    +0.000 A 
ATOM      6  C   UNL     1      25.994   2.260  51.362  0.00  0.00    +0.000 A 
ATOM      7  C   UNL     1      24.772   2.543  51.956  0.00  0.00    +0.000 A 
ATOM      8  C   UNL     1      24.124   1.572  52.732  0.00  0.00    +0.000 A 
ATOM      9  C   UNL     1      24.701   0.319  52.989  0.00  0.00    +0.000 A 
BRANCH   4  10
ATOM     10  C   UNL     1      26.933  -0.857  53.128  0.00  0.00    +0.000 C 
ATOM     11  O   UNL     1      27.146  -1.993  52.772  0.00  0.00    +0.000 OA
BRANCH  10  13
ATOM     12  C   UNL     1      28.899  -0.238  54.358  0.00  0.00    +0.000 C 
ATOM     13  O   UNL     1      27.487  -0.185  54.172  0.00  0.00    +0.000 OA
ENDBRANCH  10  13
ENDBRANCH   4  10
ENDBRANCH   3   9
ENDBRANCH   2   3
ENDBRANCH   1   2
BRANCH   1  14
ATOM     14  C   UNL     1      20.586   0.326  53.827  0.00  0.00    +0.000 C 
BRANCH  14  15
ATOM     15  O   UNL     1      20.355   0.179  52.427  0.00  0.00    +0.000 OA
BRANCH  15  16
ATOM     16  C   UNL     1      20.743   1.185  51.569  0.00  0.00    +0.000 A 
ATOM     17  C   UNL     1      21.271   0.705  50.358  0.00  0.00    +0.000 A 
ATOM     18  C   UNL     1      21.737   1.604  49.424  0.00  0.00    +0.000 A 
ATOM     19  C   UNL     1      21.766   2.967  49.668  0.00  0.00    +0.000 A 
ATOM     20  C   UNL     1      21.225   3.486  50.823  0.00  0.00    +0.000 A 
ATOM     21  C   UNL     1      20.685   2.584  51.764  0.00  0.00    +0.000 A 
ATOM     22  C   UNL     1      22.464   3.627  48.528  0.00  0.00    +0.000 C 
ATOM     23  C   UNL     1      22.149   2.560  47.483  0.00  0.00    +0.000 C 
ATOM     24  O   UNL     1      22.187   1.278  48.164  0.00  0.00    +0.000 OA
BRANCH  21  25
ATOM     25  O   UNL     1      20.086   3.117  52.876  0.00  0.00    +0.000 OA
ATOM     26  H   UNL     1      20.581   3.651  53.464  0.00  0.00    +0.000 HD
ENDBRANCH  21  25
ENDBRANCH  15  16
ENDBRANCH  14  15
ENDBRANCH   1  14
TORSDOF 9
ENDMDL
MODEL 8
REMARK VINA RESULT:    -6.594      1.847      2.861
REMARK INTER + INTRA:         -11.473
REMARK INTER:                 -10.057
REMARK INTRA:                  -1.416
REMARK UNBOUND:                -1.602
REMARK  Name = 
REMARK  10 active torsions:
REMARK  status: ('A' for Active; 'I' for Inactive)
REMARK    1  A    between atoms: C_1  and  O_2
REMARK    2  A    between atoms: O_2  and  C_3
REMARK    3  A    between atoms: C_3  and  C_5
REMARK    4  A    between atoms: C_10  and  O_11
REMARK    5  A    between atoms: O_11  and  C_12
REMARK    6  A    between atoms: C_12  and  C_13
REMARK    7  A    between atoms: C_13  and  C_14
REMARK    8  A    between atoms: C_14  and  O_15
REMARK    9  A    between atoms: O_15  and  C_16
REMARK   10  A    between atoms: C_21  and  O_22
REMARK                            x       y       z     vdW  Elec       q    Type
REMARK                         _______ _______ _______ _____ _____    ______ ____
ROOT
ATOM      1  C   UNL     1      21.599  -1.089  54.647  0.00  0.00    +0.000 C 
ENDROOT
BRANCH   1   2
ATOM      2  C   UNL     1      20.884   0.219  54.247  0.00  0.00    +0.000 C 
BRANCH   2   3
ATOM      3  O   UNL     1      21.187   0.495  52.859  0.00  0.00    +0.000 OA
BRANCH   3   9
ATOM      4  C   UNL     1      20.066   1.112  50.720  0.00  0.00    +0.000 A 
ATOM      5  C   UNL     1      18.933   0.952  49.895  0.00  0.00    +0.000 A 
ATOM      6  C   UNL     1      17.809   0.276  50.356  0.00  0.00    +0.000 A 
ATOM      7  C   UNL     1      17.833  -0.260  51.636  0.00  0.00    +0.000 A 
ATOM      8  C   UNL     1      19.005  -0.202  52.404  0.00  0.00    +0.000 A 
ATOM      9  C   UNL     1      20.162   0.445  51.946  0.00  0.00    +0.000 A 
BRANCH   4  10
ATOM     10  C   UNL     1      20.941   2.255  50.364  0.00  0.00    +0.000 C 
ATOM     11  O   UNL     1      20.801   3.411  50.690  0.00  0.00    +0.000 OA
BRANCH  10  13
ATOM     12  C   UNL     1      22.670   2.556  48.727  0.00  0.00    +0.000 C 
ATOM     13  O   UNL     1      21.922   1.710  49.596  0.00  0.00    +0.000 OA
ENDBRANCH  10  13
ENDBRANCH   4  10
ENDBRANCH   3   9
ENDBRANCH   2   3
ENDBRANCH   1   2
BRANCH   1  14
ATOM     14  C   UNL     1      23.113  -0.979  54.926  0.00  0.00    +0.000 C 
BRANCH  14  15
ATOM     15  O   UNL     1      23.871  -1.060  53.719  0.00  0.00    +0.000 OA
BRANCH  15  16
ATOM     16  C   UNL     1      24.895  -0.164  53.505  0.00  0.00    +0.000 A 
ATOM     17  C   UNL     1      26.033  -0.429  54.287  0.00  0.00    +0.000 A 
ATOM     18  C   UNL     1      27.119   0.414  54.202  0.00  0.00    +0.000 A 
ATOM     19  C   UNL     1      27.101   1.557  53.421  0.00  0.00    +0.000 A 
ATOM     20  C   UNL     1      26.024   1.837  52.609  0.00  0.00    +0.000 A 
ATOM     21  C   UNL     1      24.928   0.949  52.635  0.00  0.00    +0.000 A 
ATOM     22  C   UNL     1      28.360   2.313  53.677  0.00  0.00    +0.000 C 
ATOM     23  C   UNL     1      29.204   1.116  54.103  0.00  0.00    +0.000 C 
ATOM     24  O   UNL     1      28.326   0.220  54.835  0.00  0.00    +0.000 OA
BRANCH  21  25
ATOM     25  O   UNL     1      23.894   1.200  51.770  0.00  0.00    +0.000 OA
ATOM     26  H   UNL     1      23.617   2.081  51.614  0.00  0.00    +0.000 HD
ENDBRANCH  21  25
ENDBRANCH  15  16
ENDBRANCH  14  15
ENDBRANCH   1  14
TORSDOF 9
ENDMDL
MODEL 9
REMARK VINA RESULT:    -6.481      1.499      6.163
REMARK INTER + INTRA:         -11.303
REMARK INTER:                 -10.126
REMARK INTRA:                  -1.176
REMARK UNBOUND:                -1.602
REMARK  Name = 
REMARK  10 active torsions:
REMARK  status: ('A' for Active; 'I' for Inactive)
REMARK    1  A    between atoms: C_1  and  O_2
REMARK    2  A    between atoms: O_2  and  C_3
REMARK    3  A    between atoms: C_3  and  C_5
REMARK    4  A    between atoms: C_10  and  O_11
REMARK    5  A    between atoms: O_11  and  C_12
REMARK    6  A    between atoms: C_12  and  C_13
REMARK    7  A    between atoms: C_13  and  C_14
REMARK    8  A    between atoms: C_14  and  O_15
REMARK    9  A    between atoms: O_15  and  C_16
REMARK   10  A    between atoms: C_21  and  O_22
REMARK                            x       y       z     vdW  Elec       q    Type
REMARK                         _______ _______ _______ _____ _____    ______ ____
ROOT
ATOM      1  C   UNL     1      22.940  -0.812  53.308  0.00  0.00    +0.000 C 
ENDROOT
BRANCH   1   2
ATOM      2  C   UNL     1      24.335  -0.692  53.955  0.00  0.00    +0.000 C 
BRANCH   2   3
ATOM      3  O   UNL     1      25.330  -0.782  52.907  0.00  0.00    +0.000 OA
BRANCH   3   9
ATOM      4  C   UNL     1      27.281   0.602  53.609  0.00  0.00    +0.000 A 
ATOM      5  C   UNL     1      28.655   0.627  53.923  0.00  0.00    +0.000 A 
ATOM      6  C   UNL     1      29.453  -0.490  53.704  0.00  0.00    +0.000 A 
ATOM      7  C   UNL     1      28.866  -1.639  53.192  0.00  0.00    +0.000 A 
ATOM      8  C   UNL     1      27.479  -1.694  52.996  0.00  0.00    +0.000 A 
ATOM      9  C   UNL     1      26.648  -0.591  53.243  0.00  0.00    +0.000 A 
BRANCH   4  10
ATOM     10  C   UNL     1      26.671   1.933  53.369  0.00  0.00    +0.000 C 
ATOM     11  O   UNL     1      25.793   2.461  54.012  0.00  0.00    +0.000 OA
BRANCH  10  13
ATOM     12  C   UNL     1      26.712   2.272  50.993  0.00  0.00    +0.000 C 
ATOM     13  O   UNL     1      27.319   2.415  52.275  0.00  0.00    +0.000 OA
ENDBRANCH  10  13
ENDBRANCH   4  10
ENDBRANCH   3   9
ENDBRANCH   2   3
ENDBRANCH   1   2
BRANCH   1  14
ATOM     14  C   UNL     1      22.237   0.517  52.956  0.00  0.00    +0.000 C 
BRANCH  14  15
ATOM     15  O   UNL     1      21.859   0.557  51.581  0.00  0.00    +0.000 OA
BRANCH  15  16
ATOM     16  C   UNL     1      22.312   1.588  50.787  0.00  0.00    +0.000 A 
ATOM     17  C   UNL     1      22.979   2.591  51.512  0.00  0.00    +0.000 A 
ATOM     18  C   UNL     1      23.448   3.702  50.847  0.00  0.00    +0.000 A 
ATOM     19  C   UNL     1      23.224   3.897  49.494  0.00  0.00    +0.000 A 
ATOM     20  C   UNL     1      22.609   2.926  48.736  0.00  0.00    +0.000 A 
ATOM     21  C   UNL     1      22.178   1.752  49.389  0.00  0.00    +0.000 A 
ATOM     22  C   UNL     1      23.723   5.255  49.133  0.00  0.00    +0.000 C 
ATOM     23  C   UNL     1      24.759   5.367  50.247  0.00  0.00    +0.000 C 
ATOM     24  O   UNL     1      24.198   4.708  51.413  0.00  0.00    +0.000 OA
BRANCH  21  25
ATOM     25  O   UNL     1      21.633   0.763  48.612  0.00  0.00    +0.000 OA
ATOM     26  H   UNL     1      22.138   0.004  48.396  0.00  0.00    +0.000 HD
ENDBRANCH  21  25
ENDBRANCH  15  16
ENDBRANCH  14  15
ENDBRANCH   1  14
TORSDOF 9
ENDMDL
