MODEL 1
REMARK VINA RESULT:    -8.734      0.000      0.000
REMARK INTER + INTRA:         -13.031
REMARK INTER:                 -11.798
REMARK INTRA:                  -1.233
REMARK UNBOUND:                -1.233
REMARK  Name = 
REMARK  7 active torsions:
REMARK  status: ('A' for Active; 'I' for Inactive)
REMARK    1  A    between atoms: C_1  and  C_2
REMARK    2  A    between atoms: C_2  and  N_3
REMARK    3  A    between atoms: N_3  and  C_4
REMARK    4  A    between atoms: C_4  and  C_5
REMARK    5  A    between atoms: N_8  and  C_9
REMARK    6  A    between atoms: C_16  and  C_17
REMARK    7  A    between atoms: N_21  and  C_22
REMARK                            x       y       z     vdW  Elec       q    Type
REMARK                         _______ _______ _______ _____ _____    ______ ____
ROOT
ATOM      1  C   UNL     1      23.900   4.028  51.155  0.00  0.00    +0.000 A 
ATOM      2  C   UNL     1      22.510   4.015  51.325  0.00  0.00    +0.000 A 
ATOM      3  F   UNL     1      21.741   4.999  50.832  0.00  0.00    +0.000 F 
ATOM      4  C   UNL     1      21.859   3.004  52.020  0.00  0.00    +0.000 A 
ATOM      5  C   UNL     1      22.591   1.948  52.579  0.00  0.00    +0.000 A 
ATOM      6  C   UNL     1      21.826   0.912  53.319  0.00  0.00    +0.000 A 
ATOM      7  O   UNL     1      20.619   1.055  53.490  0.00  0.00    +0.000 OA
ATOM      8  C   UNL     1      22.575  -0.238  53.848  0.00  0.00    +0.000 A 
ATOM      9  C   UNL     1      23.907  -0.210  53.699  0.00  0.00    +0.000 A 
ATOM     10  N   UNL     1      24.673   0.771  53.068  0.00  0.00    +0.000 N 
ATOM     11  C   UNL     1      23.993   1.863  52.451  0.00  0.00    +0.000 A 
ATOM     12  C   UNL     1      24.595   2.907  51.695  0.00  0.00    +0.000 A 
ATOM     13  F   UNL     1      25.903   2.840  51.401  0.00  0.00    +0.000 F 
ENDROOT
BRANCH   1  17
ATOM     14  C   UNL     1      25.338   6.465  48.732  0.00  0.00    +0.000 C 
ATOM     15  C   UNL     1      24.568   7.293  49.762  0.00  0.00    +0.000 C 
ATOM     16  C   UNL     1      24.562   6.417  51.010  0.00  0.00    +0.000 C 
ATOM     17  N   UNL     1      24.578   5.046  50.488  0.00  0.00    +0.000 N 
ATOM     18  C   UNL     1      24.850   5.041  49.046  0.00  0.00    +0.000 C 
BRANCH  14  19
ATOM     19  C   UNL     1      26.858   6.675  48.864  0.00  0.00    +0.000 C 
BRANCH  19  20
ATOM     20  N   UNL     1      27.674   5.478  49.088  0.00  0.00    +0.000 N 
ATOM     21  H   UNL     1      27.924   5.439  50.076  0.00  0.00    +0.000 HD
ATOM     22  H   UNL     1      27.113   4.677  48.796  0.00  0.00    +0.000 HD
BRANCH  20  24
ATOM     23  C   UNL     1      29.106   6.777  47.585  0.00  0.00    +0.000 C 
ATOM     24  C   UNL     1      28.902   5.450  48.300  0.00  0.00    +0.000 C 
ENDBRANCH  20  24
ENDBRANCH  19  20
ENDBRANCH  14  19
ENDBRANCH   1  17
BRANCH  10  25
ATOM     25  C   UNL     1      26.154   0.676  53.034  0.00  0.00    +0.000 C 
ATOM     26  C   UNL     1      26.660  -0.669  52.510  0.00  0.00    +0.000 C 
ATOM     27  C   UNL     1      28.096  -0.768  53.026  0.00  0.00    +0.000 C 
ATOM     28  C   UNL     1      28.231   0.271  54.141  0.00  0.00    +0.000 C 
ATOM     29  C   UNL     1      26.820   0.786  54.408  0.00  0.00    +0.000 C 
ENDBRANCH  10  25
BRANCH   8  30
ATOM     30  C   UNL     1      21.985  -1.400  54.534  0.00  0.00    +0.000 C 
ATOM     31  O   UNL     1      20.892  -1.887  54.292  0.00  0.00    +0.000 OA
ATOM     32  O   UNL     1      22.739  -1.875  55.534  0.00  0.00    +0.000 OA
ENDBRANCH   8  30
TORSDOF 6
ENDMDL
MODEL 2
REMARK VINA RESULT:    -8.520      3.591      7.654
REMARK INTER + INTRA:         -12.741
REMARK INTER:                 -11.989
REMARK INTRA:                  -0.752
REMARK UNBOUND:                -1.233
REMARK  Name = 
REMARK  7 active torsions:
REMARK  status: ('A' for Active; 'I' for Inactive)
REMARK    1  A    between atoms: C_1  and  C_2
REMARK    2  A    between atoms: C_2  and  N_3
REMARK    3  A    between atoms: N_3  and  C_4
REMARK    4  A    between atoms: C_4  and  C_5
REMARK    5  A    between atoms: N_8  and  C_9
REMARK    6  A    between atoms: C_16  and  C_17
REMARK    7  A    between atoms: N_21  and  C_22
REMARK                            x       y       z     vdW  Elec       q    Type
REMARK                         _______ _______ _______ _____ _____    ______ ____
ROOT
ATOM      1  C   UNL     1      22.498   0.069  52.885  0.00  0.00    +0.000 A 
ATOM      2  C   UNL     1      22.990  -0.667  53.970  0.00  0.00    +0.000 A 
ATOM      3  F   UNL     1      22.187  -1.470  54.686  0.00  0.00    +0.000 F 
ATOM      4  C   UNL     1      24.317  -0.595  54.372  0.00  0.00    +0.000 A 
ATOM      5  C   UNL     1      25.218   0.231  53.687  0.00  0.00    +0.000 A 
ATOM      6  C   UNL     1      26.617   0.265  54.184  0.00  0.00    +0.000 A 
ATOM      7  O   UNL     1      26.913  -0.346  55.206  0.00  0.00    +0.000 OA
ATOM      8  C   UNL     1      27.587   1.073  53.430  0.00  0.00    +0.000 A 
ATOM      9  C   UNL     1      27.106   1.791  52.404  0.00  0.00    +0.000 A 
ATOM     10  N   UNL     1      25.790   1.839  51.941  0.00  0.00    +0.000 N 
ATOM     11  C   UNL     1      24.823   1.002  52.573  0.00  0.00    +0.000 A 
ATOM     12  C   UNL     1      23.462   0.854  52.188  0.00  0.00    +0.000 A 
ATOM     13  F   UNL     1      23.027   1.438  51.060  0.00  0.00    +0.000 F 
ENDROOT
BRANCH   1  17
ATOM     14  C   UNL     1      18.853   0.589  52.315  0.00  0.00    +0.000 C 
ATOM     15  C   UNL     1      19.531   0.804  50.961  0.00  0.00    +0.000 C 
ATOM     16  C   UNL     1      20.817  -0.009  51.058  0.00  0.00    +0.000 C 
ATOM     17  N   UNL     1      21.164   0.036  52.483  0.00  0.00    +0.000 N 
ATOM     18  C   UNL     1      20.057   0.589  53.272  0.00  0.00    +0.000 C 
BRANCH  14  19
ATOM     19  C   UNL     1      18.015  -0.703  52.325  0.00  0.00    +0.000 C 
BRANCH  19  20
ATOM     20  N   UNL     1      17.664  -1.253  53.638  0.00  0.00    +0.000 N 
ATOM     21  H   UNL     1      18.048  -0.641  54.357  0.00  0.00    +0.000 HD
ATOM     22  H   UNL     1      16.646  -1.308  53.675  0.00  0.00    +0.000 HD
BRANCH  20  24
ATOM     23  C   UNL     1      17.073  -3.630  53.639  0.00  0.00    +0.000 C 
ATOM     24  C   UNL     1      18.173  -2.603  53.863  0.00  0.00    +0.000 C 
ENDBRANCH  20  24
ENDBRANCH  19  20
ENDBRANCH  14  19
ENDBRANCH   1  17
BRANCH  10  25
ATOM     25  C   UNL     1      25.411   2.731  50.818  0.00  0.00    +0.000 C 
ATOM     26  C   UNL     1      26.596   3.132  49.939  0.00  0.00    +0.000 C 
ATOM     27  C   UNL     1      26.130   4.396  49.214  0.00  0.00    +0.000 C 
ATOM     28  C   UNL     1      24.909   4.911  49.979  0.00  0.00    +0.000 C 
ATOM     29  C   UNL     1      24.832   4.079  51.257  0.00  0.00    +0.000 C 
ENDBRANCH  10  25
BRANCH   8  30
ATOM     30  C   UNL     1      29.028   1.167  53.717  0.00  0.00    +0.000 C 
ATOM     31  O   UNL     1      29.853   0.294  53.500  0.00  0.00    +0.000 OA
ATOM     32  O   UNL     1      29.385   2.309  54.319  0.00  0.00    +0.000 OA
ENDBRANCH   8  30
TORSDOF 6
ENDMDL
MODEL 3
REMARK VINA RESULT:    -8.341      3.050      6.019
REMARK INTER + INTRA:         -12.500
REMARK INTER:                 -11.147
REMARK INTRA:                  -1.353
REMARK UNBOUND:                -1.233
REMARK  Name = 
REMARK  7 active torsions:
REMARK  status: ('A' for Active; 'I' for Inactive)
REMARK    1  A    between atoms: C_1  and  C_2
REMARK    2  A    between atoms: C_2  and  N_3
REMARK    3  A    between atoms: N_3  and  C_4
REMARK    4  A    between atoms: C_4  and  C_5
REMARK    5  A    between atoms: N_8  and  C_9
REMARK    6  A    between atoms: C_16  and  C_17
REMARK    7  A    between atoms: N_21  and  C_22
REMARK                            x       y       z     vdW  Elec       q    Type
REMARK                         _______ _______ _______ _____ _____    ______ ____
ROOT
ATOM      1  C   UNL     1      23.628   0.136  53.182  0.00  0.00    +0.000 A 
ATOM      2  C   UNL     1      22.956  -0.692  54.090  0.00  0.00    +0.000 A 
ATOM      3  F   UNL     1      23.610  -1.301  55.091  0.00  0.00    +0.000 F 
ATOM      4  C   UNL     1      21.593  -0.940  53.996  0.00  0.00    +0.000 A 
ATOM      5  C   UNL     1      20.838  -0.355  52.970  0.00  0.00    +0.000 A 
ATOM      6  C   UNL     1      19.389  -0.678  52.927  0.00  0.00    +0.000 A 
ATOM      7  O   UNL     1      18.926  -1.496  53.716  0.00  0.00    +0.000 OA
ATOM      8  C   UNL     1      18.574  -0.013  51.899  0.00  0.00    +0.000 A 
ATOM      9  C   UNL     1      19.227   0.762  51.022  0.00  0.00    +0.000 A 
ATOM     10  N   UNL     1      20.593   1.044  50.985  0.00  0.00    +0.000 N 
ATOM     11  C   UNL     1      21.420   0.505  52.015  0.00  0.00    +0.000 A 
ATOM     12  C   UNL     1      22.810   0.750  52.189  0.00  0.00    +0.000 A 
ATOM     13  F   UNL     1      23.423   1.660  51.416  0.00  0.00    +0.000 F 
ENDROOT
BRANCH   1  17
ATOM     14  C   UNL     1      27.110   1.188  53.987  0.00  0.00    +0.000 C 
ATOM     15  C   UNL     1      27.108  -0.341  54.022  0.00  0.00    +0.000 C 
ATOM     16  C   UNL     1      25.954  -0.730  53.105  0.00  0.00    +0.000 C 
ATOM     17  N   UNL     1      24.999   0.375  53.239  0.00  0.00    +0.000 N 
ATOM     18  C   UNL     1      25.605   1.503  53.957  0.00  0.00    +0.000 C 
BRANCH  14  19
ATOM     19  C   UNL     1      27.909   1.723  52.784  0.00  0.00    +0.000 C 
BRANCH  19  20
ATOM     20  N   UNL     1      27.306   2.823  52.026  0.00  0.00    +0.000 N 
ATOM     21  H   UNL     1      26.622   3.288  52.622  0.00  0.00    +0.000 HD
ATOM     22  H   UNL     1      28.066   3.444  51.748  0.00  0.00    +0.000 HD
BRANCH  20  24
ATOM     23  C   UNL     1      26.508   3.557  49.830  0.00  0.00    +0.000 C 
ATOM     24  C   UNL     1      26.636   2.394  50.802  0.00  0.00    +0.000 C 
ENDBRANCH  20  24
ENDBRANCH  19  20
ENDBRANCH  14  19
ENDBRANCH   1  17
BRANCH  10  25
ATOM     25  C   UNL     1      21.168   1.888  49.908  0.00  0.00    +0.000 C 
ATOM     26  C   UNL     1      20.183   2.923  49.362  0.00  0.00    +0.000 C 
ATOM     27  C   UNL     1      20.741   3.301  47.989  0.00  0.00    +0.000 C 
ATOM     28  C   UNL     1      21.747   2.211  47.613  0.00  0.00    +0.000 C 
ATOM     29  C   UNL     1      21.582   1.110  48.656  0.00  0.00    +0.000 C 
ENDBRANCH  10  25
BRANCH   8  30
ATOM     30  C   UNL     1      17.115  -0.141  51.750  0.00  0.00    +0.000 C 
ATOM     31  O   UNL     1      16.292   0.046  52.632  0.00  0.00    +0.000 OA
ATOM     32  O   UNL     1      16.732  -0.560  50.536  0.00  0.00    +0.000 OA
ENDBRANCH   8  30
TORSDOF 6
ENDMDL
MODEL 4
REMARK VINA RESULT:    -8.190      3.979      6.536
REMARK INTER + INTRA:         -12.296
REMARK INTER:                 -11.355
REMARK INTRA:                  -0.941
REMARK UNBOUND:                -1.233
REMARK  Name = 
REMARK  7 active torsions:
REMARK  status: ('A' for Active; 'I' for Inactive)
REMARK    1  A    between atoms: C_1  and  C_2
REMARK    2  A    between atoms: C_2  and  N_3
REMARK    3  A    between atoms: N_3  and  C_4
REMARK    4  A    between atoms: C_4  and  C_5
REMARK    5  A    between atoms: N_8  and  C_9
REMARK    6  A    between atoms: C_16  and  C_17
REMARK    7  A    between atoms: N_21  and  C_22
REMARK                            x       y       z     vdW  Elec       q    Type
REMARK                         _______ _______ _______ _____ _____    ______ ____
ROOT
ATOM      1  C   UNL     1      23.103   0.068  53.451  0.00  0.00    +0.000 A 
ATOM      2  C   UNL     1      22.350  -0.726  54.324  0.00  0.00    +0.000 A 
ATOM      3  F   UNL     1      22.916  -1.317  55.389  0.00  0.00    +0.000 F 
ATOM      4  C   UNL     1      20.994  -0.958  54.131  0.00  0.00    +0.000 A 
ATOM      5  C   UNL     1      20.331  -0.391  53.036  0.00  0.00    +0.000 A 
ATOM      6  C   UNL     1      18.884  -0.695  52.889  0.00  0.00    +0.000 A 
ATOM      7  O   UNL     1      18.349  -1.485  53.660  0.00  0.00    +0.000 OA
ATOM      8  C   UNL     1      18.161  -0.047  51.784  0.00  0.00    +0.000 A 
ATOM      9  C   UNL     1      18.892   0.696  50.940  0.00  0.00    +0.000 A 
ATOM     10  N   UNL     1      20.261   0.958  51.002  0.00  0.00    +0.000 N 
ATOM     11  C   UNL     1      20.997   0.436  52.106  0.00  0.00    +0.000 A 
ATOM     12  C   UNL     1      22.374   0.666  52.382  0.00  0.00    +0.000 A 
ATOM     13  F   UNL     1      23.058   1.546  51.635  0.00  0.00    +0.000 F 
ENDROOT
BRANCH   1  17
ATOM     14  C   UNL     1      26.824   0.128  53.285  0.00  0.00    +0.000 C 
ATOM     15  C   UNL     1      26.361   1.552  52.972  0.00  0.00    +0.000 C 
ATOM     16  C   UNL     1      25.001   1.657  53.653  0.00  0.00    +0.000 C 
ATOM     17  N   UNL     1      24.469   0.290  53.607  0.00  0.00    +0.000 N 
ATOM     18  C   UNL     1      25.507  -0.659  53.187  0.00  0.00    +0.000 C 
BRANCH  14  19
ATOM     19  C   UNL     1      27.525   0.054  54.654  0.00  0.00    +0.000 C 
BRANCH  19  20
ATOM     20  N   UNL     1      28.877   0.614  54.737  0.00  0.00    +0.000 N 
ATOM     21  H   UNL     1      28.806   1.631  54.726  0.00  0.00    +0.000 HD
ATOM     22  H   UNL     1      29.293   0.261  55.599  0.00  0.00    +0.000 HD
BRANCH  20  24
ATOM     23  C   UNL     1      30.018  -1.294  53.710  0.00  0.00    +0.000 C 
ATOM     24  C   UNL     1      29.750   0.201  53.642  0.00  0.00    +0.000 C 
ENDBRANCH  20  24
ENDBRANCH  19  20
ENDBRANCH  14  19
ENDBRANCH   1  17
BRANCH  10  25
ATOM     25  C   UNL     1      20.930   1.765  49.951  0.00  0.00    +0.000 C 
ATOM     26  C   UNL     1      19.974   2.698  49.207  0.00  0.00    +0.000 C 
ATOM     27  C   UNL     1      20.692   3.021  47.896  0.00  0.00    +0.000 C 
ATOM     28  C   UNL     1      21.797   1.975  47.735  0.00  0.00    +0.000 C 
ATOM     29  C   UNL     1      21.551   0.934  48.825  0.00  0.00    +0.000 C 
ENDBRANCH  10  25
BRANCH   8  30
ATOM     30  C   UNL     1      16.716  -0.160  51.525  0.00  0.00    +0.000 C 
ATOM     31  O   UNL     1      16.194  -0.940  50.746  0.00  0.00    +0.000 OA
ATOM     32  O   UNL     1      15.978   0.739  52.190  0.00  0.00    +0.000 OA
ENDBRANCH   8  30
TORSDOF 6
ENDMDL
MODEL 5
REMARK VINA RESULT:    -8.159      3.490      6.356
REMARK INTER + INTRA:         -12.254
REMARK INTER:                 -10.671
REMARK INTRA:                  -1.583
REMARK UNBOUND:                -1.233
REMARK  Name = 
REMARK  7 active torsions:
REMARK  status: ('A' for Active; 'I' for Inactive)
REMARK    1  A    between atoms: C_1  and  C_2
REMARK    2  A    between atoms: C_2  and  N_3
REMARK    3  A    between atoms: N_3  and  C_4
REMARK    4  A    between atoms: C_4  and  C_5
REMARK    5  A    between atoms: N_8  and  C_9
REMARK    6  A    between atoms: C_16  and  C_17
REMARK    7  A    between atoms: N_21  and  C_22
REMARK                            x       y       z     vdW  Elec       q    Type
REMARK                         _______ _______ _______ _____ _____    ______ ____
ROOT
ATOM      1  C   UNL     1      22.117   1.127  51.930  0.00  0.00    +0.000 A 
ATOM      2  C   UNL     1      22.403   0.289  53.015  0.00  0.00    +0.000 A 
ATOM      3  F   UNL     1      21.441  -0.438  53.604  0.00  0.00    +0.000 F 
ATOM      4  C   UNL     1      23.682   0.176  53.546  0.00  0.00    +0.000 A 
ATOM      5  C   UNL     1      24.740   0.912  52.998  0.00  0.00    +0.000 A 
ATOM      6  C   UNL     1      26.075   0.749  53.629  0.00  0.00    +0.000 A 
ATOM      7  O   UNL     1      26.189   0.061  54.639  0.00  0.00    +0.000 OA
ATOM      8  C   UNL     1      27.208   1.461  53.018  0.00  0.00    +0.000 A 
ATOM      9  C   UNL     1      26.924   2.277  51.993  0.00  0.00    +0.000 A 
ATOM     10  N   UNL     1      25.678   2.510  51.408  0.00  0.00    +0.000 N 
ATOM     11  C   UNL     1      24.558   1.774  51.896  0.00  0.00    +0.000 A 
ATOM     12  C   UNL     1      23.235   1.815  51.374  0.00  0.00    +0.000 A 
ATOM     13  F   UNL     1      22.992   2.496  50.244  0.00  0.00    +0.000 F 
ENDROOT
BRANCH   1  17
ATOM     14  C   UNL     1      18.804   0.787  50.261  0.00  0.00    +0.000 C 
ATOM     15  C   UNL     1      18.511   1.064  51.737  0.00  0.00    +0.000 C 
ATOM     16  C   UNL     1      19.748   1.810  52.225  0.00  0.00    +0.000 C 
ATOM     17  N   UNL     1      20.838   1.279  51.400  0.00  0.00    +0.000 N 
ATOM     18  C   UNL     1      20.309   0.472  50.294  0.00  0.00    +0.000 C 
BRANCH  14  19
ATOM     19  C   UNL     1      18.410   1.984  49.376  0.00  0.00    +0.000 C 
BRANCH  19  20
ATOM     20  N   UNL     1      19.292   2.289  48.245  0.00  0.00    +0.000 N 
ATOM     21  H   UNL     1      20.161   1.770  48.365  0.00  0.00    +0.000 HD
ATOM     22  H   UNL     1      18.792   2.020  47.397  0.00  0.00    +0.000 HD
BRANCH  20  24
ATOM     23  C   UNL     1      20.139   4.252  49.439  0.00  0.00    +0.000 C 
ATOM     24  C   UNL     1      19.614   3.706  48.119  0.00  0.00    +0.000 C 
ENDBRANCH  20  24
ENDBRANCH  19  20
ENDBRANCH  14  19
ENDBRANCH   1  17
BRANCH  10  25
ATOM     25  C   UNL     1      25.526   3.490  50.305  0.00  0.00    +0.000 C 
ATOM     26  C   UNL     1      26.837   3.784  49.574  0.00  0.00    +0.000 C 
ATOM     27  C   UNL     1      26.599   5.126  48.879  0.00  0.00    +0.000 C 
ATOM     28  C   UNL     1      25.371   5.750  49.545  0.00  0.00    +0.000 C 
ATOM     29  C   UNL     1      25.064   4.877  50.760  0.00  0.00    +0.000 C 
ENDBRANCH  10  25
BRANCH   8  30
ATOM     30  C   UNL     1      28.613   1.361  53.447  0.00  0.00    +0.000 C 
ATOM     31  O   UNL     1      29.292   0.348  53.420  0.00  0.00    +0.000 OA
ATOM     32  O   UNL     1      29.104   2.500  53.954  0.00  0.00    +0.000 OA
ENDBRANCH   8  30
TORSDOF 6
ENDMDL
MODEL 6
REMARK VINA RESULT:    -8.040      3.713      6.905
REMARK INTER + INTRA:         -12.093
REMARK INTER:                 -11.046
REMARK INTRA:                  -1.047
REMARK UNBOUND:                -1.233
REMARK  Name = 
REMARK  7 active torsions:
REMARK  status: ('A' for Active; 'I' for Inactive)
REMARK    1  A    between atoms: C_1  and  C_2
REMARK    2  A    between atoms: C_2  and  N_3
REMARK    3  A    between atoms: N_3  and  C_4
REMARK    4  A    between atoms: C_4  and  C_5
REMARK    5  A    between atoms: N_8  and  C_9
REMARK    6  A    between atoms: C_16  and  C_17
REMARK    7  A    between atoms: N_21  and  C_22
REMARK                            x       y       z     vdW  Elec       q    Type
REMARK                         _______ _______ _______ _____ _____    ______ ____
ROOT
ATOM      1  C   UNL     1      21.369   1.316  52.192  0.00  0.00    +0.000 A 
ATOM      2  C   UNL     1      21.505   0.363  53.209  0.00  0.00    +0.000 A 
ATOM      3  F   UNL     1      20.429  -0.155  53.824  0.00  0.00    +0.000 F 
ATOM      4  C   UNL     1      22.746  -0.082  53.645  0.00  0.00    +0.000 A 
ATOM      5  C   UNL     1      23.918   0.419  53.066  0.00  0.00    +0.000 A 
ATOM      6  C   UNL     1      25.208  -0.095  53.595  0.00  0.00    +0.000 A 
ATOM      7  O   UNL     1      25.208  -0.857  54.558  0.00  0.00    +0.000 OA
ATOM      8  C   UNL     1      26.443   0.370  52.946  0.00  0.00    +0.000 A 
ATOM      9  C   UNL     1      26.307   1.297  51.987  0.00  0.00    +0.000 A 
ATOM     10  N   UNL     1      25.123   1.854  51.502  0.00  0.00    +0.000 N 
ATOM     11  C   UNL     1      23.888   1.371  52.026  0.00  0.00    +0.000 A 
ATOM     12  C   UNL     1      22.587   1.757  51.598  0.00  0.00    +0.000 A 
ATOM     13  F   UNL     1      22.453   2.551  50.525  0.00  0.00    +0.000 F 
ENDROOT
BRANCH   1  17
ATOM     14  C   UNL     1      18.461   3.299  50.973  0.00  0.00    +0.000 C 
ATOM     15  C   UNL     1      18.691   2.200  49.936  0.00  0.00    +0.000 C 
ATOM     16  C   UNL     1      19.381   1.089  50.720  0.00  0.00    +0.000 C 
ATOM     17  N   UNL     1      20.136   1.799  51.759  0.00  0.00    +0.000 N 
ATOM     18  C   UNL     1      19.747   3.213  51.812  0.00  0.00    +0.000 C 
BRANCH  14  19
ATOM     19  C   UNL     1      17.157   3.068  51.759  0.00  0.00    +0.000 C 
BRANCH  19  20
ATOM     20  N   UNL     1      16.521   4.249  52.349  0.00  0.00    +0.000 N 
ATOM     21  H   UNL     1      17.141   4.622  53.068  0.00  0.00    +0.000 HD
ATOM     22  H   UNL     1      16.362   4.912  51.590  0.00  0.00    +0.000 HD
BRANCH  20  24
ATOM     23  C   UNL     1      14.761   2.567  52.611  0.00  0.00    +0.000 C 
ATOM     24  C   UNL     1      15.223   3.975  52.956  0.00  0.00    +0.000 C 
ENDBRANCH  20  24
ENDBRANCH  19  20
ENDBRANCH  14  19
ENDBRANCH   1  17
BRANCH  10  25
ATOM     25  C   UNL     1      25.151   2.915  50.465  0.00  0.00    +0.000 C 
ATOM     26  C   UNL     1      26.491   3.010  49.733  0.00  0.00    +0.000 C 
ATOM     27  C   UNL     1      26.502   4.414  49.128  0.00  0.00    +0.000 C 
ATOM     28  C   UNL     1      25.413   5.209  49.850  0.00  0.00    +0.000 C 
ATOM     29  C   UNL     1      24.954   4.331  51.012  0.00  0.00    +0.000 C 
ENDBRANCH  10  25
BRANCH   8  30
ATOM     30  C   UNL     1      27.804  -0.086  53.273  0.00  0.00    +0.000 C 
ATOM     31  O   UNL     1      28.706   0.619  53.698  0.00  0.00    +0.000 OA
ATOM     32  O   UNL     1      28.019  -1.381  53.003  0.00  0.00    +0.000 OA
ENDBRANCH   8  30
TORSDOF 6
ENDMDL
MODEL 7
REMARK VINA RESULT:    -7.913      1.136      2.340
REMARK INTER + INTRA:         -11.922
REMARK INTER:                 -10.685
REMARK INTRA:                  -1.237
REMARK UNBOUND:                -1.233
REMARK  Name = 
REMARK  7 active torsions:
REMARK  status: ('A' for Active; 'I' for Inactive)
REMARK    1  A    between atoms: C_1  and  C_2
REMARK    2  A    between atoms: C_2  and  N_3
REMARK    3  A    between atoms: N_3  and  C_4
REMARK    4  A    between atoms: C_4  and  C_5
REMARK    5  A    between atoms: N_8  and  C_9
REMARK    6  A    between atoms: C_16  and  C_17
REMARK    7  A    between atoms: N_21  and  C_22
REMARK                            x       y       z     vdW  Elec       q    Type
REMARK                         _______ _______ _______ _____ _____    ______ ____
ROOT
ATOM      1  C   UNL     1      23.680   3.946  51.021  0.00  0.00    +0.000 A 
ATOM      2  C   UNL     1      22.286   3.851  51.107  0.00  0.00    +0.000 A 
ATOM      3  F   UNL     1      21.490   4.756  50.516  0.00  0.00    +0.000 F 
ATOM      4  C   UNL     1      21.656   2.835  51.814  0.00  0.00    +0.000 A 
ATOM      5  C   UNL     1      22.414   1.859  52.473  0.00  0.00    +0.000 A 
ATOM      6  C   UNL     1      21.668   0.813  53.219  0.00  0.00    +0.000 A 
ATOM      7  O   UNL     1      20.447   0.886  53.309  0.00  0.00    +0.000 OA
ATOM      8  C   UNL     1      22.452  -0.258  53.853  0.00  0.00    +0.000 A 
ATOM      9  C   UNL     1      23.786  -0.151  53.784  0.00  0.00    +0.000 A 
ATOM     10  N   UNL     1      24.529   0.845  53.149  0.00  0.00    +0.000 N 
ATOM     11  C   UNL     1      23.824   1.858  52.434  0.00  0.00    +0.000 A 
ATOM     12  C   UNL     1      24.407   2.900  51.661  0.00  0.00    +0.000 A 
ATOM     13  F   UNL     1      25.733   2.904  51.451  0.00  0.00    +0.000 F 
ENDROOT
BRANCH   1  17
ATOM     14  C   UNL     1      25.712   6.871  49.927  0.00  0.00    +0.000 C 
ATOM     15  C   UNL     1      26.266   5.661  49.173  0.00  0.00    +0.000 C 
ATOM     16  C   UNL     1      25.092   4.690  49.118  0.00  0.00    +0.000 C 
ATOM     17  N   UNL     1      24.335   4.971  50.342  0.00  0.00    +0.000 N 
ATOM     18  C   UNL     1      24.820   6.199  50.984  0.00  0.00    +0.000 C 
BRANCH  14  19
ATOM     19  C   UNL     1      24.979   7.837  48.978  0.00  0.00    +0.000 C 
BRANCH  19  20
ATOM     20  N   UNL     1      23.800   8.524  49.515  0.00  0.00    +0.000 N 
ATOM     21  H   UNL     1      23.749   8.341  50.517  0.00  0.00    +0.000 HD
ATOM     22  H   UNL     1      23.912   9.516  49.305  0.00  0.00    +0.000 HD
BRANCH  20  24
ATOM     23  C   UNL     1      21.440   8.032  49.947  0.00  0.00    +0.000 C 
ATOM     24  C   UNL     1      22.545   8.097  48.904  0.00  0.00    +0.000 C 
ENDBRANCH  20  24
ENDBRANCH  19  20
ENDBRANCH  14  19
ENDBRANCH   1  17
BRANCH  10  25
ATOM     25  C   UNL     1      26.012   0.845  53.210  0.00  0.00    +0.000 C 
ATOM     26  C   UNL     1      26.650  -0.276  52.388  0.00  0.00    +0.000 C 
ATOM     27  C   UNL     1      28.054  -0.433  52.973  0.00  0.00    +0.000 C 
ATOM     28  C   UNL     1      28.041   0.270  54.332  0.00  0.00    +0.000 C 
ATOM     29  C   UNL     1      26.581   0.613  54.613  0.00  0.00    +0.000 C 
ENDBRANCH  10  25
BRANCH   8  30
ATOM     30  C   UNL     1      21.892  -1.420  54.564  0.00  0.00    +0.000 C 
ATOM     31  O   UNL     1      20.787  -1.902  54.376  0.00  0.00    +0.000 OA
ATOM     32  O   UNL     1      22.693  -1.902  55.524  0.00  0.00    +0.000 OA
ENDBRANCH   8  30
TORSDOF 6
ENDMDL
MODEL 8
REMARK VINA RESULT:    -7.528      4.014      7.151
REMARK INTER + INTRA:         -11.401
REMARK INTER:                 -10.032
REMARK INTRA:                  -1.369
REMARK UNBOUND:                -1.233
REMARK  Name = 
REMARK  7 active torsions:
REMARK  status: ('A' for Active; 'I' for Inactive)
REMARK    1  A    between atoms: C_1  and  C_2
REMARK    2  A    between atoms: C_2  and  N_3
REMARK    3  A    between atoms: N_3  and  C_4
REMARK    4  A    between atoms: C_4  and  C_5
REMARK    5  A    between atoms: N_8  and  C_9
REMARK    6  A    between atoms: C_16  and  C_17
REMARK    7  A    between atoms: N_21  and  C_22
REMARK                            x       y       z     vdW  Elec       q    Type
REMARK                         _______ _______ _______ _____ _____    ______ ____
ROOT
ATOM      1  C   UNL     1      25.309   2.025  51.601  0.00  0.00    +0.000 A 
ATOM      2  C   UNL     1      26.046   2.971  50.877  0.00  0.00    +0.000 A 
ATOM      3  F   UNL     1      27.377   3.073  51.022  0.00  0.00    +0.000 F 
ATOM      4  C   UNL     1      25.446   3.857  49.993  0.00  0.00    +0.000 A 
ATOM      5  C   UNL     1      24.060   3.827  49.795  0.00  0.00    +0.000 A 
ATOM      6  C   UNL     1      23.490   4.816  48.844  0.00  0.00    +0.000 A 
ATOM      7  O   UNL     1      24.220   5.664  48.340  0.00  0.00    +0.000 OA
ATOM      8  C   UNL     1      22.046   4.746  48.574  0.00  0.00    +0.000 A 
ATOM      9  C   UNL     1      21.343   3.852  49.285  0.00  0.00    +0.000 A 
ATOM     10  N   UNL     1      21.825   2.948  50.233  0.00  0.00    +0.000 N 
ATOM     11  C   UNL     1      23.231   2.903  50.466  0.00  0.00    +0.000 A 
ATOM     12  C   UNL     1      23.911   1.998  51.328  0.00  0.00    +0.000 A 
ATOM     13  F   UNL     1      23.228   0.995  51.902  0.00  0.00    +0.000 F 
ENDROOT
BRANCH   1  17
ATOM     14  C   UNL     1      26.208  -0.154  54.485  0.00  0.00    +0.000 C 
ATOM     15  C   UNL     1      26.083  -1.080  53.274  0.00  0.00    +0.000 C 
ATOM     16  C   UNL     1      26.363  -0.171  52.083  0.00  0.00    +0.000 C 
ATOM     17  N   UNL     1      25.885   1.146  52.516  0.00  0.00    +0.000 N 
ATOM     18  C   UNL     1      25.583   1.145  53.952  0.00  0.00    +0.000 C 
BRANCH  14  19
ATOM     19  C   UNL     1      27.671  -0.029  54.948  0.00  0.00    +0.000 C 
BRANCH  19  20
ATOM     20  N   UNL     1      28.325   1.265  54.730  0.00  0.00    +0.000 N 
ATOM     21  H   UNL     1      27.650   1.900  54.306  0.00  0.00    +0.000 HD
ATOM     22  H   UNL     1      28.648   1.592  55.641  0.00  0.00    +0.000 HD
BRANCH  20  24
ATOM     23  C   UNL     1      29.827  -0.258  53.537  0.00  0.00    +0.000 C 
ATOM     24  C   UNL     1      29.497   1.191  53.863  0.00  0.00    +0.000 C 
ENDBRANCH  20  24
ENDBRANCH  19  20
ENDBRANCH  14  19
ENDBRANCH   1  17
BRANCH  10  25
ATOM     25  C   UNL     1      20.899   2.055  50.973  0.00  0.00    +0.000 C 
ATOM     26  C   UNL     1      20.367   0.900  50.123  0.00  0.00    +0.000 C 
ATOM     27  C   UNL     1      19.101   0.440  50.845  0.00  0.00    +0.000 C 
ATOM     28  C   UNL     1      18.716   1.565  51.808  0.00  0.00    +0.000 C 
ATOM     29  C   UNL     1      19.622   2.743  51.461  0.00  0.00    +0.000 C 
ENDBRANCH  10  25
BRANCH   8  30
ATOM     30  C   UNL     1      21.315   5.581  47.607  0.00  0.00    +0.000 C 
ATOM     31  O   UNL     1      21.449   6.786  47.468  0.00  0.00    +0.000 OA
ATOM     32  O   UNL     1      20.403   4.908  46.893  0.00  0.00    +0.000 OA
ENDBRANCH   8  30
TORSDOF 6
ENDMDL
MODEL 9
REMARK VINA RESULT:    -7.439      3.660      6.160
REMARK INTER + INTRA:         -11.281
REMARK INTER:                 -10.240
REMARK INTRA:                  -1.041
REMARK UNBOUND:                -1.233
REMARK  Name = 
REMARK  7 active torsions:
REMARK  status: ('A' for Active; 'I' for Inactive)
REMARK    1  A    between atoms: C_1  and  C_2
REMARK    2  A    between atoms: C_2  and  N_3
REMARK    3  A    between atoms: N_3  and  C_4
REMARK    4  A    between atoms: C_4  and  C_5
REMARK    5  A    between atoms: N_8  and  C_9
REMARK    6  A    between atoms: C_16  and  C_17
REMARK    7  A    between atoms: N_21  and  C_22
REMARK                            x       y       z     vdW  Elec       q    Type
REMARK                         _______ _______ _______ _____ _____    ______ ____
ROOT
ATOM      1  C   UNL     1      24.078   3.196  51.651  0.00  0.00    +0.000 A 
ATOM      2  C   UNL     1      23.915   4.495  51.155  0.00  0.00    +0.000 A 
ATOM      3  F   UNL     1      24.966   5.315  50.995  0.00  0.00    +0.000 F 
ATOM      4  C   UNL     1      22.669   5.008  50.820  0.00  0.00    +0.000 A 
ATOM      5  C   UNL     1      21.518   4.223  50.972  0.00  0.00    +0.000 A 
ATOM      6  C   UNL     1      20.221   4.847  50.606  0.00  0.00    +0.000 A 
ATOM      7  O   UNL     1      20.187   6.028  50.275  0.00  0.00    +0.000 OA
ATOM      8  C   UNL     1      19.015   4.008  50.692  0.00  0.00    +0.000 A 
ATOM      9  C   UNL     1      19.176   2.772  51.186  0.00  0.00    +0.000 A 
ATOM     10  N   UNL     1      20.363   2.167  51.601  0.00  0.00    +0.000 N 
ATOM     11  C   UNL     1      21.579   2.897  51.450  0.00  0.00    +0.000 A 
ATOM     12  C   UNL     1      22.887   2.418  51.738  0.00  0.00    +0.000 A 
ATOM     13  F   UNL     1      23.060   1.128  52.066  0.00  0.00    +0.000 F 
ENDROOT
BRANCH   1  17
ATOM     14  C   UNL     1      26.972   1.475  53.245  0.00  0.00    +0.000 C 
ATOM     15  C   UNL     1      26.844   0.882  51.841  0.00  0.00    +0.000 C 
ATOM     16  C   UNL     1      26.153   1.978  51.037  0.00  0.00    +0.000 C 
ATOM     17  N   UNL     1      25.314   2.670  52.021  0.00  0.00    +0.000 N 
ATOM     18  C   UNL     1      25.645   2.239  53.384  0.00  0.00    +0.000 C 
BRANCH  14  19
ATOM     19  C   UNL     1      28.238   2.343  53.375  0.00  0.00    +0.000 C 
BRANCH  19  20
ATOM     20  N   UNL     1      29.363   1.766  54.116  0.00  0.00    +0.000 N 
ATOM     21  H   UNL     1      30.187   1.783  53.516  0.00  0.00    +0.000 HD
ATOM     22  H   UNL     1      29.483   2.328  54.959  0.00  0.00    +0.000 HD
BRANCH  20  24
ATOM     23  C   UNL     1      29.902  -0.580  53.663  0.00  0.00    +0.000 C 
ATOM     24  C   UNL     1      29.135   0.391  54.549  0.00  0.00    +0.000 C 
ENDBRANCH  20  24
ENDBRANCH  19  20
ENDBRANCH  14  19
ENDBRANCH   1  17
BRANCH  10  25
ATOM     25  C   UNL     1      20.360   0.799  52.177  0.00  0.00    +0.000 C 
ATOM     26  C   UNL     1      19.046   0.051  51.948  0.00  0.00    +0.000 C 
ATOM     27  C   UNL     1      19.039  -1.052  53.007  0.00  0.00    +0.000 C 
ATOM     28  C   UNL     1      20.093  -0.664  54.046  0.00  0.00    +0.000 C 
ATOM     29  C   UNL     1      20.521   0.760  53.699  0.00  0.00    +0.000 C 
ENDBRANCH  10  25
BRANCH   8  30
ATOM     30  C   UNL     1      17.658   4.419  50.297  0.00  0.00    +0.000 C 
ATOM     31  O   UNL     1      17.312   4.733  49.169  0.00  0.00    +0.000 OA
ATOM     32  O   UNL     1      16.796   4.488  51.320  0.00  0.00    +0.000 OA
ENDBRANCH   8  30
TORSDOF 6
ENDMDL
