MODEL 1
REMARK VINA RESULT:    -8.834      0.000      0.000
REMARK INTER + INTRA:         -10.355
REMARK INTER:                 -10.383
REMARK INTRA:                   0.028
REMARK UNBOUND:                 0.028
REMARK  Name = 
REMARK  4 active torsions:
REMARK  status: ('A' for Active; 'I' for Inactive)
REMARK    1  A    between atoms: C_1  and  C_2
REMARK    2  A    between atoms: C_2  and  N_3
REMARK    3  A    between atoms: N_3  and  C_4
REMARK    4  A    between atoms: C_14  and  C_16
REMARK                            x       y       z     vdW  Elec       q    Type
REMARK                         _______ _______ _______ _____ _____    ______ ____
ROOT
ATOM      1  C   UNL     1      27.457   1.935  52.886  0.00  0.00    +0.000 A 
ATOM      2  C   UNL     1      28.756   1.587  53.261  0.00  0.00    +0.000 A 
ATOM      3  C   UNL     1      28.962   0.621  54.238  0.00  0.00    +0.000 A 
ATOM      4  C   UNL     1      27.855   0.056  54.845  0.00  0.00    +0.000 A 
ATOM      5  N   UNL     1      26.580   0.387  54.551  0.00  0.00    +0.000 NA
ATOM      6  C   UNL     1      26.376   1.332  53.602  0.00  0.00    +0.000 A 
ATOM      7  N   UNL     1      25.068   1.617  53.204  0.00  0.00    +0.000 N 
ATOM      8  C   UNL     1      24.030   0.632  53.517  0.00  0.00    +0.000 C 
ATOM      9  C   UNL     1      22.904   0.786  52.469  0.00  0.00    +0.000 C 
ATOM     10  N   UNL     1      22.452   2.186  52.279  0.00  0.00    +0.000 N 
ATOM     11  C   UNL     1      21.202   2.556  51.764  0.00  0.00    +0.000 C 
ATOM     12  O   UNL     1      20.902   3.735  51.564  0.00  0.00    +0.000 OA
ATOM     13  C   UNL     1      23.509   3.212  52.269  0.00  0.00    +0.000 C 
ATOM     14  C   UNL     1      24.568   2.991  53.369  0.00  0.00    +0.000 C 
ENDROOT
BRANCH  11  15
ATOM     15  C   UNL     1      20.146   1.525  51.528  0.00  0.00    +0.000 A 
ATOM     16  C   UNL     1      19.432   1.593  50.342  0.00  0.00    +0.000 A 
ATOM     17  C   UNL     1      18.317   0.779  50.204  0.00  0.00    +0.000 A 
ATOM     18  C   UNL     1      17.962  -0.087  51.245  0.00  0.00    +0.000 A 
ATOM     19  C   UNL     1      16.771  -0.829  51.206  0.00  0.00    +0.000 A 
ATOM     20  C   UNL     1      16.449  -1.694  52.249  0.00  0.00    +0.000 A 
ATOM     21  C   UNL     1      17.339  -1.860  53.303  0.00  0.00    +0.000 A 
ATOM     22  C   UNL     1      18.518  -1.107  53.345  0.00  0.00    +0.000 A 
ATOM     23  C   UNL     1      18.826  -0.182  52.358  0.00  0.00    +0.000 A 
ATOM     24  N   UNL     1      19.901   0.612  52.505  0.00  0.00    +0.000 NA
ENDBRANCH  11  15
BRANCH   1  25
ATOM     25  N   UNL     1      27.180   2.896  51.888  0.00  0.00    +0.000 N 
ATOM     26  H   UNL     1      27.269   3.853  52.100  0.00  0.00    +0.000 HD
BRANCH  25  28
ATOM     27  C   UNL     1      26.408   3.745  49.765  0.00  0.00    +0.000 C 
ATOM     28  C   UNL     1      26.766   2.498  50.555  0.00  0.00    +0.000 C 
ENDBRANCH  25  28
ENDBRANCH   1  25
TORSDOF 3
ENDMDL
MODEL 2
REMARK VINA RESULT:    -8.663      3.704      7.817
REMARK INTER + INTRA:         -10.154
REMARK INTER:                  -9.745
REMARK INTRA:                  -0.409
REMARK UNBOUND:                 0.028
REMARK  Name = 
REMARK  4 active torsions:
REMARK  status: ('A' for Active; 'I' for Inactive)
REMARK    1  A    between atoms: C_1  and  C_2
REMARK    2  A    between atoms: C_2  and  N_3
REMARK    3  A    between atoms: N_3  and  C_4
REMARK    4  A    between atoms: C_14  and  C_16
REMARK                            x       y       z     vdW  Elec       q    Type
REMARK                         _______ _______ _______ _____ _____    ______ ____
ROOT
ATOM      1  C   UNL     1      22.447   5.225  47.984  0.00  0.00    +0.000 A 
ATOM      2  C   UNL     1      22.354   6.167  46.958  0.00  0.00    +0.000 A 
ATOM      3  C   UNL     1      23.253   7.224  46.903  0.00  0.00    +0.000 A 
ATOM      4  C   UNL     1      24.201   7.333  47.905  0.00  0.00    +0.000 A 
ATOM      5  N   UNL     1      24.306   6.475  48.942  0.00  0.00    +0.000 NA
ATOM      6  C   UNL     1      23.427   5.445  49.001  0.00  0.00    +0.000 A 
ATOM      7  N   UNL     1      23.580   4.484  50.003  0.00  0.00    +0.000 N 
ATOM      8  C   UNL     1      24.878   4.403  50.676  0.00  0.00    +0.000 C 
ATOM      9  C   UNL     1      25.051   2.956  51.193  0.00  0.00    +0.000 C 
ATOM     10  N   UNL     1      23.879   2.448  51.949  0.00  0.00    +0.000 N 
ATOM     11  C   UNL     1      23.926   1.400  52.878  0.00  0.00    +0.000 C 
ATOM     12  O   UNL     1      22.909   0.973  53.431  0.00  0.00    +0.000 OA
ATOM     13  C   UNL     1      22.556   2.805  51.409  0.00  0.00    +0.000 C 
ATOM     14  C   UNL     1      22.473   4.276  50.949  0.00  0.00    +0.000 C 
ENDROOT
BRANCH  11  15
ATOM     15  C   UNL     1      25.237   0.826  53.306  0.00  0.00    +0.000 A 
ATOM     16  C   UNL     1      26.096   1.643  54.024  0.00  0.00    +0.000 A 
ATOM     17  C   UNL     1      27.392   1.196  54.244  0.00  0.00    +0.000 A 
ATOM     18  C   UNL     1      27.780  -0.056  53.754  0.00  0.00    +0.000 A 
ATOM     19  C   UNL     1      29.113  -0.491  53.835  0.00  0.00    +0.000 A 
ATOM     20  C   UNL     1      29.471  -1.748  53.352  0.00  0.00    +0.000 A 
ATOM     21  C   UNL     1      28.493  -2.592  52.841  0.00  0.00    +0.000 A 
ATOM     22  C   UNL     1      27.169  -2.148  52.748  0.00  0.00    +0.000 A 
ATOM     23  C   UNL     1      26.799  -0.872  53.151  0.00  0.00    +0.000 A 
ATOM     24  N   UNL     1      25.546  -0.442  52.923  0.00  0.00    +0.000 NA
ENDBRANCH  11  15
BRANCH   1  25
ATOM     25  N   UNL     1      21.575   4.117  48.087  0.00  0.00    +0.000 N 
ATOM     26  H   UNL     1      20.906   4.094  48.809  0.00  0.00    +0.000 HD
BRANCH  25  28
ATOM     27  C   UNL     1      22.367   1.853  47.818  0.00  0.00    +0.000 C 
ATOM     28  C   UNL     1      21.648   3.013  47.149  0.00  0.00    +0.000 C 
ENDBRANCH  25  28
ENDBRANCH   1  25
TORSDOF 3
ENDMDL
MODEL 3
REMARK VINA RESULT:    -8.498      2.845      8.280
REMARK INTER + INTRA:          -9.961
REMARK INTER:                  -9.588
REMARK INTRA:                  -0.373
REMARK UNBOUND:                 0.028
REMARK  Name = 
REMARK  4 active torsions:
REMARK  status: ('A' for Active; 'I' for Inactive)
REMARK    1  A    between atoms: C_1  and  C_2
REMARK    2  A    between atoms: C_2  and  N_3
REMARK    3  A    between atoms: N_3  and  C_4
REMARK    4  A    between atoms: C_14  and  C_16
REMARK                            x       y       z     vdW  Elec       q    Type
REMARK                         _______ _______ _______ _____ _____    ______ ____
ROOT
ATOM      1  C   UNL     1      21.806   0.357  53.646  0.00  0.00    +0.000 A 
ATOM      2  C   UNL     1      21.593  -0.538  54.697  0.00  0.00    +0.000 A 
ATOM      3  C   UNL     1      22.661  -1.250  55.229  0.00  0.00    +0.000 A 
ATOM      4  C   UNL     1      23.911  -1.077  54.664  0.00  0.00    +0.000 A 
ATOM      5  N   UNL     1      24.163  -0.258  53.621  0.00  0.00    +0.000 NA
ATOM      6  C   UNL     1      23.123   0.435  53.097  0.00  0.00    +0.000 A 
ATOM      7  N   UNL     1      23.373   1.367  52.088  0.00  0.00    +0.000 N 
ATOM      8  C   UNL     1      24.749   1.841  51.924  0.00  0.00    +0.000 C 
ATOM      9  C   UNL     1      24.689   3.253  51.297  0.00  0.00    +0.000 C 
ATOM     10  N   UNL     1      23.813   3.339  50.103  0.00  0.00    +0.000 N 
ATOM     11  C   UNL     1      23.917   4.321  49.109  0.00  0.00    +0.000 C 
ATOM     12  O   UNL     1      23.120   4.386  48.170  0.00  0.00    +0.000 OA
ATOM     13  C   UNL     1      22.546   2.592  50.175  0.00  0.00    +0.000 C 
ATOM     14  C   UNL     1      22.713   1.185  50.786  0.00  0.00    +0.000 C 
ENDROOT
BRANCH  11  15
ATOM     15  C   UNL     1      25.068   5.274  49.104  0.00  0.00    +0.000 A 
ATOM     16  C   UNL     1      24.794   6.618  49.309  0.00  0.00    +0.000 A 
ATOM     17  C   UNL     1      25.818   7.532  49.099  0.00  0.00    +0.000 A 
ATOM     18  C   UNL     1      27.081   7.074  48.710  0.00  0.00    +0.000 A 
ATOM     19  C   UNL     1      28.107   7.966  48.358  0.00  0.00    +0.000 A 
ATOM     20  C   UNL     1      29.360   7.484  47.987  0.00  0.00    +0.000 A 
ATOM     21  C   UNL     1      29.608   6.118  48.021  0.00  0.00    +0.000 A 
ATOM     22  C   UNL     1      28.579   5.231  48.358  0.00  0.00    +0.000 A 
ATOM     23  C   UNL     1      27.300   5.680  48.656  0.00  0.00    +0.000 A 
ATOM     24  N   UNL     1      26.312   4.788  48.846  0.00  0.00    +0.000 NA
ENDBRANCH  11  15
BRANCH   1  25
ATOM     25  N   UNL     1      20.766   1.124  53.073  0.00  0.00    +0.000 N 
ATOM     26  H   UNL     1      20.924   2.075  52.867  0.00  0.00    +0.000 HD
BRANCH  25  28
ATOM     27  C   UNL     1      19.345   0.352  51.282  0.00  0.00    +0.000 C 
ATOM     28  C   UNL     1      19.471   0.540  52.784  0.00  0.00    +0.000 C 
ENDBRANCH  25  28
ENDBRANCH   1  25
TORSDOF 3
ENDMDL
MODEL 4
REMARK VINA RESULT:    -8.294      3.219      7.954
REMARK INTER + INTRA:          -9.720
REMARK INTER:                  -9.680
REMARK INTRA:                  -0.040
REMARK UNBOUND:                 0.028
REMARK  Name = 
REMARK  4 active torsions:
REMARK  status: ('A' for Active; 'I' for Inactive)
REMARK    1  A    between atoms: C_1  and  C_2
REMARK    2  A    between atoms: C_2  and  N_3
REMARK    3  A    between atoms: N_3  and  C_4
REMARK    4  A    between atoms: C_14  and  C_16
REMARK                            x       y       z     vdW  Elec       q    Type
REMARK                         _______ _______ _______ _____ _____    ______ ____
ROOT
ATOM      1  C   UNL     1      20.681   4.701  49.714  0.00  0.00    +0.000 A 
ATOM      2  C   UNL     1      20.207   5.838  49.055  0.00  0.00    +0.000 A 
ATOM      3  C   UNL     1      20.613   7.100  49.470  0.00  0.00    +0.000 A 
ATOM      4  C   UNL     1      21.454   7.192  50.564  0.00  0.00    +0.000 A 
ATOM      5  N   UNL     1      21.906   6.128  51.262  0.00  0.00    +0.000 NA
ATOM      6  C   UNL     1      21.508   4.896  50.863  0.00  0.00    +0.000 A 
ATOM      7  N   UNL     1      22.044   3.775  51.500  0.00  0.00    +0.000 N 
ATOM      8  C   UNL     1      23.277   3.953  52.269  0.00  0.00    +0.000 C 
ATOM      9  C   UNL     1      24.016   2.595  52.294  0.00  0.00    +0.000 C 
ATOM     10  N   UNL     1      23.154   1.453  52.681  0.00  0.00    +0.000 N 
ATOM     11  C   UNL     1      23.625   0.243  53.209  0.00  0.00    +0.000 C 
ATOM     12  O   UNL     1      22.869  -0.701  53.453  0.00  0.00    +0.000 OA
ATOM     13  C   UNL     1      21.790   1.454  52.126  0.00  0.00    +0.000 C 
ATOM     14  C   UNL     1      21.124   2.845  52.173  0.00  0.00    +0.000 C 
ENDROOT
BRANCH  11  15
ATOM     15  C   UNL     1      25.063   0.091  53.586  0.00  0.00    +0.000 A 
ATOM     16  C   UNL     1      25.654   1.121  54.300  0.00  0.00    +0.000 A 
ATOM     17  C   UNL     1      27.031   1.089  54.473  0.00  0.00    +0.000 A 
ATOM     18  C   UNL     1      27.767   0.024  53.943  0.00  0.00    +0.000 A 
ATOM     19  C   UNL     1      29.171   0.016  53.977  0.00  0.00    +0.000 A 
ATOM     20  C   UNL     1      29.880  -1.063  53.454  0.00  0.00    +0.000 A 
ATOM     21  C   UNL     1      29.189  -2.158  52.950  0.00  0.00    +0.000 A 
ATOM     22  C   UNL     1      27.791  -2.140  52.904  0.00  0.00    +0.000 A 
ATOM     23  C   UNL     1      27.062  -1.045  53.347  0.00  0.00    +0.000 A 
ATOM     24  N   UNL     1      25.731  -1.016  53.165  0.00  0.00    +0.000 NA
ENDBRANCH  11  15
BRANCH   1  25
ATOM     25  N   UNL     1      20.321   3.390  49.330  0.00  0.00    +0.000 N 
ATOM     26  H   UNL     1      19.719   2.865  49.907  0.00  0.00    +0.000 HD
BRANCH  25  28
ATOM     27  C   UNL     1      21.630   1.563  48.452  0.00  0.00    +0.000 C 
ATOM     28  C   UNL     1      20.823   2.800  48.103  0.00  0.00    +0.000 C 
ENDBRANCH  25  28
ENDBRANCH   1  25
TORSDOF 3
ENDMDL
MODEL 5
REMARK VINA RESULT:    -8.197      2.243      8.799
REMARK INTER + INTRA:          -9.606
REMARK INTER:                  -9.156
REMARK INTRA:                  -0.450
REMARK UNBOUND:                 0.028
REMARK  Name = 
REMARK  4 active torsions:
REMARK  status: ('A' for Active; 'I' for Inactive)
REMARK    1  A    between atoms: C_1  and  C_2
REMARK    2  A    between atoms: C_2  and  N_3
REMARK    3  A    between atoms: N_3  and  C_4
REMARK    4  A    between atoms: C_14  and  C_16
REMARK                            x       y       z     vdW  Elec       q    Type
REMARK                         _______ _______ _______ _____ _____    ______ ____
ROOT
ATOM      1  C   UNL     1      18.246   0.892  51.060  0.00  0.00    +0.000 A 
ATOM      2  C   UNL     1      17.195   1.425  50.310  0.00  0.00    +0.000 A 
ATOM      3  C   UNL     1      17.282   2.719  49.815  0.00  0.00    +0.000 A 
ATOM      4  C   UNL     1      18.408   3.464  50.118  0.00  0.00    +0.000 A 
ATOM      5  N   UNL     1      19.432   3.012  50.874  0.00  0.00    +0.000 NA
ATOM      6  C   UNL     1      19.347   1.751  51.362  0.00  0.00    +0.000 A 
ATOM      7  N   UNL     1      20.438   1.224  52.057  0.00  0.00    +0.000 N 
ATOM      8  C   UNL     1      21.738   1.876  51.883  0.00  0.00    +0.000 C 
ATOM      9  C   UNL     1      22.834   0.817  52.141  0.00  0.00    +0.000 C 
ATOM     10  N   UNL     1      22.641   0.050  53.396  0.00  0.00    +0.000 N 
ATOM     11  C   UNL     1      23.662  -0.617  54.087  0.00  0.00    +0.000 C 
ATOM     12  O   UNL     1      23.435  -1.295  55.092  0.00  0.00    +0.000 OA
ATOM     13  C   UNL     1      21.256  -0.341  53.709  0.00  0.00    +0.000 C 
ATOM     14  C   UNL     1      20.239   0.791  53.449  0.00  0.00    +0.000 C 
ENDROOT
BRANCH  11  15
ATOM     15  C   UNL     1      25.088  -0.446  53.677  0.00  0.00    +0.000 A 
ATOM     16  C   UNL     1      25.723  -1.528  53.084  0.00  0.00    +0.000 A 
ATOM     17  C   UNL     1      27.096  -1.454  52.892  0.00  0.00    +0.000 A 
ATOM     18  C   UNL     1      27.785  -0.300  53.282  0.00  0.00    +0.000 A 
ATOM     19  C   UNL     1      29.186  -0.233  53.231  0.00  0.00    +0.000 A 
ATOM     20  C   UNL     1      29.847   0.933  53.611  0.00  0.00    +0.000 A 
ATOM     21  C   UNL     1      29.110   2.048  53.989  0.00  0.00    +0.000 A 
ATOM     22  C   UNL     1      27.714   1.972  54.053  0.00  0.00    +0.000 A 
ATOM     23  C   UNL     1      27.035   0.799  53.753  0.00  0.00    +0.000 A 
ATOM     24  N   UNL     1      25.707   0.732  53.954  0.00  0.00    +0.000 NA
ENDBRANCH  11  15
BRANCH   1  25
ATOM     25  N   UNL     1      18.228  -0.423  51.577  0.00  0.00    +0.000 N 
ATOM     26  H   UNL     1      18.952  -1.047  51.338  0.00  0.00    +0.000 HD
BRANCH  25  28
ATOM     27  C   UNL     1      17.689  -1.998  53.323  0.00  0.00    +0.000 C 
ATOM     28  C   UNL     1      17.161  -0.873  52.451  0.00  0.00    +0.000 C 
ENDBRANCH  25  28
ENDBRANCH   1  25
TORSDOF 3
ENDMDL
MODEL 6
REMARK VINA RESULT:    -8.157      2.972      8.191
REMARK INTER + INTRA:          -9.560
REMARK INTER:                  -9.485
REMARK INTRA:                  -0.074
REMARK UNBOUND:                 0.028
REMARK  Name = 
REMARK  4 active torsions:
REMARK  status: ('A' for Active; 'I' for Inactive)
REMARK    1  A    between atoms: C_1  and  C_2
REMARK    2  A    between atoms: C_2  and  N_3
REMARK    3  A    between atoms: N_3  and  C_4
REMARK    4  A    between atoms: C_14  and  C_16
REMARK                            x       y       z     vdW  Elec       q    Type
REMARK                         _______ _______ _______ _____ _____    ______ ____
ROOT
ATOM      1  C   UNL     1      19.854   5.231  49.997  0.00  0.00    +0.000 A 
ATOM      2  C   UNL     1      19.306   6.344  49.356  0.00  0.00    +0.000 A 
ATOM      3  C   UNL     1      19.925   7.582  49.466  0.00  0.00    +0.000 A 
ATOM      4  C   UNL     1      21.058   7.682  50.251  0.00  0.00    +0.000 A 
ATOM      5  N   UNL     1      21.604   6.648  50.926  0.00  0.00    +0.000 NA
ATOM      6  C   UNL     1      21.001   5.439  50.825  0.00  0.00    +0.000 A 
ATOM      7  N   UNL     1      21.603   4.332  51.426  0.00  0.00    +0.000 N 
ATOM      8  C   UNL     1      23.021   4.436  51.780  0.00  0.00    +0.000 C 
ATOM      9  C   UNL     1      23.613   3.008  51.773  0.00  0.00    +0.000 C 
ATOM     10  N   UNL     1      22.810   2.024  52.539  0.00  0.00    +0.000 N 
ATOM     11  C   UNL     1      23.310   0.826  53.066  0.00  0.00    +0.000 C 
ATOM     12  O   UNL     1      22.583   0.012  53.640  0.00  0.00    +0.000 OA
ATOM     13  C   UNL     1      21.347   2.135  52.402  0.00  0.00    +0.000 C 
ATOM     14  C   UNL     1      20.849   3.595  52.452  0.00  0.00    +0.000 C 
ENDROOT
BRANCH  11  15
ATOM     15  C   UNL     1      24.777   0.540  53.034  0.00  0.00    +0.000 A 
ATOM     16  C   UNL     1      25.172  -0.780  52.880  0.00  0.00    +0.000 A 
ATOM     17  C   UNL     1      26.515  -1.084  53.058  0.00  0.00    +0.000 A 
ATOM     18  C   UNL     1      27.418  -0.060  53.365  0.00  0.00    +0.000 A 
ATOM     19  C   UNL     1      28.757  -0.337  53.684  0.00  0.00    +0.000 A 
ATOM     20  C   UNL     1      29.639   0.701  53.973  0.00  0.00    +0.000 A 
ATOM     21  C   UNL     1      29.201   2.017  53.890  0.00  0.00    +0.000 A 
ATOM     22  C   UNL     1      27.862   2.289  53.586  0.00  0.00    +0.000 A 
ATOM     23  C   UNL     1      26.944   1.270  53.370  0.00  0.00    +0.000 A 
ATOM     24  N   UNL     1      25.644   1.572  53.211  0.00  0.00    +0.000 NA
ENDBRANCH  11  15
BRANCH   1  25
ATOM     25  N   UNL     1      19.285   3.940  49.911  0.00  0.00    +0.000 N 
ATOM     26  H   UNL     1      18.872   3.539  50.710  0.00  0.00    +0.000 HD
BRANCH  25  28
ATOM     27  C   UNL     1      20.430   2.185  48.715  0.00  0.00    +0.000 C 
ATOM     28  C   UNL     1      19.297   3.194  48.666  0.00  0.00    +0.000 C 
ENDBRANCH  25  28
ENDBRANCH   1  25
TORSDOF 3
ENDMDL
MODEL 7
REMARK VINA RESULT:    -8.127      3.552      6.312
REMARK INTER + INTRA:          -9.524
REMARK INTER:                  -9.658
REMARK INTRA:                   0.134
REMARK UNBOUND:                 0.028
REMARK  Name = 
REMARK  4 active torsions:
REMARK  status: ('A' for Active; 'I' for Inactive)
REMARK    1  A    between atoms: C_1  and  C_2
REMARK    2  A    between atoms: C_2  and  N_3
REMARK    3  A    between atoms: N_3  and  C_4
REMARK    4  A    between atoms: C_14  and  C_16
REMARK                            x       y       z     vdW  Elec       q    Type
REMARK                         _______ _______ _______ _____ _____    ______ ____
ROOT
ATOM      1  C   UNL     1      25.381   7.763  49.382  0.00  0.00    +0.000 A 
ATOM      2  C   UNL     1      25.051   9.028  48.891  0.00  0.00    +0.000 A 
ATOM      3  C   UNL     1      23.761   9.283  48.444  0.00  0.00    +0.000 A 
ATOM      4  C   UNL     1      22.843   8.248  48.462  0.00  0.00    +0.000 A 
ATOM      5  N   UNL     1      23.123   6.997  48.886  0.00  0.00    +0.000 NA
ATOM      6  C   UNL     1      24.381   6.744  49.319  0.00  0.00    +0.000 A 
ATOM      7  N   UNL     1      24.668   5.489  49.860  0.00  0.00    +0.000 N 
ATOM      8  C   UNL     1      23.541   4.664  50.302  0.00  0.00    +0.000 C 
ATOM      9  C   UNL     1      24.057   3.720  51.413  0.00  0.00    +0.000 C 
ATOM     10  N   UNL     1      25.304   3.001  51.054  0.00  0.00    +0.000 N 
ATOM     11  C   UNL     1      25.728   1.802  51.642  0.00  0.00    +0.000 C 
ATOM     12  O   UNL     1      26.807   1.279  51.353  0.00  0.00    +0.000 OA
ATOM     13  C   UNL     1      26.318   3.785  50.328  0.00  0.00    +0.000 C 
ATOM     14  C   UNL     1      25.710   4.671  49.221  0.00  0.00    +0.000 C 
ENDROOT
BRANCH  11  15
ATOM     15  C   UNL     1      24.831   1.060  52.579  0.00  0.00    +0.000 A 
ATOM     16  C   UNL     1      25.425   0.244  53.530  0.00  0.00    +0.000 A 
ATOM     17  C   UNL     1      24.608  -0.606  54.263  0.00  0.00    +0.000 A 
ATOM     18  C   UNL     1      23.227  -0.601  54.034  0.00  0.00    +0.000 A 
ATOM     19  C   UNL     1      22.380  -1.534  54.653  0.00  0.00    +0.000 A 
ATOM     20  C   UNL     1      21.007  -1.499  54.419  0.00  0.00    +0.000 A 
ATOM     21  C   UNL     1      20.474  -0.500  53.613  0.00  0.00    +0.000 A 
ATOM     22  C   UNL     1      21.323   0.418  52.987  0.00  0.00    +0.000 A 
ATOM     23  C   UNL     1      22.701   0.358  53.141  0.00  0.00    +0.000 A 
ATOM     24  N   UNL     1      23.486   1.176  52.419  0.00  0.00    +0.000 NA
ENDBRANCH  11  15
BRANCH   1  25
ATOM     25  N   UNL     1      26.669   7.444  49.869  0.00  0.00    +0.000 N 
ATOM     26  H   UNL     1      26.757   6.942  50.712  0.00  0.00    +0.000 HD
BRANCH  25  28
ATOM     27  C   UNL     1      27.948   7.043  47.862  0.00  0.00    +0.000 C 
ATOM     28  C   UNL     1      27.865   7.842  49.151  0.00  0.00    +0.000 C 
ENDBRANCH  25  28
ENDBRANCH   1  25
TORSDOF 3
ENDMDL
MODEL 8
REMARK VINA RESULT:    -7.851      4.442      7.165
REMARK INTER + INTRA:          -9.199
REMARK INTER:                  -8.727
REMARK INTRA:                  -0.472
REMARK UNBOUND:                 0.028
REMARK  Name = 
REMARK  4 active torsions:
REMARK  status: ('A' for Active; 'I' for Inactive)
REMARK    1  A    between atoms: C_1  and  C_2
REMARK    2  A    between atoms: C_2  and  N_3
REMARK    3  A    between atoms: N_3  and  C_4
REMARK    4  A    between atoms: C_14  and  C_16
REMARK                            x       y       z     vdW  Elec       q    Type
REMARK                         _______ _______ _______ _____ _____    ______ ____
ROOT
ATOM      1  C   UNL     1      27.891   9.219  49.046  0.00  0.00    +0.000 A 
ATOM      2  C   UNL     1      28.077  10.585  48.822  0.00  0.00    +0.000 A 
ATOM      3  C   UNL     1      26.990  11.390  48.504  0.00  0.00    +0.000 A 
ATOM      4  C   UNL     1      25.748  10.795  48.379  0.00  0.00    +0.000 A 
ATOM      5  N   UNL     1      25.522   9.474  48.541  0.00  0.00    +0.000 NA
ATOM      6  C   UNL     1      26.580   8.686  48.847  0.00  0.00    +0.000 A 
ATOM      7  N   UNL     1      26.357   7.335  49.124  0.00  0.00    +0.000 N 
ATOM      8  C   UNL     1      24.993   6.926  49.465  0.00  0.00    +0.000 C 
ATOM      9  C   UNL     1      25.088   5.659  50.347  0.00  0.00    +0.000 C 
ATOM     10  N   UNL     1      25.975   4.609  49.789  0.00  0.00    +0.000 N 
ATOM     11  C   UNL     1      25.900   3.248  50.115  0.00  0.00    +0.000 C 
ATOM     12  O   UNL     1      26.704   2.425  49.671  0.00  0.00    +0.000 OA
ATOM     13  C   UNL     1      27.225   5.079  49.169  0.00  0.00    +0.000 C 
ATOM     14  C   UNL     1      27.023   6.328  48.285  0.00  0.00    +0.000 C 
ENDROOT
BRANCH  11  15
ATOM     15  C   UNL     1      24.769   2.730  50.944  0.00  0.00    +0.000 A 
ATOM     16  C   UNL     1      24.955   2.661  52.316  0.00  0.00    +0.000 A 
ATOM     17  C   UNL     1      24.001   1.991  53.070  0.00  0.00    +0.000 A 
ATOM     18  C   UNL     1      22.888   1.430  52.433  0.00  0.00    +0.000 A 
ATOM     19  C   UNL     1      21.970   0.631  53.134  0.00  0.00    +0.000 A 
ATOM     20  C   UNL     1      20.864   0.096  52.479  0.00  0.00    +0.000 A 
ATOM     21  C   UNL     1      20.643   0.401  51.142  0.00  0.00    +0.000 A 
ATOM     22  C   UNL     1      21.568   1.184  50.443  0.00  0.00    +0.000 A 
ATOM     23  C   UNL     1      22.719   1.667  51.052  0.00  0.00    +0.000 A 
ATOM     24  N   UNL     1      23.643   2.303  50.312  0.00  0.00    +0.000 NA
ENDBRANCH  11  15
BRANCH   1  25
ATOM     25  N   UNL     1      28.951   8.350  49.390  0.00  0.00    +0.000 N 
ATOM     26  H   UNL     1      28.874   7.789  50.196  0.00  0.00    +0.000 HD
BRANCH  25  28
ATOM     27  C   UNL     1      31.343   8.667  49.432  0.00  0.00    +0.000 C 
ATOM     28  C   UNL     1      30.151   8.268  48.579  0.00  0.00    +0.000 C 
ENDBRANCH  25  28
ENDBRANCH   1  25
TORSDOF 3
ENDMDL
MODEL 9
REMARK VINA RESULT:    -7.732      2.945      9.302
REMARK INTER + INTRA:          -9.060
REMARK INTER:                  -8.629
REMARK INTRA:                  -0.430
REMARK UNBOUND:                 0.028
REMARK  Name = 
REMARK  4 active torsions:
REMARK  status: ('A' for Active; 'I' for Inactive)
REMARK    1  A    between atoms: C_1  and  C_2
REMARK    2  A    between atoms: C_2  and  N_3
REMARK    3  A    between atoms: N_3  and  C_4
REMARK    4  A    between atoms: C_14  and  C_16
REMARK                            x       y       z     vdW  Elec       q    Type
REMARK                         _______ _______ _______ _____ _____    ______ ____
ROOT
ATOM      1  C   UNL     1      17.617   0.693  50.533  0.00  0.00    +0.000 A 
ATOM      2  C   UNL     1      16.375   0.240  50.083  0.00  0.00    +0.000 A 
ATOM      3  C   UNL     1      15.762   0.859  49.002  0.00  0.00    +0.000 A 
ATOM      4  C   UNL     1      16.391   1.946  48.423  0.00  0.00    +0.000 A 
ATOM      5  N   UNL     1      17.570   2.450  48.846  0.00  0.00    +0.000 NA
ATOM      6  C   UNL     1      18.169   1.852  49.904  0.00  0.00    +0.000 A 
ATOM      7  N   UNL     1      19.437   2.286  50.295  0.00  0.00    +0.000 N 
ATOM      8  C   UNL     1      20.219   3.064  49.330  0.00  0.00    +0.000 C 
ATOM      9  C   UNL     1      21.715   2.853  49.657  0.00  0.00    +0.000 C 
ATOM     10  N   UNL     1      22.047   3.049  51.090  0.00  0.00    +0.000 N 
ATOM     11  C   UNL     1      23.324   3.361  51.575  0.00  0.00    +0.000 C 
ATOM     12  O   UNL     1      23.559   3.449  52.783  0.00  0.00    +0.000 OA
ATOM     13  C   UNL     1      21.075   2.513  52.058  0.00  0.00    +0.000 C 
ATOM     14  C   UNL     1      19.612   2.800  51.662  0.00  0.00    +0.000 C 
ENDROOT
BRANCH  11  15
ATOM     15  C   UNL     1      24.432   3.695  50.630  0.00  0.00    +0.000 A 
ATOM     16  C   UNL     1      25.380   2.715  50.376  0.00  0.00    +0.000 A 
ATOM     17  C   UNL     1      26.520   3.078  49.671  0.00  0.00    +0.000 A 
ATOM     18  C   UNL     1      26.667   4.397  49.231  0.00  0.00    +0.000 A 
ATOM     19  C   UNL     1      27.858   4.841  48.634  0.00  0.00    +0.000 A 
ATOM     20  C   UNL     1      27.974   6.157  48.192  0.00  0.00    +0.000 A 
ATOM     21  C   UNL     1      26.885   7.014  48.294  0.00  0.00    +0.000 A 
ATOM     22  C   UNL     1      25.705   6.573  48.904  0.00  0.00    +0.000 A 
ATOM     23  C   UNL     1      25.590   5.290  49.422  0.00  0.00    +0.000 A 
ATOM     24  N   UNL     1      24.488   4.951  50.114  0.00  0.00    +0.000 NA
ENDBRANCH  11  15
BRANCH   1  25
ATOM     25  N   UNL     1      18.303   0.097  51.615  0.00  0.00    +0.000 N 
ATOM     26  H   UNL     1      19.275   0.230  51.705  0.00  0.00    +0.000 HD
BRANCH  25  28
ATOM     27  C   UNL     1      18.622  -1.524  53.375  0.00  0.00    +0.000 C 
ATOM     28  C   UNL     1      17.603  -0.710  52.597  0.00  0.00    +0.000 C 
ENDBRANCH  25  28
ENDBRANCH   1  25
TORSDOF 3
ENDMDL
