MODEL 1
REMARK VINA RESULT:    -8.735      0.000      0.000
REMARK INTER + INTRA:         -12.233
REMARK INTER:                 -11.544
REMARK INTRA:                  -0.690
REMARK UNBOUND:                -0.690
REMARK  Name = 
REMARK  8 active torsions:
REMARK  status: ('A' for Active; 'I' for Inactive)
REMARK    1  A    between atoms: C_1  and  O_2
REMARK    2  A    between atoms: O_2  and  C_3
REMARK    3  A    between atoms: C_3  and  C_5
REMARK    4  A    between atoms: C_5  and  N_6
REMARK    5  A    between atoms: C_8  and  C_9
REMARK    6  A    between atoms: C_19  and  O_20
REMARK    7  A    between atoms: C_22  and  O_23
REMARK    8  A    between atoms: O_23  and  C_24
REMARK                            x       y       z     vdW  Elec       q    Type
REMARK                         _______ _______ _______ _____ _____    ______ ____
ROOT
ATOM      1  N   UNL     1      23.267   1.205  51.798  0.00  0.00    +0.000 N 
ATOM      2  C   UNL     1      24.614   1.197  52.137  0.00  0.00    +0.000 A 
ATOM      3  C   UNL     1      25.186   0.468  53.109  0.00  0.00    +0.000 A 
ATOM      4  C   UNL     1      24.288  -0.368  53.947  0.00  0.00    +0.000 A 
ATOM      5  O   UNL     1      24.713  -1.057  54.872  0.00  0.00    +0.000 OA
ATOM      6  C   UNL     1      22.839  -0.362  53.633  0.00  0.00    +0.000 A 
ATOM      7  C   UNL     1      21.946  -1.093  54.436  0.00  0.00    +0.000 A 
ATOM      8  C   UNL     1      20.583  -1.094  54.160  0.00  0.00    +0.000 A 
ATOM      9  C   UNL     1      20.116  -0.427  53.035  0.00  0.00    +0.000 A 
ATOM     10  C   UNL     1      21.017   0.251  52.200  0.00  0.00    +0.000 A 
ATOM     11  C   UNL     1      22.376   0.376  52.521  0.00  0.00    +0.000 A 
ENDROOT
BRANCH   3  12
ATOM     12  C   UNL     1      26.642   0.456  53.288  0.00  0.00    +0.000 A 
ATOM     13  C   UNL     1      27.314   1.662  53.546  0.00  0.00    +0.000 A 
ATOM     14  C   UNL     1      28.689   1.670  53.779  0.00  0.00    +0.000 A 
ATOM     15  C   UNL     1      29.407   0.476  53.737  0.00  0.00    +0.000 A 
ATOM     16  C   UNL     1      28.747  -0.719  53.447  0.00  0.00    +0.000 A 
ATOM     17 CL   UNL     1      29.644  -2.185  53.360  0.00  0.00    +0.000 Cl
ATOM     18  C   UNL     1      27.368  -0.738  53.229  0.00  0.00    +0.000 A 
ENDBRANCH   3  12
BRANCH   7  19
ATOM     19  O   UNL     1      22.343  -1.829  55.523  0.00  0.00    +0.000 OA
ATOM     20  H   UNL     1      21.899  -2.627  55.735  0.00  0.00    +0.000 HD
ENDBRANCH   7  19
BRANCH   9  21
ATOM     21  O   UNL     1      18.812  -0.329  52.634  0.00  0.00    +0.000 OA
ATOM     22  C   UNL     1      17.889  -1.243  53.211  0.00  0.00    +0.000 C 
ENDBRANCH   9  21
BRANCH   1  23
ATOM     23  C   UNL     1      22.733   2.119  50.753  0.00  0.00    +0.000 C 
BRANCH  23  24
ATOM     24  C   UNL     1      22.858   3.596  51.128  0.00  0.00    +0.000 C 
ATOM     25  O   UNL     1      23.592   4.399  50.570  0.00  0.00    +0.000 OA
BRANCH  24  27
ATOM     26  C   UNL     1      20.582   3.860  51.751  0.00  0.00    +0.000 C 
ATOM     27  O   UNL     1      21.962   3.917  52.116  0.00  0.00    +0.000 OA
ENDBRANCH  24  27
ENDBRANCH  23  24
ENDBRANCH   1  23
TORSDOF 6
ENDMDL
MODEL 2
REMARK VINA RESULT:    -7.998      3.748      5.958
REMARK INTER + INTRA:         -11.259
REMARK INTER:                 -10.570
REMARK INTRA:                  -0.689
REMARK UNBOUND:                -0.690
REMARK  Name = 
REMARK  8 active torsions:
REMARK  status: ('A' for Active; 'I' for Inactive)
REMARK    1  A    between atoms: C_1  and  O_2
REMARK    2  A    between atoms: O_2  and  C_3
REMARK    3  A    between atoms: C_3  and  C_5
REMARK    4  A    between atoms: C_5  and  N_6
REMARK    5  A    between atoms: C_8  and  C_9
REMARK    6  A    between atoms: C_19  and  O_20
REMARK    7  A    between atoms: C_22  and  O_23
REMARK    8  A    between atoms: O_23  and  C_24
REMARK                            x       y       z     vdW  Elec       q    Type
REMARK                         _______ _______ _______ _____ _____    ______ ____
ROOT
ATOM      1  N   UNL     1      25.360   1.747  52.384  0.00  0.00    +0.000 N 
ATOM      2  C   UNL     1      25.941   2.717  51.579  0.00  0.00    +0.000 A 
ATOM      3  C   UNL     1      25.363   3.335  50.535  0.00  0.00    +0.000 A 
ATOM      4  C   UNL     1      23.993   2.900  50.163  0.00  0.00    +0.000 A 
ATOM      5  O   UNL     1      23.386   3.392  49.213  0.00  0.00    +0.000 OA
ATOM      6  C   UNL     1      23.352   1.843  50.983  0.00  0.00    +0.000 A 
ATOM      7  C   UNL     1      22.079   1.361  50.633  0.00  0.00    +0.000 A 
ATOM      8  C   UNL     1      21.465   0.367  51.387  0.00  0.00    +0.000 A 
ATOM      9  C   UNL     1      22.088  -0.095  52.539  0.00  0.00    +0.000 A 
ATOM     10  C   UNL     1      23.331   0.432  52.921  0.00  0.00    +0.000 A 
ATOM     11  C   UNL     1      24.031   1.342  52.116  0.00  0.00    +0.000 A 
ENDROOT
BRANCH   3  12
ATOM     12  C   UNL     1      26.040   4.434  49.838  0.00  0.00    +0.000 A 
ATOM     13  C   UNL     1      27.215   4.171  49.115  0.00  0.00    +0.000 A 
ATOM     14  C   UNL     1      27.845   5.186  48.395  0.00  0.00    +0.000 A 
ATOM     15  C   UNL     1      27.317   6.476  48.406  0.00  0.00    +0.000 A 
ATOM     16  C   UNL     1      26.170   6.747  49.151  0.00  0.00    +0.000 A 
ATOM     17 CL   UNL     1      25.543   8.350  49.192  0.00  0.00    +0.000 Cl
ATOM     18  C   UNL     1      25.523   5.734  49.862  0.00  0.00    +0.000 A 
ENDBRANCH   3  12
BRANCH   7  19
ATOM     19  O   UNL     1      21.375   1.817  49.548  0.00  0.00    +0.000 OA
ATOM     20  H   UNL     1      21.830   2.140  48.796  0.00  0.00    +0.000 HD
ENDBRANCH   7  19
BRANCH   9  21
ATOM     21  O   UNL     1      21.620  -1.069  53.378  0.00  0.00    +0.000 OA
ATOM     22  C   UNL     1      21.617  -0.775  54.769  0.00  0.00    +0.000 C 
ENDBRANCH   9  21
BRANCH   1  23
ATOM     23  C   UNL     1      26.129   1.071  53.464  0.00  0.00    +0.000 C 
BRANCH  23  24
ATOM     24  C   UNL     1      27.128   0.041  52.935  0.00  0.00    +0.000 C 
ATOM     25  O   UNL     1      26.853  -0.868  52.166  0.00  0.00    +0.000 OA
BRANCH  24  27
ATOM     26  C   UNL     1      28.668   0.048  54.742  0.00  0.00    +0.000 C 
ATOM     27  O   UNL     1      28.394   0.337  53.370  0.00  0.00    +0.000 OA
ENDBRANCH  24  27
ENDBRANCH  23  24
ENDBRANCH   1  23
TORSDOF 6
ENDMDL
MODEL 3
REMARK VINA RESULT:    -7.837      1.663      2.475
REMARK INTER + INTRA:         -11.046
REMARK INTER:                 -10.526
REMARK INTRA:                  -0.520
REMARK UNBOUND:                -0.690
REMARK  Name = 
REMARK  8 active torsions:
REMARK  status: ('A' for Active; 'I' for Inactive)
REMARK    1  A    between atoms: C_1  and  O_2
REMARK    2  A    between atoms: O_2  and  C_3
REMARK    3  A    between atoms: C_3  and  C_5
REMARK    4  A    between atoms: C_5  and  N_6
REMARK    5  A    between atoms: C_8  and  C_9
REMARK    6  A    between atoms: C_19  and  O_20
REMARK    7  A    between atoms: C_22  and  O_23
REMARK    8  A    between atoms: O_23  and  C_24
REMARK                            x       y       z     vdW  Elec       q    Type
REMARK                         _______ _______ _______ _____ _____    ______ ____
ROOT
ATOM      1  N   UNL     1      24.256   2.828  51.972  0.00  0.00    +0.000 N 
ATOM      2  C   UNL     1      25.486   2.292  52.329  0.00  0.00    +0.000 A 
ATOM      3  C   UNL     1      25.689   1.161  53.023  0.00  0.00    +0.000 A 
ATOM      4  C   UNL     1      24.486   0.439  53.510  0.00  0.00    +0.000 A 
ATOM      5  O   UNL     1      24.567  -0.597  54.169  0.00  0.00    +0.000 OA
ATOM      6  C   UNL     1      23.155   0.999  53.172  0.00  0.00    +0.000 A 
ATOM      7  C   UNL     1      21.991   0.380  53.661  0.00  0.00    +0.000 A 
ATOM      8  C   UNL     1      20.734   0.894  53.359  0.00  0.00    +0.000 A 
ATOM      9  C   UNL     1      20.633   1.984  52.504  0.00  0.00    +0.000 A 
ATOM     10  C   UNL     1      21.794   2.562  51.967  0.00  0.00    +0.000 A 
ATOM     11  C   UNL     1      23.077   2.146  52.353  0.00  0.00    +0.000 A 
ENDROOT
BRANCH   3  12
ATOM     12  C   UNL     1      27.042   0.634  53.232  0.00  0.00    +0.000 A 
ATOM     13  C   UNL     1      28.067   1.508  53.631  0.00  0.00    +0.000 A 
ATOM     14  C   UNL     1      29.348   1.023  53.894  0.00  0.00    +0.000 A 
ATOM     15  C   UNL     1      29.621  -0.336  53.742  0.00  0.00    +0.000 A 
ATOM     16  C   UNL     1      28.614  -1.200  53.313  0.00  0.00    +0.000 A 
ATOM     17 CL   UNL     1      28.965  -2.870  53.090  0.00  0.00    +0.000 Cl
ATOM     18  C   UNL     1      27.324  -0.725  53.063  0.00  0.00    +0.000 A 
ENDBRANCH   3  12
BRANCH   7  19
ATOM     19  O   UNL     1      22.011  -0.738  54.455  0.00  0.00    +0.000 OA
ATOM     20  H   UNL     1      22.828  -1.121  54.705  0.00  0.00    +0.000 HD
ENDBRANCH   7  19
BRANCH   9  21
ATOM     21  O   UNL     1      19.478   2.607  52.119  0.00  0.00    +0.000 OA
ATOM     22  C   UNL     1      19.510   3.326  50.894  0.00  0.00    +0.000 C 
ENDBRANCH   9  21
BRANCH   1  23
ATOM     23  C   UNL     1      24.153   4.137  51.272  0.00  0.00    +0.000 C 
BRANCH  23  24
ATOM     24  C   UNL     1      24.538   4.060  49.794  0.00  0.00    +0.000 C 
ATOM     25  O   UNL     1      23.924   3.432  48.944  0.00  0.00    +0.000 OA
BRANCH  24  27
ATOM     26  C   UNL     1      26.837   4.202  49.218  0.00  0.00    +0.000 C 
ATOM     27  O   UNL     1      25.615   4.870  49.538  0.00  0.00    +0.000 OA
ENDBRANCH  24  27
ENDBRANCH  23  24
ENDBRANCH   1  23
TORSDOF 6
ENDMDL
MODEL 4
REMARK VINA RESULT:    -7.671      1.656      4.524
REMARK INTER + INTRA:         -10.827
REMARK INTER:                 -10.062
REMARK INTRA:                  -0.764
REMARK UNBOUND:                -0.690
REMARK  Name = 
REMARK  8 active torsions:
REMARK  status: ('A' for Active; 'I' for Inactive)
REMARK    1  A    between atoms: C_1  and  O_2
REMARK    2  A    between atoms: O_2  and  C_3
REMARK    3  A    between atoms: C_3  and  C_5
REMARK    4  A    between atoms: C_5  and  N_6
REMARK    5  A    between atoms: C_8  and  C_9
REMARK    6  A    between atoms: C_19  and  O_20
REMARK    7  A    between atoms: C_22  and  O_23
REMARK    8  A    between atoms: O_23  and  C_24
REMARK                            x       y       z     vdW  Elec       q    Type
REMARK                         _______ _______ _______ _____ _____    ______ ____
ROOT
ATOM      1  N   UNL     1      23.396   1.732  52.652  0.00  0.00    +0.000 N 
ATOM      2  C   UNL     1      24.620   1.142  52.937  0.00  0.00    +0.000 A 
ATOM      3  C   UNL     1      25.803   1.456  52.384  0.00  0.00    +0.000 A 
ATOM      4  C   UNL     1      25.800   2.491  51.319  0.00  0.00    +0.000 A 
ATOM      5  O   UNL     1      26.829   2.835  50.739  0.00  0.00    +0.000 OA
ATOM      6  C   UNL     1      24.505   3.122  50.966  0.00  0.00    +0.000 A 
ATOM      7  C   UNL     1      24.446   4.065  49.925  0.00  0.00    +0.000 A 
ATOM      8  C   UNL     1      23.240   4.663  49.577  0.00  0.00    +0.000 A 
ATOM      9  C   UNL     1      22.101   4.378  50.319  0.00  0.00    +0.000 A 
ATOM     10  C   UNL     1      22.174   3.484  51.398  0.00  0.00    +0.000 A 
ATOM     11  C   UNL     1      23.345   2.771  51.692  0.00  0.00    +0.000 A 
ENDROOT
BRANCH   3  12
ATOM     12  C   UNL     1      27.047   0.842  52.860  0.00  0.00    +0.000 A 
ATOM     13  C   UNL     1      27.998   1.637  53.519  0.00  0.00    +0.000 A 
ATOM     14  C   UNL     1      29.163   1.067  54.034  0.00  0.00    +0.000 A 
ATOM     15  C   UNL     1      29.395  -0.299  53.877  0.00  0.00    +0.000 A 
ATOM     16  C   UNL     1      28.468  -1.084  53.193  0.00  0.00    +0.000 A 
ATOM     17 CL   UNL     1      28.777  -2.762  52.969  0.00  0.00    +0.000 Cl
ATOM     18  C   UNL     1      27.292  -0.525  52.688  0.00  0.00    +0.000 A 
ENDBRANCH   3  12
BRANCH   7  19
ATOM     19  O   UNL     1      25.542   4.446  49.193  0.00  0.00    +0.000 OA
ATOM     20  H   UNL     1      25.456   5.097  48.525  0.00  0.00    +0.000 HD
ENDBRANCH   7  19
BRANCH   9  21
ATOM     21  O   UNL     1      20.846   4.876  50.100  0.00  0.00    +0.000 OA
ATOM     22  C   UNL     1      19.777   4.270  50.813  0.00  0.00    +0.000 C 
ENDBRANCH   9  21
BRANCH   1  23
ATOM     23  C   UNL     1      22.134   1.243  53.270  0.00  0.00    +0.000 C 
BRANCH  23  24
ATOM     24  C   UNL     1      21.566   0.005  52.575  0.00  0.00    +0.000 C 
ATOM     25  O   UNL     1      20.939   0.019  51.526  0.00  0.00    +0.000 OA
BRANCH  24  27
ATOM     26  C   UNL     1      21.645  -1.163  54.641  0.00  0.00    +0.000 C 
ATOM     27  O   UNL     1      21.940  -1.133  53.244  0.00  0.00    +0.000 OA
ENDBRANCH  24  27
ENDBRANCH  23  24
ENDBRANCH   1  23
TORSDOF 6
ENDMDL
MODEL 5
REMARK VINA RESULT:    -7.606      3.178      7.248
REMARK INTER + INTRA:         -10.742
REMARK INTER:                 -10.907
REMARK INTRA:                   0.165
REMARK UNBOUND:                -0.690
REMARK  Name = 
REMARK  8 active torsions:
REMARK  status: ('A' for Active; 'I' for Inactive)
REMARK    1  A    between atoms: C_1  and  O_2
REMARK    2  A    between atoms: O_2  and  C_3
REMARK    3  A    between atoms: C_3  and  C_5
REMARK    4  A    between atoms: C_5  and  N_6
REMARK    5  A    between atoms: C_8  and  C_9
REMARK    6  A    between atoms: C_19  and  O_20
REMARK    7  A    between atoms: C_22  and  O_23
REMARK    8  A    between atoms: O_23  and  C_24
REMARK                            x       y       z     vdW  Elec       q    Type
REMARK                         _______ _______ _______ _____ _____    ______ ____
ROOT
ATOM      1  N   UNL     1      25.950   1.760  52.053  0.00  0.00    +0.000 N 
ATOM      2  C   UNL     1      24.933   1.048  52.675  0.00  0.00    +0.000 A 
ATOM      3  C   UNL     1      23.622   1.126  52.394  0.00  0.00    +0.000 A 
ATOM      4  C   UNL     1      23.206   2.109  51.362  0.00  0.00    +0.000 A 
ATOM      5  O   UNL     1      22.028   2.266  51.046  0.00  0.00    +0.000 OA
ATOM      6  C   UNL     1      24.264   2.908  50.697  0.00  0.00    +0.000 A 
ATOM      7  C   UNL     1      23.911   3.890  49.755  0.00  0.00    +0.000 A 
ATOM      8  C   UNL     1      24.889   4.653  49.126  0.00  0.00    +0.000 A 
ATOM      9  C   UNL     1      26.228   4.384  49.378  0.00  0.00    +0.000 A 
ATOM     10  C   UNL     1      26.580   3.362  50.272  0.00  0.00    +0.000 A 
ATOM     11  C   UNL     1      25.618   2.662  51.016  0.00  0.00    +0.000 A 
ENDROOT
BRANCH   3  12
ATOM     12  C   UNL     1      22.657   0.230  53.040  0.00  0.00    +0.000 A 
ATOM     13  C   UNL     1      23.092  -0.632  54.059  0.00  0.00    +0.000 A 
ATOM     14  C   UNL     1      22.183  -1.452  54.730  0.00  0.00    +0.000 A 
ATOM     15  C   UNL     1      20.836  -1.430  54.375  0.00  0.00    +0.000 A 
ATOM     16  C   UNL     1      20.406  -0.599  53.340  0.00  0.00    +0.000 A 
ATOM     17 CL   UNL     1      18.748  -0.604  52.879  0.00  0.00    +0.000 Cl
ATOM     18  C   UNL     1      21.306   0.236  52.674  0.00  0.00    +0.000 A 
ENDBRANCH   3  12
BRANCH   7  19
ATOM     19  O   UNL     1      22.613   4.165  49.405  0.00  0.00    +0.000 OA
ATOM     20  H   UNL     1      22.065   3.484  49.069  0.00  0.00    +0.000 HD
ENDBRANCH   7  19
BRANCH   9  21
ATOM     21  O   UNL     1      27.301   5.047  48.848  0.00  0.00    +0.000 OA
ATOM     22  C   UNL     1      27.163   6.448  48.654  0.00  0.00    +0.000 C 
ENDBRANCH   9  21
BRANCH   1  23
ATOM     23  C   UNL     1      27.364   1.653  52.507  0.00  0.00    +0.000 C 
BRANCH  23  24
ATOM     24  C   UNL     1      27.580   0.546  53.540  0.00  0.00    +0.000 C 
ATOM     25  O   UNL     1      27.257   0.617  54.717  0.00  0.00    +0.000 OA
BRANCH  24  27
ATOM     26  C   UNL     1      29.283  -1.108  53.538  0.00  0.00    +0.000 C 
ATOM     27  O   UNL     1      28.101  -0.572  52.941  0.00  0.00    +0.000 OA
ENDBRANCH  24  27
ENDBRANCH  23  24
ENDBRANCH   1  23
TORSDOF 6
ENDMDL
MODEL 6
REMARK VINA RESULT:    -7.594      3.114      7.229
REMARK INTER + INTRA:         -10.726
REMARK INTER:                 -10.250
REMARK INTRA:                  -0.476
REMARK UNBOUND:                -0.690
REMARK  Name = 
REMARK  8 active torsions:
REMARK  status: ('A' for Active; 'I' for Inactive)
REMARK    1  A    between atoms: C_1  and  O_2
REMARK    2  A    between atoms: O_2  and  C_3
REMARK    3  A    between atoms: C_3  and  C_5
REMARK    4  A    between atoms: C_5  and  N_6
REMARK    5  A    between atoms: C_8  and  C_9
REMARK    6  A    between atoms: C_19  and  O_20
REMARK    7  A    between atoms: C_22  and  O_23
REMARK    8  A    between atoms: O_23  and  C_24
REMARK                            x       y       z     vdW  Elec       q    Type
REMARK                         _______ _______ _______ _____ _____    ______ ____
ROOT
ATOM      1  N   UNL     1      23.985   0.063  53.227  0.00  0.00    +0.000 N 
ATOM      2  C   UNL     1      22.991   0.605  52.423  0.00  0.00    +0.000 A 
ATOM      3  C   UNL     1      23.155   1.549  51.482  0.00  0.00    +0.000 A 
ATOM      4  C   UNL     1      24.518   2.116  51.320  0.00  0.00    +0.000 A 
ATOM      5  O   UNL     1      24.767   2.996  50.498  0.00  0.00    +0.000 OA
ATOM      6  C   UNL     1      25.600   1.581  52.183  0.00  0.00    +0.000 A 
ATOM      7  C   UNL     1      26.892   2.128  52.104  0.00  0.00    +0.000 A 
ATOM      8  C   UNL     1      27.918   1.644  52.909  0.00  0.00    +0.000 A 
ATOM      9  C   UNL     1      27.674   0.559  53.741  0.00  0.00    +0.000 A 
ATOM     10  C   UNL     1      26.399  -0.026  53.773  0.00  0.00    +0.000 A 
ATOM     11  C   UNL     1      25.315   0.519  53.069  0.00  0.00    +0.000 A 
ENDROOT
BRANCH   3  12
ATOM     12  C   UNL     1      22.044   1.952  50.613  0.00  0.00    +0.000 A 
ATOM     13  C   UNL     1      21.984   1.461  49.299  0.00  0.00    +0.000 A 
ATOM     14  C   UNL     1      20.908   1.781  48.472  0.00  0.00    +0.000 A 
ATOM     15  C   UNL     1      19.891   2.609  48.945  0.00  0.00    +0.000 A 
ATOM     16  C   UNL     1      19.965   3.126  50.238  0.00  0.00    +0.000 A 
ATOM     17 CL   UNL     1      18.727   4.179  50.804  0.00  0.00    +0.000 Cl
ATOM     18  C   UNL     1      21.031   2.798  51.078  0.00  0.00    +0.000 A 
ENDBRANCH   3  12
BRANCH   7  19
ATOM     19  O   UNL     1      27.224   3.156  51.257  0.00  0.00    +0.000 OA
ATOM     20  H   UNL     1      28.046   3.594  51.352  0.00  0.00    +0.000 HD
ENDBRANCH   7  19
BRANCH   9  21
ATOM     21  O   UNL     1      28.571  -0.025  54.593  0.00  0.00    +0.000 OA
ATOM     22  C   UNL     1      29.738  -0.592  54.013  0.00  0.00    +0.000 C 
ENDBRANCH   9  21
BRANCH   1  23
ATOM     23  C   UNL     1      23.669  -0.921  54.297  0.00  0.00    +0.000 C 
BRANCH  23  24
ATOM     24  C   UNL     1      22.171  -1.186  54.446  0.00  0.00    +0.000 C 
ATOM     25  O   UNL     1      21.592  -2.178  54.028  0.00  0.00    +0.000 OA
BRANCH  24  27
ATOM     26  C   UNL     1      20.459   0.452  54.604  0.00  0.00    +0.000 C 
ATOM     27  O   UNL     1      21.583  -0.200  55.197  0.00  0.00    +0.000 OA
ENDBRANCH  24  27
ENDBRANCH  23  24
ENDBRANCH   1  23
TORSDOF 6
ENDMDL
MODEL 7
REMARK VINA RESULT:    -7.429      3.634      4.966
REMARK INTER + INTRA:         -10.507
REMARK INTER:                 -10.007
REMARK INTRA:                  -0.500
REMARK UNBOUND:                -0.690
REMARK  Name = 
REMARK  8 active torsions:
REMARK  status: ('A' for Active; 'I' for Inactive)
REMARK    1  A    between atoms: C_1  and  O_2
REMARK    2  A    between atoms: O_2  and  C_3
REMARK    3  A    between atoms: C_3  and  C_5
REMARK    4  A    between atoms: C_5  and  N_6
REMARK    5  A    between atoms: C_8  and  C_9
REMARK    6  A    between atoms: C_19  and  O_20
REMARK    7  A    between atoms: C_22  and  O_23
REMARK    8  A    between atoms: O_23  and  C_24
REMARK                            x       y       z     vdW  Elec       q    Type
REMARK                         _______ _______ _______ _____ _____    ______ ____
ROOT
ATOM      1  N   UNL     1      22.912   2.432  50.888  0.00  0.00    +0.000 N 
ATOM      2  C   UNL     1      23.773   3.396  50.382  0.00  0.00    +0.000 A 
ATOM      3  C   UNL     1      25.092   3.487  50.618  0.00  0.00    +0.000 A 
ATOM      4  C   UNL     1      25.682   2.500  51.558  0.00  0.00    +0.000 A 
ATOM      5  O   UNL     1      26.877   2.511  51.851  0.00  0.00    +0.000 OA
ATOM      6  C   UNL     1      24.786   1.473  52.141  0.00  0.00    +0.000 A 
ATOM      7  C   UNL     1      25.290   0.556  53.079  0.00  0.00    +0.000 A 
ATOM      8  C   UNL     1      24.463  -0.411  53.641  0.00  0.00    +0.000 A 
ATOM      9  C   UNL     1      23.146  -0.513  53.210  0.00  0.00    +0.000 A 
ATOM     10  C   UNL     1      22.662   0.364  52.229  0.00  0.00    +0.000 A 
ATOM     11  C   UNL     1      23.433   1.427  51.737  0.00  0.00    +0.000 A 
ENDROOT
BRANCH   3  12
ATOM     12  C   UNL     1      25.917   4.482  49.924  0.00  0.00    +0.000 A 
ATOM     13  C   UNL     1      27.032   4.056  49.184  0.00  0.00    +0.000 A 
ATOM     14  C   UNL     1      27.799   4.975  48.467  0.00  0.00    +0.000 A 
ATOM     15  C   UNL     1      27.469   6.329  48.499  0.00  0.00    +0.000 A 
ATOM     16  C   UNL     1      26.383   6.759  49.261  0.00  0.00    +0.000 A 
ATOM     17 CL   UNL     1      26.002   8.436  49.328  0.00  0.00    +0.000 Cl
ATOM     18  C   UNL     1      25.600   5.844  49.969  0.00  0.00    +0.000 A 
ENDBRANCH   3  12
BRANCH   7  19
ATOM     19  O   UNL     1      26.595   0.552  53.502  0.00  0.00    +0.000 OA
ATOM     20  H   UNL     1      26.848   0.029  54.236  0.00  0.00    +0.000 HD
ENDBRANCH   7  19
BRANCH   9  21
ATOM     21  O   UNL     1      22.211  -1.400  53.668  0.00  0.00    +0.000 OA
ATOM     22  C   UNL     1      20.932  -0.875  54.000  0.00  0.00    +0.000 C 
ENDBRANCH   9  21
BRANCH   1  23
ATOM     23  C   UNL     1      21.448   2.482  50.624  0.00  0.00    +0.000 C 
BRANCH  23  24
ATOM     24  C   UNL     1      20.692   3.383  51.600  0.00  0.00    +0.000 C 
ATOM     25  O   UNL     1      20.840   4.593  51.691  0.00  0.00    +0.000 OA
BRANCH  24  27
ATOM     26  C   UNL     1      18.484   2.514  51.661  0.00  0.00    +0.000 C 
ATOM     27  O   UNL     1      19.756   2.659  52.293  0.00  0.00    +0.000 OA
ENDBRANCH  24  27
ENDBRANCH  23  24
ENDBRANCH   1  23
TORSDOF 6
ENDMDL
MODEL 8
REMARK VINA RESULT:    -7.325      1.674      4.287
REMARK INTER + INTRA:         -10.369
REMARK INTER:                  -9.934
REMARK INTRA:                  -0.436
REMARK UNBOUND:                -0.690
REMARK  Name = 
REMARK  8 active torsions:
REMARK  status: ('A' for Active; 'I' for Inactive)
REMARK    1  A    between atoms: C_1  and  O_2
REMARK    2  A    between atoms: O_2  and  C_3
REMARK    3  A    between atoms: C_3  and  C_5
REMARK    4  A    between atoms: C_5  and  N_6
REMARK    5  A    between atoms: C_8  and  C_9
REMARK    6  A    between atoms: C_19  and  O_20
REMARK    7  A    between atoms: C_22  and  O_23
REMARK    8  A    between atoms: O_23  and  C_24
REMARK                            x       y       z     vdW  Elec       q    Type
REMARK                         _______ _______ _______ _____ _____    ______ ____
ROOT
ATOM      1  N   UNL     1      22.197   0.734  53.579  0.00  0.00    +0.000 N 
ATOM      2  C   UNL     1      23.509   0.282  53.618  0.00  0.00    +0.000 A 
ATOM      3  C   UNL     1      24.525   0.723  52.859  0.00  0.00    +0.000 A 
ATOM      4  C   UNL     1      24.210   1.750  51.833  0.00  0.00    +0.000 A 
ATOM      5  O   UNL     1      25.068   2.204  51.078  0.00  0.00    +0.000 OA
ATOM      6  C   UNL     1      22.812   2.235  51.742  0.00  0.00    +0.000 A 
ATOM      7  C   UNL     1      22.457   3.165  50.749  0.00  0.00    +0.000 A 
ATOM      8  C   UNL     1      21.149   3.627  50.645  0.00  0.00    +0.000 A 
ATOM      9  C   UNL     1      20.207   3.219  51.582  0.00  0.00    +0.000 A 
ATOM     10  C   UNL     1      20.579   2.340  52.610  0.00  0.00    +0.000 A 
ATOM     11  C   UNL     1      21.855   1.760  52.666  0.00  0.00    +0.000 A 
ENDROOT
BRANCH   3  12
ATOM     12  C   UNL     1      25.896   0.249  53.081  0.00  0.00    +0.000 A 
ATOM     13  C   UNL     1      26.251  -1.047  52.675  0.00  0.00    +0.000 A 
ATOM     14  C   UNL     1      27.563  -1.500  52.821  0.00  0.00    +0.000 A 
ATOM     15  C   UNL     1      28.525  -0.668  53.391  0.00  0.00    +0.000 A 
ATOM     16  C   UNL     1      28.167   0.608  53.826  0.00  0.00    +0.000 A 
ATOM     17 CL   UNL     1      29.350   1.617  54.563  0.00  0.00    +0.000 Cl
ATOM     18  C   UNL     1      26.860   1.075  53.669  0.00  0.00    +0.000 A 
ENDBRANCH   3  12
BRANCH   7  19
ATOM     19  O   UNL     1      23.347   3.662  49.832  0.00  0.00    +0.000 OA
ATOM     20  H   UNL     1      23.702   3.101  49.172  0.00  0.00    +0.000 HD
ENDBRANCH   7  19
BRANCH   9  21
ATOM     21  O   UNL     1      18.887   3.577  51.612  0.00  0.00    +0.000 OA
ATOM     22  C   UNL     1      18.041   3.000  50.626  0.00  0.00    +0.000 C 
ENDBRANCH   9  21
BRANCH   1  23
ATOM     23  C   UNL     1      21.135   0.110  54.413  0.00  0.00    +0.000 C 
BRANCH  23  24
ATOM     24  C   UNL     1      20.976  -1.389  54.160  0.00  0.00    +0.000 C 
ATOM     25  O   UNL     1      21.881  -2.208  54.227  0.00  0.00    +0.000 OA
BRANCH  24  27
ATOM     26  C   UNL     1      18.921  -0.773  53.145  0.00  0.00    +0.000 C 
ATOM     27  O   UNL     1      19.659  -1.701  53.942  0.00  0.00    +0.000 OA
ENDBRANCH  24  27
ENDBRANCH  23  24
ENDBRANCH   1  23
TORSDOF 6
ENDMDL
MODEL 9
REMARK VINA RESULT:    -7.031      2.396      3.731
REMARK INTER + INTRA:          -9.981
REMARK INTER:                  -9.240
REMARK INTRA:                  -0.742
REMARK UNBOUND:                -0.690
REMARK  Name = 
REMARK  8 active torsions:
REMARK  status: ('A' for Active; 'I' for Inactive)
REMARK    1  A    between atoms: C_1  and  O_2
REMARK    2  A    between atoms: O_2  and  C_3
REMARK    3  A    between atoms: C_3  and  C_5
REMARK    4  A    between atoms: C_5  and  N_6
REMARK    5  A    between atoms: C_8  and  C_9
REMARK    6  A    between atoms: C_19  and  O_20
REMARK    7  A    between atoms: C_22  and  O_23
REMARK    8  A    between atoms: O_23  and  C_24
REMARK                            x       y       z     vdW  Elec       q    Type
REMARK                         _______ _______ _______ _____ _____    ______ ____
ROOT
ATOM      1  N   UNL     1      24.010   3.786  50.664  0.00  0.00    +0.000 N 
ATOM      2  C   UNL     1      25.022   3.052  51.269  0.00  0.00    +0.000 A 
ATOM      3  C   UNL     1      24.862   2.066  52.166  0.00  0.00    +0.000 A 
ATOM      4  C   UNL     1      23.475   1.766  52.603  0.00  0.00    +0.000 A 
ATOM      5  O   UNL     1      23.226   0.892  53.433  0.00  0.00    +0.000 OA
ATOM      6  C   UNL     1      22.370   2.550  52.000  0.00  0.00    +0.000 A 
ATOM      7  C   UNL     1      21.048   2.339  52.427  0.00  0.00    +0.000 A 
ATOM      8  C   UNL     1      20.000   3.069  51.877  0.00  0.00    +0.000 A 
ATOM      9  C   UNL     1      20.261   3.959  50.842  0.00  0.00    +0.000 A 
ATOM     10  C   UNL     1      21.573   4.123  50.376  0.00  0.00    +0.000 A 
ATOM     11  C   UNL     1      22.665   3.497  50.994  0.00  0.00    +0.000 A 
ENDROOT
BRANCH   3  12
ATOM     12  C   UNL     1      26.008   1.282  52.640  0.00  0.00    +0.000 A 
ATOM     13  C   UNL     1      27.004   1.912  53.404  0.00  0.00    +0.000 A 
ATOM     14  C   UNL     1      28.073   1.178  53.918  0.00  0.00    +0.000 A 
ATOM     15  C   UNL     1      28.165  -0.189  53.656  0.00  0.00    +0.000 A 
ATOM     16  C   UNL     1      27.196  -0.810  52.869  0.00  0.00    +0.000 A 
ATOM     17 CL   UNL     1      27.334  -2.489  52.518  0.00  0.00    +0.000 Cl
ATOM     18  C   UNL     1      26.113  -0.085  52.365  0.00  0.00    +0.000 A 
ENDBRANCH   3  12
BRANCH   7  19
ATOM     19  O   UNL     1      20.706   1.430  53.395  0.00  0.00    +0.000 OA
ATOM     20  H   UNL     1      21.363   1.084  53.966  0.00  0.00    +0.000 HD
ENDBRANCH   7  19
BRANCH   9  21
ATOM     21  O   UNL     1      19.345   4.752  50.206  0.00  0.00    +0.000 OA
ATOM     22  C   UNL     1      19.230   4.601  48.798  0.00  0.00    +0.000 C 
ENDBRANCH   9  21
BRANCH   1  23
ATOM     23  C   UNL     1      24.313   4.916  49.744  0.00  0.00    +0.000 C 
BRANCH  23  24
ATOM     24  C   UNL     1      24.761   6.182  50.475  0.00  0.00    +0.000 C 
ATOM     25  O   UNL     1      24.161   6.700  51.405  0.00  0.00    +0.000 OA
BRANCH  24  27
ATOM     26  C   UNL     1      26.448   5.952  48.820  0.00  0.00    +0.000 C 
ATOM     27  O   UNL     1      25.978   6.601  50.003  0.00  0.00    +0.000 OA
ENDBRANCH  24  27
ENDBRANCH  23  24
ENDBRANCH   1  23
TORSDOF 6
ENDMDL
