MODEL 1
REMARK VINA RESULT:    -8.463      0.000      0.000
REMARK INTER + INTRA:         -11.674
REMARK INTER:                 -11.184
REMARK INTRA:                  -0.491
REMARK UNBOUND:                -0.491
REMARK  Name = 
REMARK  8 active torsions:
REMARK  status: ('A' for Active; 'I' for Inactive)
REMARK    1  A    between atoms: C_1  and  O_2
REMARK    2  A    between atoms: O_2  and  C_3
REMARK    3  A    between atoms: C_7  and  N_8
REMARK    4  A    between atoms: N_11  and  C_12
REMARK    5  A    between atoms: C_12  and  C_13
REMARK    6  A    between atoms: C_22  and  N_23
REMARK    7  A    between atoms: C_26  and  O_27
REMARK    8  A    between atoms: O_27  and  C_28
REMARK                            x       y       z     vdW  Elec       q    Type
REMARK                         _______ _______ _______ _____ _____    ______ ____
ROOT
ATOM      1  C   UNL     1      18.420  -0.412  52.034  0.00  0.00    +0.000 A 
ATOM      2  C   UNL     1      19.517   0.329  51.574  0.00  0.00    +0.000 A 
ATOM      3  C   UNL     1      20.757   0.303  52.213  0.00  0.00    +0.000 A 
ATOM      4  N   UNL     1      21.758   1.091  51.760  0.00  0.00    +0.000 NA
ATOM      5  C   UNL     1      22.928   1.105  52.432  0.00  0.00    +0.000 A 
ATOM      6  C   UNL     1      23.149   0.247  53.504  0.00  0.00    +0.000 A 
ATOM      7  C   UNL     1      22.161  -0.623  53.944  0.00  0.00    +0.000 A 
ATOM      8  C   UNL     1      20.898  -0.543  53.336  0.00  0.00    +0.000 A 
ATOM      9  C   UNL     1      19.787  -1.262  53.818  0.00  0.00    +0.000 A 
ATOM     10  C   UNL     1      18.542  -1.179  53.195  0.00  0.00    +0.000 A 
ENDROOT
BRANCH   5  11
ATOM     11  N   UNL     1      23.975   1.962  52.083  0.00  0.00    +0.000 N 
ATOM     12  C   UNL     1      25.225   1.368  51.606  0.00  0.00    +0.000 C 
ATOM     13  C   UNL     1      26.322   2.466  51.662  0.00  0.00    +0.000 C 
ATOM     14  N   UNL     1      26.022   3.739  50.952  0.00  0.00    +0.000 N 
ATOM     15  C   UNL     1      24.661   4.199  51.293  0.00  0.00    +0.000 C 
ATOM     16  C   UNL     1      23.555   3.120  51.272  0.00  0.00    +0.000 C 
ATOM     17  H   UNL     1      26.693   4.434  51.279  0.00  0.00    +0.000 HD
BRANCH  14  18
ATOM     18  C   UNL     1      26.239   3.666  49.500  0.00  0.00    +0.000 C 
BRANCH  18  19
ATOM     19  C   UNL     1      26.838   4.953  48.967  0.00  0.00    +0.000 A 
ATOM     20  C   UNL     1      26.020   6.061  48.707  0.00  0.00    +0.000 A 
ATOM     21  C   UNL     1      26.533   7.165  48.026  0.00  0.00    +0.000 A 
ATOM     22  C   UNL     1      27.867   7.181  47.619  0.00  0.00    +0.000 A 
ATOM     23  C   UNL     1      28.707   6.115  47.936  0.00  0.00    +0.000 A 
ATOM     24  C   UNL     1      28.198   5.012  48.620  0.00  0.00    +0.000 A 
ENDBRANCH  18  19
ENDBRANCH  14  18
ENDBRANCH   5  11
BRANCH   7  25
ATOM     25  N   UNL     1      22.408  -1.371  55.115  0.00  0.00    +0.000 N 
ATOM     26  H   UNL     1      22.978  -0.999  55.825  0.00  0.00    +0.000 HD
ATOM     27  H   UNL     1      22.011  -2.266  55.221  0.00  0.00    +0.000 HD
ENDBRANCH   7  25
BRANCH   1  29
ATOM     28  C   UNL     1      16.444   0.834  51.622  0.00  0.00    +0.000 C 
ATOM     29  O   UNL     1      17.177  -0.374  51.443  0.00  0.00    +0.000 OA
ENDBRANCH   1  29
BRANCH  10  30
ATOM     30  O   UNL     1      17.430  -1.845  53.650  0.00  0.00    +0.000 OA
ATOM     31  C   UNL     1      17.510  -3.269  53.649  0.00  0.00    +0.000 C 
ENDBRANCH  10  30
TORSDOF 6
ENDMDL
MODEL 2
REMARK VINA RESULT:    -8.442      3.897      5.124
REMARK INTER + INTRA:         -11.647
REMARK INTER:                 -10.979
REMARK INTRA:                  -0.668
REMARK UNBOUND:                -0.491
REMARK  Name = 
REMARK  8 active torsions:
REMARK  status: ('A' for Active; 'I' for Inactive)
REMARK    1  A    between atoms: C_1  and  O_2
REMARK    2  A    between atoms: O_2  and  C_3
REMARK    3  A    between atoms: C_7  and  N_8
REMARK    4  A    between atoms: N_11  and  C_12
REMARK    5  A    between atoms: C_12  and  C_13
REMARK    6  A    between atoms: C_22  and  N_23
REMARK    7  A    between atoms: C_26  and  O_27
REMARK    8  A    between atoms: O_27  and  C_28
REMARK                            x       y       z     vdW  Elec       q    Type
REMARK                         _______ _______ _______ _____ _____    ______ ____
ROOT
ATOM      1  C   UNL     1      17.102   1.063  49.706  0.00  0.00    +0.000 A 
ATOM      2  C   UNL     1      18.470   1.100  50.014  0.00  0.00    +0.000 A 
ATOM      3  C   UNL     1      18.993   0.506  51.161  0.00  0.00    +0.000 A 
ATOM      4  N   UNL     1      20.311   0.633  51.437  0.00  0.00    +0.000 NA
ATOM      5  C   UNL     1      20.788   0.112  52.587  0.00  0.00    +0.000 A 
ATOM      6  C   UNL     1      19.970  -0.640  53.425  0.00  0.00    +0.000 A 
ATOM      7  C   UNL     1      18.630  -0.845  53.128  0.00  0.00    +0.000 A 
ATOM      8  C   UNL     1      18.099  -0.190  52.005  0.00  0.00    +0.000 A 
ATOM      9  C   UNL     1      16.721  -0.201  51.714  0.00  0.00    +0.000 A 
ATOM     10  C   UNL     1      16.212   0.447  50.588  0.00  0.00    +0.000 A 
ENDROOT
BRANCH   5  11
ATOM     11  N   UNL     1      22.115   0.285  52.988  0.00  0.00    +0.000 N 
ATOM     12  C   UNL     1      22.910  -0.909  53.278  0.00  0.00    +0.000 C 
ATOM     13  C   UNL     1      24.175  -0.458  54.055  0.00  0.00    +0.000 C 
ATOM     14  N   UNL     1      25.003   0.601  53.416  0.00  0.00    +0.000 N 
ATOM     15  C   UNL     1      24.138   1.699  52.940  0.00  0.00    +0.000 C 
ATOM     16  C   UNL     1      22.857   1.276  52.187  0.00  0.00    +0.000 C 
ATOM     17  H   UNL     1      25.631   0.968  54.131  0.00  0.00    +0.000 HD
BRANCH  14  18
ATOM     18  C   UNL     1      25.893   0.095  52.362  0.00  0.00    +0.000 C 
BRANCH  18  19
ATOM     19  C   UNL     1      27.254  -0.274  52.919  0.00  0.00    +0.000 A 
ATOM     20  C   UNL     1      28.116   0.719  53.401  0.00  0.00    +0.000 A 
ATOM     21  C   UNL     1      29.438   0.406  53.718  0.00  0.00    +0.000 A 
ATOM     22  C   UNL     1      29.902  -0.902  53.576  0.00  0.00    +0.000 A 
ATOM     23  C   UNL     1      29.033  -1.911  53.166  0.00  0.00    +0.000 A 
ATOM     24  C   UNL     1      27.710  -1.602  52.853  0.00  0.00    +0.000 A 
ENDBRANCH  18  19
ENDBRANCH  14  18
ENDBRANCH   5  11
BRANCH   7  25
ATOM     25  N   UNL     1      17.832  -1.508  54.085  0.00  0.00    +0.000 N 
ATOM     26  H   UNL     1      16.863  -1.598  53.939  0.00  0.00    +0.000 HD
ATOM     27  H   UNL     1      18.243  -1.878  54.898  0.00  0.00    +0.000 HD
ENDBRANCH   7  25
BRANCH   1  29
ATOM     28  C   UNL     1      16.595   3.096  48.595  0.00  0.00    +0.000 C 
ATOM     29  O   UNL     1      16.557   1.673  48.599  0.00  0.00    +0.000 OA
ENDBRANCH   1  29
BRANCH  10  30
ATOM     30  O   UNL     1      14.873   0.480  50.284  0.00  0.00    +0.000 OA
ATOM     31  C   UNL     1      14.058   1.285  51.135  0.00  0.00    +0.000 C 
ENDBRANCH  10  30
TORSDOF 6
ENDMDL
MODEL 3
REMARK VINA RESULT:    -8.179      4.027      5.394
REMARK INTER + INTRA:         -11.299
REMARK INTER:                 -10.681
REMARK INTRA:                  -0.619
REMARK UNBOUND:                -0.491
REMARK  Name = 
REMARK  8 active torsions:
REMARK  status: ('A' for Active; 'I' for Inactive)
REMARK    1  A    between atoms: C_1  and  O_2
REMARK    2  A    between atoms: O_2  and  C_3
REMARK    3  A    between atoms: C_7  and  N_8
REMARK    4  A    between atoms: N_11  and  C_12
REMARK    5  A    between atoms: C_12  and  C_13
REMARK    6  A    between atoms: C_22  and  N_23
REMARK    7  A    between atoms: C_26  and  O_27
REMARK    8  A    between atoms: O_27  and  C_28
REMARK                            x       y       z     vdW  Elec       q    Type
REMARK                         _______ _______ _______ _____ _____    ______ ____
ROOT
ATOM      1  C   UNL     1      16.250  -1.244  52.053  0.00  0.00    +0.000 A 
ATOM      2  C   UNL     1      17.476  -1.104  52.719  0.00  0.00    +0.000 A 
ATOM      3  C   UNL     1      18.546  -0.397  52.171  0.00  0.00    +0.000 A 
ATOM      4  N   UNL     1      19.726  -0.353  52.831  0.00  0.00    +0.000 NA
ATOM      5  C   UNL     1      20.771   0.275  52.254  0.00  0.00    +0.000 A 
ATOM      6  C   UNL     1      20.619   0.964  51.056  0.00  0.00    +0.000 A 
ATOM      7  C   UNL     1      19.399   0.994  50.393  0.00  0.00    +0.000 A 
ATOM      8  C   UNL     1      18.348   0.227  50.919  0.00  0.00    +0.000 A 
ATOM      9  C   UNL     1      17.128   0.060  50.236  0.00  0.00    +0.000 A 
ATOM     10  C   UNL     1      16.089  -0.697  50.779  0.00  0.00    +0.000 A 
ENDROOT
BRANCH   5  11
ATOM     11  N   UNL     1      22.044   0.281  52.829  0.00  0.00    +0.000 N 
ATOM     12  C   UNL     1      22.605  -0.995  53.277  0.00  0.00    +0.000 C 
ATOM     13  C   UNL     1      23.810  -0.682  54.204  0.00  0.00    +0.000 C 
ATOM     14  N   UNL     1      24.865   0.206  53.643  0.00  0.00    +0.000 N 
ATOM     15  C   UNL     1      24.246   1.385  53.005  0.00  0.00    +0.000 C 
ATOM     16  C   UNL     1      23.026   1.103  52.099  0.00  0.00    +0.000 C 
ATOM     17  H   UNL     1      25.441   0.523  54.422  0.00  0.00    +0.000 HD
BRANCH  14  18
ATOM     18  C   UNL     1      25.800  -0.487  52.745  0.00  0.00    +0.000 C 
BRANCH  18  19
ATOM     19  C   UNL     1      27.202  -0.509  53.321  0.00  0.00    +0.000 A 
ATOM     20  C   UNL     1      27.664   0.555  54.106  0.00  0.00    +0.000 A 
ATOM     21  C   UNL     1      29.011   0.634  54.458  0.00  0.00    +0.000 A 
ATOM     22  C   UNL     1      29.902  -0.357  54.048  0.00  0.00    +0.000 A 
ATOM     23  C   UNL     1      29.440  -1.457  53.327  0.00  0.00    +0.000 A 
ATOM     24  C   UNL     1      28.093  -1.540  52.977  0.00  0.00    +0.000 A 
ENDBRANCH  18  19
ENDBRANCH  14  18
ENDBRANCH   5  11
BRANCH   7  25
ATOM     25  N   UNL     1      19.350   1.602  49.120  0.00  0.00    +0.000 N 
ATOM     26  H   UNL     1      20.111   2.138  48.801  0.00  0.00    +0.000 HD
ATOM     27  H   UNL     1      18.554   1.490  48.551  0.00  0.00    +0.000 HD
ENDBRANCH   7  25
BRANCH   1  29
ATOM     28  C   UNL     1      15.395  -3.373  52.654  0.00  0.00    +0.000 C 
ATOM     29  O   UNL     1      15.192  -1.967  52.557  0.00  0.00    +0.000 OA
ENDBRANCH   1  29
BRANCH  10  30
ATOM     30  O   UNL     1      14.895  -0.904  50.132  0.00  0.00    +0.000 OA
ATOM     31  C   UNL     1      14.024   0.224  50.050  0.00  0.00    +0.000 C 
ENDBRANCH  10  30
TORSDOF 6
ENDMDL
MODEL 4
REMARK VINA RESULT:    -8.126      2.639      3.885
REMARK INTER + INTRA:         -11.229
REMARK INTER:                 -11.007
REMARK INTRA:                  -0.223
REMARK UNBOUND:                -0.491
REMARK  Name = 
REMARK  8 active torsions:
REMARK  status: ('A' for Active; 'I' for Inactive)
REMARK    1  A    between atoms: C_1  and  O_2
REMARK    2  A    between atoms: O_2  and  C_3
REMARK    3  A    between atoms: C_7  and  N_8
REMARK    4  A    between atoms: N_11  and  C_12
REMARK    5  A    between atoms: C_12  and  C_13
REMARK    6  A    between atoms: C_22  and  N_23
REMARK    7  A    between atoms: C_26  and  O_27
REMARK    8  A    between atoms: O_27  and  C_28
REMARK                            x       y       z     vdW  Elec       q    Type
REMARK                         _______ _______ _______ _____ _____    ______ ____
ROOT
ATOM      1  C   UNL     1      17.094   0.226  51.396  0.00  0.00    +0.000 A 
ATOM      2  C   UNL     1      18.329   0.860  51.197  0.00  0.00    +0.000 A 
ATOM      3  C   UNL     1      19.460   0.545  51.951  0.00  0.00    +0.000 A 
ATOM      4  N   UNL     1      20.605   1.237  51.756  0.00  0.00    +0.000 NA
ATOM      5  C   UNL     1      21.669   0.967  52.542  0.00  0.00    +0.000 A 
ATOM      6  C   UNL     1      21.633  -0.076  53.461  0.00  0.00    +0.000 A 
ATOM      7  C   UNL     1      20.492  -0.849  53.629  0.00  0.00    +0.000 A 
ATOM      8  C   UNL     1      19.341  -0.483  52.913  0.00  0.00    +0.000 A 
ATOM      9  C   UNL     1      18.094  -1.097  53.136  0.00  0.00    +0.000 A 
ATOM     10  C   UNL     1      16.963  -0.728  52.408  0.00  0.00    +0.000 A 
ENDROOT
BRANCH   5  11
ATOM     11  N   UNL     1      22.854   1.703  52.467  0.00  0.00    +0.000 N 
ATOM     12  C   UNL     1      23.982   1.282  53.299  0.00  0.00    +0.000 C 
ATOM     13  C   UNL     1      25.005   2.449  53.334  0.00  0.00    +0.000 C 
ATOM     14  N   UNL     1      25.467   2.964  52.016  0.00  0.00    +0.000 N 
ATOM     15  C   UNL     1      24.311   3.175  51.123  0.00  0.00    +0.000 C 
ATOM     16  C   UNL     1      23.263   2.040  51.092  0.00  0.00    +0.000 C 
ATOM     17  H   UNL     1      25.918   3.864  52.184  0.00  0.00    +0.000 HD
BRANCH  14  18
ATOM     18  C   UNL     1      26.509   2.135  51.394  0.00  0.00    +0.000 C 
BRANCH  18  19
ATOM     19  C   UNL     1      27.315   1.387  52.438  0.00  0.00    +0.000 A 
ATOM     20  C   UNL     1      28.214   2.072  53.266  0.00  0.00    +0.000 A 
ATOM     21  C   UNL     1      29.101   1.363  54.076  0.00  0.00    +0.000 A 
ATOM     22  C   UNL     1      29.083  -0.032  54.082  0.00  0.00    +0.000 A 
ATOM     23  C   UNL     1      28.145  -0.721  53.316  0.00  0.00    +0.000 A 
ATOM     24  C   UNL     1      27.254  -0.015  52.509  0.00  0.00    +0.000 A 
ENDBRANCH  18  19
ENDBRANCH  14  18
ENDBRANCH   5  11
BRANCH   7  25
ATOM     25  N   UNL     1      20.484  -1.805  54.667  0.00  0.00    +0.000 N 
ATOM     26  H   UNL     1      19.723  -2.421  54.762  0.00  0.00    +0.000 HD
ATOM     27  H   UNL     1      21.239  -1.856  55.296  0.00  0.00    +0.000 HD
ENDBRANCH   7  25
BRANCH   1  29
ATOM     28  C   UNL     1      16.133   0.765  49.296  0.00  0.00    +0.000 C 
ATOM     29  O   UNL     1      15.955   0.545  50.692  0.00  0.00    +0.000 OA
ENDBRANCH   1  29
BRANCH  10  30
ATOM     30  O   UNL     1      15.724  -1.285  52.613  0.00  0.00    +0.000 OA
ATOM     31  C   UNL     1      15.651  -2.706  52.506  0.00  0.00    +0.000 C 
ENDBRANCH  10  30
TORSDOF 6
ENDMDL
MODEL 5
REMARK VINA RESULT:    -7.880      2.626      4.638
REMARK INTER + INTRA:         -10.904
REMARK INTER:                 -10.327
REMARK INTRA:                  -0.578
REMARK UNBOUND:                -0.491
REMARK  Name = 
REMARK  8 active torsions:
REMARK  status: ('A' for Active; 'I' for Inactive)
REMARK    1  A    between atoms: C_1  and  O_2
REMARK    2  A    between atoms: O_2  and  C_3
REMARK    3  A    between atoms: C_7  and  N_8
REMARK    4  A    between atoms: N_11  and  C_12
REMARK    5  A    between atoms: C_12  and  C_13
REMARK    6  A    between atoms: C_22  and  N_23
REMARK    7  A    between atoms: C_26  and  O_27
REMARK    8  A    between atoms: O_27  and  C_28
REMARK                            x       y       z     vdW  Elec       q    Type
REMARK                         _______ _______ _______ _____ _____    ______ ____
ROOT
ATOM      1  C   UNL     1      17.661  -0.920  52.372  0.00  0.00    +0.000 A 
ATOM      2  C   UNL     1      18.884  -0.349  52.751  0.00  0.00    +0.000 A 
ATOM      3  C   UNL     1      19.574   0.546  51.935  0.00  0.00    +0.000 A 
ATOM      4  N   UNL     1      20.782   1.012  52.328  0.00  0.00    +0.000 NA
ATOM      5  C   UNL     1      21.468   1.822  51.495  0.00  0.00    +0.000 A 
ATOM      6  C   UNL     1      20.905   2.265  50.303  0.00  0.00    +0.000 A 
ATOM      7  C   UNL     1      19.637   1.858  49.911  0.00  0.00    +0.000 A 
ATOM      8  C   UNL     1      18.978   0.908  50.707  0.00  0.00    +0.000 A 
ATOM      9  C   UNL     1      17.766   0.310  50.311  0.00  0.00    +0.000 A 
ATOM     10  C   UNL     1      17.119  -0.625  51.119  0.00  0.00    +0.000 A 
ENDROOT
BRANCH   5  11
ATOM     11  N   UNL     1      22.760   2.266  51.787  0.00  0.00    +0.000 N 
ATOM     12  C   UNL     1      23.594   1.438  52.659  0.00  0.00    +0.000 C 
ATOM     13  C   UNL     1      24.790   2.308  53.135  0.00  0.00    +0.000 C 
ATOM     14  N   UNL     1      25.600   2.959  52.070  0.00  0.00    +0.000 N 
ATOM     15  C   UNL     1      24.711   3.606  51.083  0.00  0.00    +0.000 C 
ATOM     16  C   UNL     1      23.498   2.772  50.615  0.00  0.00    +0.000 C 
ATOM     17  H   UNL     1      26.168   3.678  52.517  0.00  0.00    +0.000 HD
BRANCH  14  18
ATOM     18  C   UNL     1      26.572   2.056  51.437  0.00  0.00    +0.000 C 
BRANCH  18  19
ATOM     19  C   UNL     1      27.501   1.440  52.465  0.00  0.00    +0.000 A 
ATOM     20  C   UNL     1      27.441   0.068  52.743  0.00  0.00    +0.000 A 
ATOM     21  C   UNL     1      28.144  -0.458  53.827  0.00  0.00    +0.000 A 
ATOM     22  C   UNL     1      28.925   0.374  54.627  0.00  0.00    +0.000 A 
ATOM     23  C   UNL     1      29.049   1.727  54.316  0.00  0.00    +0.000 A 
ATOM     24  C   UNL     1      28.351   2.255  53.231  0.00  0.00    +0.000 A 
ENDBRANCH  18  19
ENDBRANCH  14  18
ENDBRANCH   5  11
BRANCH   7  25
ATOM     25  N   UNL     1      19.182   2.242  48.631  0.00  0.00    +0.000 N 
ATOM     26  H   UNL     1      19.621   1.886  47.825  0.00  0.00    +0.000 HD
ATOM     27  H   UNL     1      18.427   2.868  48.544  0.00  0.00    +0.000 HD
ENDBRANCH   7  25
BRANCH   1  29
ATOM     28  C   UNL     1      17.754  -2.912  53.657  0.00  0.00    +0.000 C 
ATOM     29  O   UNL     1      16.978  -1.834  53.144  0.00  0.00    +0.000 OA
ENDBRANCH   1  29
BRANCH  10  30
ATOM     30  O   UNL     1      15.950  -1.248  50.757  0.00  0.00    +0.000 OA
ATOM     31  C   UNL     1      15.558  -1.099  49.394  0.00  0.00    +0.000 C 
ENDBRANCH  10  30
TORSDOF 6
ENDMDL
MODEL 6
REMARK VINA RESULT:    -7.616      4.386     10.359
REMARK INTER + INTRA:         -10.555
REMARK INTER:                  -9.969
REMARK INTRA:                  -0.586
REMARK UNBOUND:                -0.491
REMARK  Name = 
REMARK  8 active torsions:
REMARK  status: ('A' for Active; 'I' for Inactive)
REMARK    1  A    between atoms: C_1  and  O_2
REMARK    2  A    between atoms: O_2  and  C_3
REMARK    3  A    between atoms: C_7  and  N_8
REMARK    4  A    between atoms: N_11  and  C_12
REMARK    5  A    between atoms: C_12  and  C_13
REMARK    6  A    between atoms: C_22  and  N_23
REMARK    7  A    between atoms: C_26  and  O_27
REMARK    8  A    between atoms: O_27  and  C_28
REMARK                            x       y       z     vdW  Elec       q    Type
REMARK                         _______ _______ _______ _____ _____    ______ ____
ROOT
ATOM      1  C   UNL     1      26.288   9.111  48.209  0.00  0.00    +0.000 A 
ATOM      2  C   UNL     1      25.615   8.073  48.869  0.00  0.00    +0.000 A 
ATOM      3  C   UNL     1      26.148   6.789  48.978  0.00  0.00    +0.000 A 
ATOM      4  N   UNL     1      25.422   5.812  49.568  0.00  0.00    +0.000 NA
ATOM      5  C   UNL     1      25.924   4.560  49.603  0.00  0.00    +0.000 A 
ATOM      6  C   UNL     1      27.209   4.291  49.143  0.00  0.00    +0.000 A 
ATOM      7  C   UNL     1      28.002   5.291  48.598  0.00  0.00    +0.000 A 
ATOM      8  C   UNL     1      27.433   6.564  48.434  0.00  0.00    +0.000 A 
ATOM      9  C   UNL     1      28.095   7.597  47.744  0.00  0.00    +0.000 A 
ATOM     10  C   UNL     1      27.519   8.859  47.600  0.00  0.00    +0.000 A 
ENDROOT
BRANCH   5  11
ATOM     11  N   UNL     1      25.195   3.481  50.108  0.00  0.00    +0.000 N 
ATOM     12  C   UNL     1      25.590   2.926  51.404  0.00  0.00    +0.000 C 
ATOM     13  C   UNL     1      24.908   1.540  51.552  0.00  0.00    +0.000 C 
ATOM     14  N   UNL     1      23.430   1.506  51.377  0.00  0.00    +0.000 N 
ATOM     15  C   UNL     1      23.047   2.263  50.169  0.00  0.00    +0.000 C 
ATOM     16  C   UNL     1      23.734   3.635  49.982  0.00  0.00    +0.000 C 
ATOM     17  H   UNL     1      23.162   0.531  51.249  0.00  0.00    +0.000 HD
BRANCH  14  18
ATOM     18  C   UNL     1      22.688   1.944  52.568  0.00  0.00    +0.000 C 
BRANCH  18  19
ATOM     19  C   UNL     1      22.019   0.773  53.261  0.00  0.00    +0.000 A 
ATOM     20  C   UNL     1      22.786  -0.182  53.940  0.00  0.00    +0.000 A 
ATOM     21  C   UNL     1      22.195  -1.361  54.396  0.00  0.00    +0.000 A 
ATOM     22  C   UNL     1      20.834  -1.586  54.196  0.00  0.00    +0.000 A 
ATOM     23  C   UNL     1      20.047  -0.610  53.585  0.00  0.00    +0.000 A 
ATOM     24  C   UNL     1      20.634   0.570  53.133  0.00  0.00    +0.000 A 
ENDBRANCH  18  19
ENDBRANCH  14  18
ENDBRANCH   5  11
BRANCH   7  25
ATOM     25  N   UNL     1      29.243   4.922  48.035  0.00  0.00    +0.000 N 
ATOM     26  H   UNL     1      30.076   5.314  48.383  0.00  0.00    +0.000 HD
ATOM     27  H   UNL     1      29.275   4.274  47.295  0.00  0.00    +0.000 HD
ENDBRANCH   7  25
BRANCH   1  29
ATOM     28  C   UNL     1      24.427  10.439  47.578  0.00  0.00    +0.000 C 
ATOM     29  O   UNL     1      25.766  10.376  48.056  0.00  0.00    +0.000 OA
ENDBRANCH   1  29
BRANCH  10  30
ATOM     30  O   UNL     1      28.121   9.885  46.913  0.00  0.00    +0.000 OA
ATOM     31  C   UNL     1      29.320  10.404  47.487  0.00  0.00    +0.000 C 
ENDBRANCH  10  30
TORSDOF 6
ENDMDL
MODEL 7
REMARK VINA RESULT:    -7.506      3.763      9.511
REMARK INTER + INTRA:         -10.410
REMARK INTER:                  -9.822
REMARK INTRA:                  -0.588
REMARK UNBOUND:                -0.491
REMARK  Name = 
REMARK  8 active torsions:
REMARK  status: ('A' for Active; 'I' for Inactive)
REMARK    1  A    between atoms: C_1  and  O_2
REMARK    2  A    between atoms: O_2  and  C_3
REMARK    3  A    between atoms: C_7  and  N_8
REMARK    4  A    between atoms: N_11  and  C_12
REMARK    5  A    between atoms: C_12  and  C_13
REMARK    6  A    between atoms: C_22  and  N_23
REMARK    7  A    between atoms: C_26  and  O_27
REMARK    8  A    between atoms: O_27  and  C_28
REMARK                            x       y       z     vdW  Elec       q    Type
REMARK                         _______ _______ _______ _____ _____    ______ ____
ROOT
ATOM      1  C   UNL     1      25.886   1.117  52.651  0.00  0.00    +0.000 A 
ATOM      2  C   UNL     1      24.553   1.161  52.219  0.00  0.00    +0.000 A 
ATOM      3  C   UNL     1      23.539   0.439  52.849  0.00  0.00    +0.000 A 
ATOM      4  N   UNL     1      22.285   0.471  52.345  0.00  0.00    +0.000 NA
ATOM      5  C   UNL     1      21.332  -0.288  52.926  0.00  0.00    +0.000 A 
ATOM      6  C   UNL     1      21.597  -1.005  54.087  0.00  0.00    +0.000 A 
ATOM      7  C   UNL     1      22.859  -0.996  54.666  0.00  0.00    +0.000 A 
ATOM      8  C   UNL     1      23.887  -0.321  53.989  0.00  0.00    +0.000 A 
ATOM      9  C   UNL     1      25.231  -0.391  54.404  0.00  0.00    +0.000 A 
ATOM     10  C   UNL     1      26.237   0.296  53.725  0.00  0.00    +0.000 A 
ENDROOT
BRANCH   5  11
ATOM     11  N   UNL     1      20.039  -0.383  52.406  0.00  0.00    +0.000 N 
ATOM     12  C   UNL     1      18.948  -0.717  53.324  0.00  0.00    +0.000 C 
ATOM     13  C   UNL     1      17.723  -1.139  52.469  0.00  0.00    +0.000 C 
ATOM     14  N   UNL     1      17.277  -0.173  51.428  0.00  0.00    +0.000 N 
ATOM     15  C   UNL     1      18.440   0.310  50.657  0.00  0.00    +0.000 C 
ATOM     16  C   UNL     1      19.683   0.710  51.483  0.00  0.00    +0.000 C 
ATOM     17  H   UNL     1      16.653  -0.674  50.797  0.00  0.00    +0.000 HD
BRANCH  14  18
ATOM     18  C   UNL     1      16.464   0.929  51.961  0.00  0.00    +0.000 C 
BRANCH  18  19
ATOM     19  C   UNL     1      15.003   0.536  52.062  0.00  0.00    +0.000 A 
ATOM     20  C   UNL     1      14.278   0.795  53.233  0.00  0.00    +0.000 A 
ATOM     21  C   UNL     1      13.005   0.251  53.404  0.00  0.00    +0.000 A 
ATOM     22  C   UNL     1      12.438  -0.535  52.401  0.00  0.00    +0.000 A 
ATOM     23  C   UNL     1      13.121  -0.739  51.203  0.00  0.00    +0.000 A 
ATOM     24  C   UNL     1      14.392  -0.193  51.028  0.00  0.00    +0.000 A 
ENDBRANCH  18  19
ENDBRANCH  14  18
ENDBRANCH   5  11
BRANCH   7  25
ATOM     25  N   UNL     1      23.091  -1.847  55.768  0.00  0.00    +0.000 N 
ATOM     26  H   UNL     1      22.339  -2.131  56.336  0.00  0.00    +0.000 HD
ATOM     27  H   UNL     1      24.003  -2.155  55.970  0.00  0.00    +0.000 HD
ENDBRANCH   7  25
BRANCH   1  29
ATOM     28  C   UNL     1      26.519   2.682  50.985  0.00  0.00    +0.000 C 
ATOM     29  O   UNL     1      26.910   1.790  52.023  0.00  0.00    +0.000 OA
ENDBRANCH   1  29
BRANCH  10  30
ATOM     30  O   UNL     1      27.561   0.232  54.084  0.00  0.00    +0.000 OA
ATOM     31  C   UNL     1      28.312  -0.842  53.519  0.00  0.00    +0.000 C 
ENDBRANCH  10  30
TORSDOF 6
ENDMDL
MODEL 8
REMARK VINA RESULT:    -7.454      3.668      9.017
REMARK INTER + INTRA:         -10.341
REMARK INTER:                  -9.732
REMARK INTRA:                  -0.609
REMARK UNBOUND:                -0.491
REMARK  Name = 
REMARK  8 active torsions:
REMARK  status: ('A' for Active; 'I' for Inactive)
REMARK    1  A    between atoms: C_1  and  O_2
REMARK    2  A    between atoms: O_2  and  C_3
REMARK    3  A    between atoms: C_7  and  N_8
REMARK    4  A    between atoms: N_11  and  C_12
REMARK    5  A    between atoms: C_12  and  C_13
REMARK    6  A    between atoms: C_22  and  N_23
REMARK    7  A    between atoms: C_26  and  O_27
REMARK    8  A    between atoms: O_27  and  C_28
REMARK                            x       y       z     vdW  Elec       q    Type
REMARK                         _______ _______ _______ _____ _____    ______ ____
ROOT
ATOM      1  C   UNL     1      25.439   0.949  52.204  0.00  0.00    +0.000 A 
ATOM      2  C   UNL     1      24.157   1.328  51.780  0.00  0.00    +0.000 A 
ATOM      3  C   UNL     1      22.997   0.785  52.332  0.00  0.00    +0.000 A 
ATOM      4  N   UNL     1      21.791   1.143  51.835  0.00  0.00    +0.000 NA
ATOM      5  C   UNL     1      20.683   0.555  52.333  0.00  0.00    +0.000 A 
ATOM      6  C   UNL     1      20.761  -0.320  53.411  0.00  0.00    +0.000 A 
ATOM      7  C   UNL     1      21.981  -0.648  53.985  0.00  0.00    +0.000 A 
ATOM      8  C   UNL     1      23.146  -0.147  53.383  0.00  0.00    +0.000 A 
ATOM      9  C   UNL     1      24.432  -0.554  53.786  0.00  0.00    +0.000 A 
ATOM     10  C   UNL     1      25.579  -0.037  53.184  0.00  0.00    +0.000 A 
ENDROOT
BRANCH   5  11
ATOM     11  N   UNL     1      19.412   0.801  51.808  0.00  0.00    +0.000 N 
ATOM     12  C   UNL     1      18.414  -0.267  51.888  0.00  0.00    +0.000 C 
ATOM     13  C   UNL     1      17.256   0.094  50.919  0.00  0.00    +0.000 C 
ATOM     14  N   UNL     1      16.633   1.433  51.102  0.00  0.00    +0.000 N 
ATOM     15  C   UNL     1      17.681   2.465  51.233  0.00  0.00    +0.000 C 
ATOM     16  C   UNL     1      18.860   2.118  52.170  0.00  0.00    +0.000 C 
ATOM     17  H   UNL     1      16.086   1.630  50.264  0.00  0.00    +0.000 HD
BRANCH  14  18
ATOM     18  C   UNL     1      15.660   1.483  52.202  0.00  0.00    +0.000 C 
BRANCH  18  19
ATOM     19  C   UNL     1      14.695   2.641  52.033  0.00  0.00    +0.000 A 
ATOM     20  C   UNL     1      14.332   3.429  53.133  0.00  0.00    +0.000 A 
ATOM     21  C   UNL     1      13.294   4.353  53.020  0.00  0.00    +0.000 A 
ATOM     22  C   UNL     1      12.626   4.513  51.807  0.00  0.00    +0.000 A 
ATOM     23  C   UNL     1      13.027   3.786  50.688  0.00  0.00    +0.000 A 
ATOM     24  C   UNL     1      14.067   2.864  50.796  0.00  0.00    +0.000 A 
ENDBRANCH  18  19
ENDBRANCH  14  18
ENDBRANCH   5  11
BRANCH   7  25
ATOM     25  N   UNL     1      21.997  -1.640  54.990  0.00  0.00    +0.000 N 
ATOM     26  H   UNL     1      21.902  -2.588  54.747  0.00  0.00    +0.000 HD
ATOM     27  H   UNL     1      22.101  -1.382  55.934  0.00  0.00    +0.000 HD
ENDBRANCH   7  25
BRANCH   1  29
ATOM     28  C   UNL     1      26.480   2.692  50.977  0.00  0.00    +0.000 C 
ATOM     29  O   UNL     1      26.599   1.443  51.650  0.00  0.00    +0.000 OA
ENDBRANCH   1  29
BRANCH  10  30
ATOM     30  O   UNL     1      26.849  -0.426  53.532  0.00  0.00    +0.000 OA
ATOM     31  C   UNL     1      27.339   0.074  54.775  0.00  0.00    +0.000 C 
ENDBRANCH  10  30
TORSDOF 6
ENDMDL
MODEL 9
REMARK VINA RESULT:    -7.426      1.713      2.470
REMARK INTER + INTRA:         -10.304
REMARK INTER:                  -9.695
REMARK INTRA:                  -0.609
REMARK UNBOUND:                -0.491
REMARK  Name = 
REMARK  8 active torsions:
REMARK  status: ('A' for Active; 'I' for Inactive)
REMARK    1  A    between atoms: C_1  and  O_2
REMARK    2  A    between atoms: O_2  and  C_3
REMARK    3  A    between atoms: C_7  and  N_8
REMARK    4  A    between atoms: N_11  and  C_12
REMARK    5  A    between atoms: C_12  and  C_13
REMARK    6  A    between atoms: C_22  and  N_23
REMARK    7  A    between atoms: C_26  and  O_27
REMARK    8  A    between atoms: O_27  and  C_28
REMARK                            x       y       z     vdW  Elec       q    Type
REMARK                         _______ _______ _______ _____ _____    ______ ____
ROOT
ATOM      1  C   UNL     1      16.347  -0.726  51.017  0.00  0.00    +0.000 A 
ATOM      2  C   UNL     1      17.358   0.146  50.587  0.00  0.00    +0.000 A 
ATOM      3  C   UNL     1      18.534   0.340  51.312  0.00  0.00    +0.000 A 
ATOM      4  N   UNL     1      19.443   1.243  50.879  0.00  0.00    +0.000 NA
ATOM      5  C   UNL     1      20.542   1.469  51.629  0.00  0.00    +0.000 A 
ATOM      6  C   UNL     1      20.799   0.713  52.767  0.00  0.00    +0.000 A 
ATOM      7  C   UNL     1      19.917  -0.270  53.193  0.00  0.00    +0.000 A 
ATOM      8  C   UNL     1      18.707  -0.413  52.495  0.00  0.00    +0.000 A 
ATOM      9  C   UNL     1      17.679  -1.264  52.944  0.00  0.00    +0.000 A 
ATOM     10  C   UNL     1      16.488  -1.401  52.231  0.00  0.00    +0.000 A 
ENDROOT
BRANCH   5  11
ATOM     11  N   UNL     1      21.477   2.453  51.299  0.00  0.00    +0.000 N 
ATOM     12  C   UNL     1      22.555   2.729  52.251  0.00  0.00    +0.000 C 
ATOM     13  C   UNL     1      23.202   4.082  51.853  0.00  0.00    +0.000 C 
ATOM     14  N   UNL     1      23.677   4.202  50.448  0.00  0.00    +0.000 N 
ATOM     15  C   UNL     1      22.639   3.711  49.520  0.00  0.00    +0.000 C 
ATOM     16  C   UNL     1      21.959   2.379  49.908  0.00  0.00    +0.000 C 
ATOM     17  H   UNL     1      23.836   5.192  50.265  0.00  0.00    +0.000 HD
BRANCH  14  18
ATOM     18  C   UNL     1      24.982   3.566  50.213  0.00  0.00    +0.000 C 
BRANCH  18  19
ATOM     19  C   UNL     1      25.902   4.473  49.421  0.00  0.00    +0.000 A 
ATOM     20  C   UNL     1      27.194   4.050  49.079  0.00  0.00    +0.000 A 
ATOM     21  C   UNL     1      28.107   4.955  48.537  0.00  0.00    +0.000 A 
ATOM     22  C   UNL     1      27.733   6.280  48.313  0.00  0.00    +0.000 A 
ATOM     23  C   UNL     1      26.429   6.693  48.583  0.00  0.00    +0.000 A 
ATOM     24  C   UNL     1      25.513   5.790  49.121  0.00  0.00    +0.000 A 
ENDBRANCH  18  19
ENDBRANCH  14  18
ENDBRANCH   5  11
BRANCH   7  25
ATOM     25  N   UNL     1      20.177  -0.908  54.425  0.00  0.00    +0.000 N 
ATOM     26  H   UNL     1      19.580  -0.756  55.193  0.00  0.00    +0.000 HD
ATOM     27  H   UNL     1      20.955  -1.504  54.517  0.00  0.00    +0.000 HD
ENDBRANCH   7  25
BRANCH   1  29
ATOM     28  C   UNL     1      15.256  -1.614  49.108  0.00  0.00    +0.000 C 
ATOM     29  O   UNL     1      15.162  -0.906  50.339  0.00  0.00    +0.000 OA
ENDBRANCH   1  29
BRANCH  10  30
ATOM     30  O   UNL     1      15.452  -2.201  52.649  0.00  0.00    +0.000 OA
ATOM     31  C   UNL     1      15.722  -3.601  52.695  0.00  0.00    +0.000 C 
ENDBRANCH  10  30
TORSDOF 6
ENDMDL
