MODEL 1
REMARK VINA RESULT:    -8.695      0.000      0.000
REMARK INTER + INTRA:         -14.166
REMARK INTER:                 -12.761
REMARK INTRA:                  -1.405
REMARK UNBOUND:                -1.405
REMARK  Name = 
REMARK  9 active torsions:
REMARK  status: ('A' for Active; 'I' for Inactive)
REMARK    1  A    between atoms: C_1  and  C_2
REMARK    2  A    between atoms: C_2  and  C_3
REMARK    3  A    between atoms: C_3  and  C_4
REMARK    4  A    between atoms: C_4  and  C_5
REMARK    5  A    between atoms: C_5  and  C_15
REMARK    6  A    between atoms: C_6  and  C_7
REMARK    7  A    between atoms: C_7  and  N_8
REMARK    8  A    between atoms: C_19  and  O_20
REMARK    9  A    between atoms: O_20  and  C_21
REMARK                            x       y       z     vdW  Elec       q    Type
REMARK                         _______ _______ _______ _____ _____    ______ ____
ROOT
ATOM      1  C   UNL     1      23.183   0.963  51.990  0.00  0.00    +0.000 C 
ATOM      2  C   UNL     1      24.388   0.656  52.526  0.00  0.00    +0.000 C 
ENDROOT
BRANCH   1   3
ATOM      3  C   UNL     1      23.132   2.023  50.926  0.00  0.00    +0.000 A 
ATOM      4  C   UNL     1      22.325   1.861  49.788  0.00  0.00    +0.000 A 
ATOM      5  C   UNL     1      22.424   2.724  48.696  0.00  0.00    +0.000 A 
ATOM      6  C   UNL     1      23.287   3.808  48.745  0.00  0.00    +0.000 A 
ATOM      7  C   UNL     1      23.929   4.121  49.942  0.00  0.00    +0.000 A 
ATOM      8  C   UNL     1      23.905   3.202  51.001  0.00  0.00    +0.000 A 
BRANCH   7   9
ATOM      9  O   UNL     1      24.610   5.307  50.138  0.00  0.00    +0.000 OA
BRANCH   9  10
ATOM     10  C   UNL     1      25.774   5.532  49.423  0.00  0.00    +0.000 A 
ATOM     11  C   UNL     1      26.752   4.560  49.174  0.00  0.00    +0.000 A 
ATOM     12  C   UNL     1      27.956   4.905  48.559  0.00  0.00    +0.000 A 
ATOM     13  C   UNL     1      28.156   6.208  48.111  0.00  0.00    +0.000 A 
ATOM     14  C   UNL     1      27.144   7.158  48.263  0.00  0.00    +0.000 A 
ATOM     15  C   UNL     1      25.957   6.822  48.920  0.00  0.00    +0.000 A 
ENDBRANCH   9  10
ENDBRANCH   7   9
ENDBRANCH   1   3
BRANCH   1  16
ATOM     16  C   UNL     1      21.938   0.142  52.288  0.00  0.00    +0.000 C 
BRANCH  16  17
ATOM     17  C   UNL     1      21.068   0.635  53.455  0.00  0.00    +0.000 C 
BRANCH  17  19
ATOM     18  C   UNL     1      21.416  -1.674  54.409  0.00  0.00    +0.000 C 
ATOM     19  C   UNL     1      21.205  -0.200  54.728  0.00  0.00    +0.000 C 
ENDBRANCH  17  19
ENDBRANCH  16  17
ENDBRANCH   1  16
BRANCH   2  20
ATOM     20  C   UNL     1      24.705  -0.389  53.556  0.00  0.00    +0.000 C 
BRANCH  20  21
ATOM     21  N   UNL     1      26.139  -0.533  53.667  0.00  0.00    +0.000 N 
ATOM     22  O   UNL     1      26.864   0.318  54.535  0.00  0.00    +0.000 OA
ATOM     23  C   UNL     1      28.178  -0.061  54.418  0.00  0.00    +0.000 A 
ATOM     24  O   UNL     1      29.113   0.463  54.993  0.00  0.00    +0.000 OA
ATOM     25  N   UNL     1      28.263  -1.093  53.559  0.00  0.00    +0.000 N 
ATOM     26  C   UNL     1      27.026  -1.400  53.089  0.00  0.00    +0.000 A 
ATOM     27  O   UNL     1      26.778  -2.289  52.286  0.00  0.00    +0.000 OA
ATOM     28  H   UNL     1      29.095  -1.556  53.309  0.00  0.00    +0.000 HD
ENDBRANCH  20  21
ENDBRANCH   2  20
TORSDOF 8
ENDMDL
MODEL 2
REMARK VINA RESULT:    -8.656      1.366      2.002
REMARK INTER + INTRA:         -14.110
REMARK INTER:                 -12.772
REMARK INTRA:                  -1.338
REMARK UNBOUND:                -1.405
REMARK  Name = 
REMARK  9 active torsions:
REMARK  status: ('A' for Active; 'I' for Inactive)
REMARK    1  A    between atoms: C_1  and  C_2
REMARK    2  A    between atoms: C_2  and  C_3
REMARK    3  A    between atoms: C_3  and  C_4
REMARK    4  A    between atoms: C_4  and  C_5
REMARK    5  A    between atoms: C_5  and  C_15
REMARK    6  A    between atoms: C_6  and  C_7
REMARK    7  A    between atoms: C_7  and  N_8
REMARK    8  A    between atoms: C_19  and  O_20
REMARK    9  A    between atoms: O_20  and  C_21
REMARK                            x       y       z     vdW  Elec       q    Type
REMARK                         _______ _______ _______ _____ _____    ______ ____
ROOT
ATOM      1  C   UNL     1      24.419   0.703  53.119  0.00  0.00    +0.000 C 
ATOM      2  C   UNL     1      25.545   1.164  53.713  0.00  0.00    +0.000 C 
ENDROOT
BRANCH   1   3
ATOM      3  C   UNL     1      23.799   1.539  52.036  0.00  0.00    +0.000 A 
ATOM      4  C   UNL     1      22.746   1.036  51.253  0.00  0.00    +0.000 A 
ATOM      5  C   UNL     1      22.303   1.705  50.111  0.00  0.00    +0.000 A 
ATOM      6  C   UNL     1      22.858   2.927  49.765  0.00  0.00    +0.000 A 
ATOM      7  C   UNL     1      23.741   3.554  50.642  0.00  0.00    +0.000 A 
ATOM      8  C   UNL     1      24.257   2.839  51.733  0.00  0.00    +0.000 A 
BRANCH   7   9
ATOM      9  O   UNL     1      24.150   4.865  50.484  0.00  0.00    +0.000 OA
BRANCH   9  10
ATOM     10  C   UNL     1      25.297   5.120  49.752  0.00  0.00    +0.000 A 
ATOM     11  C   UNL     1      26.303   4.178  49.500  0.00  0.00    +0.000 A 
ATOM     12  C   UNL     1      27.488   4.556  48.867  0.00  0.00    +0.000 A 
ATOM     13  C   UNL     1      27.640   5.860  48.405  0.00  0.00    +0.000 A 
ATOM     14  C   UNL     1      26.600   6.778  48.561  0.00  0.00    +0.000 A 
ATOM     15  C   UNL     1      25.432   6.411  49.236  0.00  0.00    +0.000 A 
ENDBRANCH   9  10
ENDBRANCH   7   9
ENDBRANCH   1   3
BRANCH   1  16
ATOM     16  C   UNL     1      23.891  -0.700  53.377  0.00  0.00    +0.000 C 
BRANCH  16  17
ATOM     17  C   UNL     1      22.960  -0.857  54.589  0.00  0.00    +0.000 C 
BRANCH  17  19
ATOM     18  C   UNL     1      20.774   0.361  54.281  0.00  0.00    +0.000 C 
ATOM     19  C   UNL     1      21.482  -0.986  54.224  0.00  0.00    +0.000 C 
ENDBRANCH  17  19
ENDBRANCH  16  17
ENDBRANCH   1  16
BRANCH   2  20
ATOM     20  C   UNL     1      26.373   0.498  54.775  0.00  0.00    +0.000 C 
BRANCH  20  21
ATOM     21  N   UNL     1      27.751   0.441  54.342  0.00  0.00    +0.000 N 
ATOM     22  O   UNL     1      28.411  -0.808  54.269  0.00  0.00    +0.000 OA
ATOM     23  C   UNL     1      29.684  -0.533  53.834  0.00  0.00    +0.000 A 
ATOM     24  O   UNL     1      30.564  -1.357  53.676  0.00  0.00    +0.000 OA
ATOM     25  N   UNL     1      29.800   0.791  53.624  0.00  0.00    +0.000 N 
ATOM     26  C   UNL     1      28.628   1.406  53.927  0.00  0.00    +0.000 A 
ATOM     27  O   UNL     1      28.422   2.610  53.844  0.00  0.00    +0.000 OA
ATOM     28  H   UNL     1      30.611   1.245  53.300  0.00  0.00    +0.000 HD
ENDBRANCH  20  21
ENDBRANCH   2  20
TORSDOF 8
ENDMDL
MODEL 3
REMARK VINA RESULT:    -8.205      1.330      2.006
REMARK INTER + INTRA:         -13.447
REMARK INTER:                 -12.034
REMARK INTRA:                  -1.413
REMARK UNBOUND:                -1.405
REMARK  Name = 
REMARK  9 active torsions:
REMARK  status: ('A' for Active; 'I' for Inactive)
REMARK    1  A    between atoms: C_1  and  C_2
REMARK    2  A    between atoms: C_2  and  C_3
REMARK    3  A    between atoms: C_3  and  C_4
REMARK    4  A    between atoms: C_4  and  C_5
REMARK    5  A    between atoms: C_5  and  C_15
REMARK    6  A    between atoms: C_6  and  C_7
REMARK    7  A    between atoms: C_7  and  N_8
REMARK    8  A    between atoms: C_19  and  O_20
REMARK    9  A    between atoms: O_20  and  C_21
REMARK                            x       y       z     vdW  Elec       q    Type
REMARK                         _______ _______ _______ _____ _____    ______ ____
ROOT
ATOM      1  C   UNL     1      24.652   1.560  53.167  0.00  0.00    +0.000 C 
ATOM      2  C   UNL     1      25.737   1.473  53.972  0.00  0.00    +0.000 C 
ENDROOT
BRANCH   1   3
ATOM      3  C   UNL     1      24.427   2.844  52.422  0.00  0.00    +0.000 A 
ATOM      4  C   UNL     1      23.822   3.945  53.051  0.00  0.00    +0.000 A 
ATOM      5  C   UNL     1      23.411   5.064  52.325  0.00  0.00    +0.000 A 
ATOM      6  C   UNL     1      23.657   5.135  50.963  0.00  0.00    +0.000 A 
ATOM      7  C   UNL     1      24.451   4.164  50.357  0.00  0.00    +0.000 A 
ATOM      8  C   UNL     1      24.777   2.997  51.062  0.00  0.00    +0.000 A 
BRANCH   7   9
ATOM      9  O   UNL     1      24.935   4.289  49.068  0.00  0.00    +0.000 OA
BRANCH   9  10
ATOM     10  C   UNL     1      26.023   5.116  48.843  0.00  0.00    +0.000 A 
ATOM     11  C   UNL     1      25.939   6.501  48.652  0.00  0.00    +0.000 A 
ATOM     12  C   UNL     1      27.071   7.239  48.299  0.00  0.00    +0.000 A 
ATOM     13  C   UNL     1      28.310   6.609  48.220  0.00  0.00    +0.000 A 
ATOM     14  C   UNL     1      28.418   5.248  48.510  0.00  0.00    +0.000 A 
ATOM     15  C   UNL     1      27.277   4.502  48.819  0.00  0.00    +0.000 A 
ENDBRANCH   9  10
ENDBRANCH   7   9
ENDBRANCH   1   3
BRANCH   1  16
ATOM     16  C   UNL     1      23.786   0.350  52.853  0.00  0.00    +0.000 C 
BRANCH  16  17
ATOM     17  C   UNL     1      22.310   0.451  53.267  0.00  0.00    +0.000 C 
BRANCH  17  19
ATOM     18  C   UNL     1      21.484  -1.710  54.271  0.00  0.00    +0.000 C 
ATOM     19  C   UNL     1      21.974  -0.297  54.557  0.00  0.00    +0.000 C 
ENDBRANCH  17  19
ENDBRANCH  16  17
ENDBRANCH   1  16
BRANCH   2  20
ATOM     20  C   UNL     1      26.203   0.293  54.776  0.00  0.00    +0.000 C 
BRANCH  20  21
ATOM     21  N   UNL     1      27.379  -0.275  54.155  0.00  0.00    +0.000 N 
ATOM     22  O   UNL     1      28.663   0.172  54.547  0.00  0.00    +0.000 OA
ATOM     23  C   UNL     1      29.555  -0.545  53.788  0.00  0.00    +0.000 A 
ATOM     24  O   UNL     1      30.764  -0.418  53.821  0.00  0.00    +0.000 OA
ATOM     25  N   UNL     1      28.875  -1.397  52.999  0.00  0.00    +0.000 N 
ATOM     26  C   UNL     1      27.543  -1.250  53.210  0.00  0.00    +0.000 A 
ATOM     27  O   UNL     1      26.665  -1.882  52.636  0.00  0.00    +0.000 OA
ATOM     28  H   UNL     1      29.283  -2.032  52.367  0.00  0.00    +0.000 HD
ENDBRANCH  20  21
ENDBRANCH   2  20
TORSDOF 8
ENDMDL
MODEL 4
REMARK VINA RESULT:    -8.018      2.903      5.834
REMARK INTER + INTRA:         -13.173
REMARK INTER:                 -11.519
REMARK INTRA:                  -1.654
REMARK UNBOUND:                -1.405
REMARK  Name = 
REMARK  9 active torsions:
REMARK  status: ('A' for Active; 'I' for Inactive)
REMARK    1  A    between atoms: C_1  and  C_2
REMARK    2  A    between atoms: C_2  and  C_3
REMARK    3  A    between atoms: C_3  and  C_4
REMARK    4  A    between atoms: C_4  and  C_5
REMARK    5  A    between atoms: C_5  and  C_15
REMARK    6  A    between atoms: C_6  and  C_7
REMARK    7  A    between atoms: C_7  and  N_8
REMARK    8  A    between atoms: C_19  and  O_20
REMARK    9  A    between atoms: O_20  and  C_21
REMARK                            x       y       z     vdW  Elec       q    Type
REMARK                         _______ _______ _______ _____ _____    ______ ____
ROOT
ATOM      1  C   UNL     1      22.282   2.711  50.956  0.00  0.00    +0.000 C 
ATOM      2  C   UNL     1      21.945   2.323  52.208  0.00  0.00    +0.000 C 
ENDROOT
BRANCH   1   3
ATOM      3  C   UNL     1      23.693   3.164  50.712  0.00  0.00    +0.000 A 
ATOM      4  C   UNL     1      23.960   4.291  49.918  0.00  0.00    +0.000 A 
ATOM      5  C   UNL     1      25.257   4.601  49.505  0.00  0.00    +0.000 A 
ATOM      6  C   UNL     1      26.324   3.827  49.933  0.00  0.00    +0.000 A 
ATOM      7  C   UNL     1      26.116   2.844  50.898  0.00  0.00    +0.000 A 
ATOM      8  C   UNL     1      24.807   2.471  51.235  0.00  0.00    +0.000 A 
BRANCH   7   9
ATOM      9  O   UNL     1      27.153   2.198  51.545  0.00  0.00    +0.000 OA
BRANCH   9  10
ATOM     10  C   UNL     1      26.854   1.151  52.400  0.00  0.00    +0.000 A 
ATOM     11  C   UNL     1      26.728  -0.187  52.002  0.00  0.00    +0.000 A 
ATOM     12  C   UNL     1      26.295  -1.158  52.905  0.00  0.00    +0.000 A 
ATOM     13  C   UNL     1      26.066  -0.815  54.234  0.00  0.00    +0.000 A 
ATOM     14  C   UNL     1      26.287   0.495  54.662  0.00  0.00    +0.000 A 
ATOM     15  C   UNL     1      26.678   1.477  53.747  0.00  0.00    +0.000 A 
ENDBRANCH   9  10
ENDBRANCH   7   9
ENDBRANCH   1   3
BRANCH   1  16
ATOM     16  C   UNL     1      21.344   2.516  49.775  0.00  0.00    +0.000 C 
BRANCH  16  17
ATOM     17  C   UNL     1      21.710   1.384  48.803  0.00  0.00    +0.000 C 
BRANCH  17  19
ATOM     18  C   UNL     1      21.936   3.239  47.109  0.00  0.00    +0.000 C 
ATOM     19  C   UNL     1      22.419   1.859  47.534  0.00  0.00    +0.000 C 
ENDBRANCH  17  19
ENDBRANCH  16  17
ENDBRANCH   1  16
BRANCH   2  20
ATOM     20  C   UNL     1      20.627   1.789  52.690  0.00  0.00    +0.000 C 
BRANCH  20  21
ATOM     21  N   UNL     1      20.852   0.594  53.472  0.00  0.00    +0.000 N 
ATOM     22  O   UNL     1      22.071   0.434  54.173  0.00  0.00    +0.000 OA
ATOM     23  C   UNL     1      21.981  -0.781  54.806  0.00  0.00    +0.000 A 
ATOM     24  O   UNL     1      22.854  -1.282  55.488  0.00  0.00    +0.000 OA
ATOM     25  N   UNL     1      20.779  -1.326  54.543  0.00  0.00    +0.000 N 
ATOM     26  C   UNL     1      20.072  -0.501  53.730  0.00  0.00    +0.000 A 
ATOM     27  O   UNL     1      18.944  -0.723  53.308  0.00  0.00    +0.000 OA
ATOM     28  H   UNL     1      20.462  -2.192  54.887  0.00  0.00    +0.000 HD
ENDBRANCH  20  21
ENDBRANCH   2  20
TORSDOF 8
ENDMDL
MODEL 5
REMARK VINA RESULT:    -7.932      1.966      2.489
REMARK INTER + INTRA:         -13.046
REMARK INTER:                 -11.566
REMARK INTRA:                  -1.480
REMARK UNBOUND:                -1.405
REMARK  Name = 
REMARK  9 active torsions:
REMARK  status: ('A' for Active; 'I' for Inactive)
REMARK    1  A    between atoms: C_1  and  C_2
REMARK    2  A    between atoms: C_2  and  C_3
REMARK    3  A    between atoms: C_3  and  C_4
REMARK    4  A    between atoms: C_4  and  C_5
REMARK    5  A    between atoms: C_5  and  C_15
REMARK    6  A    between atoms: C_6  and  C_7
REMARK    7  A    between atoms: C_7  and  N_8
REMARK    8  A    between atoms: C_19  and  O_20
REMARK    9  A    between atoms: O_20  and  C_21
REMARK                            x       y       z     vdW  Elec       q    Type
REMARK                         _______ _______ _______ _____ _____    ______ ____
ROOT
ATOM      1  C   UNL     1      24.482   0.697  52.675  0.00  0.00    +0.000 C 
ATOM      2  C   UNL     1      25.701   0.714  52.086  0.00  0.00    +0.000 C 
ENDROOT
BRANCH   1   3
ATOM      3  C   UNL     1      23.630   1.930  52.572  0.00  0.00    +0.000 A 
ATOM      4  C   UNL     1      22.229   1.835  52.536  0.00  0.00    +0.000 A 
ATOM      5  C   UNL     1      21.432   2.938  52.226  0.00  0.00    +0.000 A 
ATOM      6  C   UNL     1      22.015   4.177  52.013  0.00  0.00    +0.000 A 
ATOM      7  C   UNL     1      23.376   4.347  52.263  0.00  0.00    +0.000 A 
ATOM      8  C   UNL     1      24.187   3.223  52.475  0.00  0.00    +0.000 A 
BRANCH   7   9
ATOM      9  O   UNL     1      23.979   5.590  52.303  0.00  0.00    +0.000 OA
BRANCH   9  10
ATOM     10  C   UNL     1      24.246   6.239  51.109  0.00  0.00    +0.000 A 
ATOM     11  C   UNL     1      25.073   5.731  50.099  0.00  0.00    +0.000 A 
ATOM     12  C   UNL     1      25.393   6.509  48.985  0.00  0.00    +0.000 A 
ATOM     13  C   UNL     1      24.820   7.769  48.833  0.00  0.00    +0.000 A 
ATOM     14  C   UNL     1      23.915   8.240  49.785  0.00  0.00    +0.000 A 
ATOM     15  C   UNL     1      23.630   7.478  50.923  0.00  0.00    +0.000 A 
ENDBRANCH   9  10
ENDBRANCH   7   9
ENDBRANCH   1   3
BRANCH   1  16
ATOM     16  C   UNL     1      23.887  -0.578  53.253  0.00  0.00    +0.000 C 
BRANCH  16  17
ATOM     17  C   UNL     1      24.168  -0.840  54.740  0.00  0.00    +0.000 C 
BRANCH  17  19
ATOM     18  C   UNL     1      21.679  -1.243  54.755  0.00  0.00    +0.000 C 
ATOM     19  C   UNL     1      22.992  -1.457  55.496  0.00  0.00    +0.000 C 
ENDBRANCH  17  19
ENDBRANCH  16  17
ENDBRANCH   1  16
BRANCH   2  20
ATOM     20  C   UNL     1      26.708  -0.397  52.007  0.00  0.00    +0.000 C 
BRANCH  20  21
ATOM     21  N   UNL     1      27.812  -0.106  52.894  0.00  0.00    +0.000 N 
ATOM     22  O   UNL     1      27.977   1.205  53.400  0.00  0.00    +0.000 OA
ATOM     23  C   UNL     1      29.095   1.159  54.197  0.00  0.00    +0.000 A 
ATOM     24  O   UNL     1      29.574   2.108  54.787  0.00  0.00    +0.000 OA
ATOM     25  N   UNL     1      29.574  -0.098  54.209  0.00  0.00    +0.000 N 
ATOM     26  C   UNL     1      28.803  -0.889  53.421  0.00  0.00    +0.000 A 
ATOM     27  O   UNL     1      28.989  -2.083  53.224  0.00  0.00    +0.000 OA
ATOM     28  H   UNL     1      30.364  -0.399  54.714  0.00  0.00    +0.000 HD
ENDBRANCH  20  21
ENDBRANCH   2  20
TORSDOF 8
ENDMDL
MODEL 6
REMARK VINA RESULT:    -7.931      2.629      4.209
REMARK INTER + INTRA:         -13.045
REMARK INTER:                 -11.877
REMARK INTRA:                  -1.168
REMARK UNBOUND:                -1.405
REMARK  Name = 
REMARK  9 active torsions:
REMARK  status: ('A' for Active; 'I' for Inactive)
REMARK    1  A    between atoms: C_1  and  C_2
REMARK    2  A    between atoms: C_2  and  C_3
REMARK    3  A    between atoms: C_3  and  C_4
REMARK    4  A    between atoms: C_4  and  C_5
REMARK    5  A    between atoms: C_5  and  C_15
REMARK    6  A    between atoms: C_6  and  C_7
REMARK    7  A    between atoms: C_7  and  N_8
REMARK    8  A    between atoms: C_19  and  O_20
REMARK    9  A    between atoms: O_20  and  C_21
REMARK                            x       y       z     vdW  Elec       q    Type
REMARK                         _______ _______ _______ _____ _____    ______ ____
ROOT
ATOM      1  C   UNL     1      24.574   1.902  51.974  0.00  0.00    +0.000 C 
ATOM      2  C   UNL     1      23.797   0.820  52.213  0.00  0.00    +0.000 C 
ENDROOT
BRANCH   1   3
ATOM      3  C   UNL     1      24.161   2.839  50.875  0.00  0.00    +0.000 A 
ATOM      4  C   UNL     1      23.097   2.516  50.016  0.00  0.00    +0.000 A 
ATOM      5  C   UNL     1      22.838   3.262  48.866  0.00  0.00    +0.000 A 
ATOM      6  C   UNL     1      23.595   4.389  48.584  0.00  0.00    +0.000 A 
ATOM      7  C   UNL     1      24.504   4.859  49.530  0.00  0.00    +0.000 A 
ATOM      8  C   UNL     1      24.832   4.058  50.633  0.00  0.00    +0.000 A 
BRANCH   7   9
ATOM      9  O   UNL     1      25.118   6.093  49.430  0.00  0.00    +0.000 OA
BRANCH   9  10
ATOM     10  C   UNL     1      26.397   6.159  48.905  0.00  0.00    +0.000 A 
ATOM     11  C   UNL     1      27.240   5.053  48.729  0.00  0.00    +0.000 A 
ATOM     12  C   UNL     1      28.562   5.227  48.317  0.00  0.00    +0.000 A 
ATOM     13  C   UNL     1      29.026   6.499  47.995  0.00  0.00    +0.000 A 
ATOM     14  C   UNL     1      28.161   7.593  48.070  0.00  0.00    +0.000 A 
ATOM     15  C   UNL     1      26.851   7.425  48.526  0.00  0.00    +0.000 A 
ENDBRANCH   9  10
ENDBRANCH   7   9
ENDBRANCH   1   3
BRANCH   1  16
ATOM     16  C   UNL     1      25.715   2.292  52.901  0.00  0.00    +0.000 C 
BRANCH  16  17
ATOM     17  C   UNL     1      27.128   1.922  52.422  0.00  0.00    +0.000 C 
BRANCH  17  19
ATOM     18  C   UNL     1      27.585  -0.520  52.856  0.00  0.00    +0.000 C 
ATOM     19  C   UNL     1      27.841   0.908  53.316  0.00  0.00    +0.000 C 
ENDBRANCH  17  19
ENDBRANCH  16  17
ENDBRANCH   1  16
BRANCH   2  20
ATOM     20  C   UNL     1      23.966  -0.227  53.277  0.00  0.00    +0.000 C 
BRANCH  20  21
ATOM     21  N   UNL     1      22.666  -0.626  53.767  0.00  0.00    +0.000 N 
ATOM     22  O   UNL     1      21.509  -0.320  53.013  0.00  0.00    +0.000 OA
ATOM     23  C   UNL     1      20.452  -0.821  53.732  0.00  0.00    +0.000 A 
ATOM     24  O   UNL     1      19.281  -0.726  53.416  0.00  0.00    +0.000 OA
ATOM     25  N   UNL     1      20.920  -1.421  54.842  0.00  0.00    +0.000 N 
ATOM     26  C   UNL     1      22.273  -1.315  54.882  0.00  0.00    +0.000 A 
ATOM     27  O   UNL     1      22.988  -1.756  55.772  0.00  0.00    +0.000 OA
ATOM     28  H   UNL     1      20.366  -1.869  55.521  0.00  0.00    +0.000 HD
ENDBRANCH  20  21
ENDBRANCH   2  20
TORSDOF 8
ENDMDL
MODEL 7
REMARK VINA RESULT:    -7.814      3.342      6.873
REMARK INTER + INTRA:         -12.873
REMARK INTER:                 -11.153
REMARK INTRA:                  -1.719
REMARK UNBOUND:                -1.405
REMARK  Name = 
REMARK  9 active torsions:
REMARK  status: ('A' for Active; 'I' for Inactive)
REMARK    1  A    between atoms: C_1  and  C_2
REMARK    2  A    between atoms: C_2  and  C_3
REMARK    3  A    between atoms: C_3  and  C_4
REMARK    4  A    between atoms: C_4  and  C_5
REMARK    5  A    between atoms: C_5  and  C_15
REMARK    6  A    between atoms: C_6  and  C_7
REMARK    7  A    between atoms: C_7  and  N_8
REMARK    8  A    between atoms: C_19  and  O_20
REMARK    9  A    between atoms: O_20  and  C_21
REMARK                            x       y       z     vdW  Elec       q    Type
REMARK                         _______ _______ _______ _____ _____    ______ ____
ROOT
ATOM      1  C   UNL     1      22.088   2.450  51.531  0.00  0.00    +0.000 C 
ATOM      2  C   UNL     1      22.192   3.704  52.030  0.00  0.00    +0.000 C 
ENDROOT
BRANCH   1   3
ATOM      3  C   UNL     1      22.947   1.376  52.135  0.00  0.00    +0.000 A 
ATOM      4  C   UNL     1      22.426   0.494  53.096  0.00  0.00    +0.000 A 
ATOM      5  C   UNL     1      23.253  -0.365  53.821  0.00  0.00    +0.000 A 
ATOM      6  C   UNL     1      24.613  -0.407  53.555  0.00  0.00    +0.000 A 
ATOM      7  C   UNL     1      25.119   0.289  52.459  0.00  0.00    +0.000 A 
ATOM      8  C   UNL     1      24.309   1.222  51.797  0.00  0.00    +0.000 A 
BRANCH   7   9
ATOM      9  O   UNL     1      26.407   0.110  51.989  0.00  0.00    +0.000 OA
BRANCH   9  10
ATOM     10  C   UNL     1      27.465   0.552  52.764  0.00  0.00    +0.000 A 
ATOM     11  C   UNL     1      28.330  -0.287  53.478  0.00  0.00    +0.000 A 
ATOM     12  C   UNL     1      29.288   0.248  54.341  0.00  0.00    +0.000 A 
ATOM     13  C   UNL     1      29.445   1.629  54.429  0.00  0.00    +0.000 A 
ATOM     14  C   UNL     1      28.656   2.470  53.643  0.00  0.00    +0.000 A 
ATOM     15  C   UNL     1      27.666   1.934  52.814  0.00  0.00    +0.000 A 
ENDBRANCH   9  10
ENDBRANCH   7   9
ENDBRANCH   1   3
BRANCH   1  16
ATOM     16  C   UNL     1      21.005   2.070  50.533  0.00  0.00    +0.000 C 
BRANCH  16  17
ATOM     17  C   UNL     1      21.492   1.630  49.144  0.00  0.00    +0.000 C 
BRANCH  17  19
ATOM     18  C   UNL     1      22.291   3.749  48.033  0.00  0.00    +0.000 C 
ATOM     19  C   UNL     1      22.702   2.412  48.634  0.00  0.00    +0.000 C 
ENDBRANCH  17  19
ENDBRANCH  16  17
ENDBRANCH   1  16
BRANCH   2  20
ATOM     20  C   UNL     1      21.415   4.927  51.634  0.00  0.00    +0.000 C 
BRANCH  20  21
ATOM     21  N   UNL     1      22.333   5.966  51.223  0.00  0.00    +0.000 N 
ATOM     22  O   UNL     1      23.723   5.704  51.202  0.00  0.00    +0.000 OA
ATOM     23  C   UNL     1      24.316   6.867  50.776  0.00  0.00    +0.000 A 
ATOM     24  O   UNL     1      25.514   7.041  50.658  0.00  0.00    +0.000 OA
ATOM     25  N   UNL     1      23.360   7.779  50.522  0.00  0.00    +0.000 N 
ATOM     26  C   UNL     1      22.139   7.248  50.787  0.00  0.00    +0.000 A 
ATOM     27  O   UNL     1      21.073   7.836  50.660  0.00  0.00    +0.000 OA
ATOM     28  H   UNL     1      23.522   8.693  50.194  0.00  0.00    +0.000 HD
ENDBRANCH  20  21
ENDBRANCH   2  20
TORSDOF 8
ENDMDL
MODEL 8
REMARK VINA RESULT:    -7.803      2.996      5.712
REMARK INTER + INTRA:         -12.857
REMARK INTER:                 -11.256
REMARK INTRA:                  -1.601
REMARK UNBOUND:                -1.405
REMARK  Name = 
REMARK  9 active torsions:
REMARK  status: ('A' for Active; 'I' for Inactive)
REMARK    1  A    between atoms: C_1  and  C_2
REMARK    2  A    between atoms: C_2  and  C_3
REMARK    3  A    between atoms: C_3  and  C_4
REMARK    4  A    between atoms: C_4  and  C_5
REMARK    5  A    between atoms: C_5  and  C_15
REMARK    6  A    between atoms: C_6  and  C_7
REMARK    7  A    between atoms: C_7  and  N_8
REMARK    8  A    between atoms: C_19  and  O_20
REMARK    9  A    between atoms: O_20  and  C_21
REMARK                            x       y       z     vdW  Elec       q    Type
REMARK                         _______ _______ _______ _____ _____    ______ ____
ROOT
ATOM      1  C   UNL     1      22.417   2.326  50.710  0.00  0.00    +0.000 C 
ATOM      2  C   UNL     1      22.249   1.144  51.350  0.00  0.00    +0.000 C 
ENDROOT
BRANCH   1   3
ATOM      3  C   UNL     1      23.820   2.816  50.490  0.00  0.00    +0.000 A 
ATOM      4  C   UNL     1      24.100   3.776  49.502  0.00  0.00    +0.000 A 
ATOM      5  C   UNL     1      25.411   4.084  49.138  0.00  0.00    +0.000 A 
ATOM      6  C   UNL     1      26.473   3.490  49.801  0.00  0.00    +0.000 A 
ATOM      7  C   UNL     1      26.228   2.710  50.929  0.00  0.00    +0.000 A 
ATOM      8  C   UNL     1      24.915   2.323  51.232  0.00  0.00    +0.000 A 
BRANCH   7   9
ATOM      9  O   UNL     1      27.234   2.282  51.776  0.00  0.00    +0.000 OA
BRANCH   9  10
ATOM     10  C   UNL     1      26.995   1.191  52.595  0.00  0.00    +0.000 A 
ATOM     11  C   UNL     1      26.859  -0.127  52.140  0.00  0.00    +0.000 A 
ATOM     12  C   UNL     1      26.487  -1.146  53.018  0.00  0.00    +0.000 A 
ATOM     13  C   UNL     1      26.332  -0.869  54.373  0.00  0.00    +0.000 A 
ATOM     14  C   UNL     1      26.566   0.421  54.850  0.00  0.00    +0.000 A 
ATOM     15  C   UNL     1      26.894   1.451  53.963  0.00  0.00    +0.000 A 
ENDBRANCH   9  10
ENDBRANCH   7   9
ENDBRANCH   1   3
BRANCH   1  16
ATOM     16  C   UNL     1      21.257   3.053  50.049  0.00  0.00    +0.000 C 
BRANCH  16  17
ATOM     17  C   UNL     1      20.466   4.018  50.946  0.00  0.00    +0.000 C 
BRANCH  17  19
ATOM     18  C   UNL     1      21.733   6.199  50.944  0.00  0.00    +0.000 C 
ATOM     19  C   UNL     1      21.343   4.972  51.756  0.00  0.00    +0.000 C 
ENDBRANCH  17  19
ENDBRANCH  16  17
ENDBRANCH   1  16
BRANCH   2  20
ATOM     20  C   UNL     1      20.964   0.424  51.644  0.00  0.00    +0.000 C 
BRANCH  20  21
ATOM     21  N   UNL     1      21.091  -0.289  52.895  0.00  0.00    +0.000 N 
ATOM     22  O   UNL     1      22.358  -0.394  53.516  0.00  0.00    +0.000 OA
ATOM     23  C   UNL     1      22.152  -1.117  54.665  0.00  0.00    +0.000 A 
ATOM     24  O   UNL     1      23.018  -1.440  55.456  0.00  0.00    +0.000 OA
ATOM     25  N   UNL     1      20.844  -1.416  54.767  0.00  0.00    +0.000 N 
ATOM     26  C   UNL     1      20.176  -0.917  53.696  0.00  0.00    +0.000 A 
ATOM     27  O   UNL     1      18.973  -1.032  53.499  0.00  0.00    +0.000 OA
ATOM     28  H   UNL     1      20.433  -1.920  55.507  0.00  0.00    +0.000 HD
ENDBRANCH  20  21
ENDBRANCH   2  20
TORSDOF 8
ENDMDL
MODEL 9
REMARK VINA RESULT:    -7.799      1.259      1.741
REMARK INTER + INTRA:         -12.851
REMARK INTER:                 -11.424
REMARK INTRA:                  -1.427
REMARK UNBOUND:                -1.405
REMARK  Name = 
REMARK  9 active torsions:
REMARK  status: ('A' for Active; 'I' for Inactive)
REMARK    1  A    between atoms: C_1  and  C_2
REMARK    2  A    between atoms: C_2  and  C_3
REMARK    3  A    between atoms: C_3  and  C_4
REMARK    4  A    between atoms: C_4  and  C_5
REMARK    5  A    between atoms: C_5  and  C_15
REMARK    6  A    between atoms: C_6  and  C_7
REMARK    7  A    between atoms: C_7  and  N_8
REMARK    8  A    between atoms: C_19  and  O_20
REMARK    9  A    between atoms: O_20  and  C_21
REMARK                            x       y       z     vdW  Elec       q    Type
REMARK                         _______ _______ _______ _____ _____    ______ ____
ROOT
ATOM      1  C   UNL     1      23.171   0.860  51.966  0.00  0.00    +0.000 C 
ATOM      2  C   UNL     1      24.389   0.591  52.492  0.00  0.00    +0.000 C 
ENDROOT
BRANCH   1   3
ATOM      3  C   UNL     1      23.092   1.838  50.829  0.00  0.00    +0.000 A 
ATOM      4  C   UNL     1      21.978   1.858  49.973  0.00  0.00    +0.000 A 
ATOM      5  C   UNL     1      21.979   2.604  48.794  0.00  0.00    +0.000 A 
ATOM      6  C   UNL     1      23.069   3.401  48.478  0.00  0.00    +0.000 A 
ATOM      7  C   UNL     1      24.086   3.575  49.415  0.00  0.00    +0.000 A 
ATOM      8  C   UNL     1      24.131   2.752  50.549  0.00  0.00    +0.000 A 
BRANCH   7   9
ATOM      9  O   UNL     1      25.078   4.528  49.274  0.00  0.00    +0.000 OA
BRANCH   9  10
ATOM     10  C   UNL     1      24.725   5.866  49.316  0.00  0.00    +0.000 A 
ATOM     11  C   UNL     1      24.707   6.716  48.202  0.00  0.00    +0.000 A 
ATOM     12  C   UNL     1      24.467   8.082  48.356  0.00  0.00    +0.000 A 
ATOM     13  C   UNL     1      24.159   8.594  49.614  0.00  0.00    +0.000 A 
ATOM     14  C   UNL     1      24.074   7.735  50.711  0.00  0.00    +0.000 A 
ATOM     15  C   UNL     1      24.358   6.375  50.564  0.00  0.00    +0.000 A 
ENDBRANCH   9  10
ENDBRANCH   7   9
ENDBRANCH   1   3
BRANCH   1  16
ATOM     16  C   UNL     1      21.935   0.064  52.356  0.00  0.00    +0.000 C 
BRANCH  16  17
ATOM     17  C   UNL     1      21.129   0.609  53.545  0.00  0.00    +0.000 C 
BRANCH  17  19
ATOM     18  C   UNL     1      21.433  -1.713  54.482  0.00  0.00    +0.000 C 
ATOM     19  C   UNL     1      21.240  -0.239  54.812  0.00  0.00    +0.000 C 
ENDBRANCH  17  19
ENDBRANCH  16  17
ENDBRANCH   1  16
BRANCH   2  20
ATOM     20  C   UNL     1      24.733  -0.376  53.588  0.00  0.00    +0.000 C 
BRANCH  20  21
ATOM     21  N   UNL     1      26.170  -0.509  53.675  0.00  0.00    +0.000 N 
ATOM     22  O   UNL     1      26.903   0.353  54.524  0.00  0.00    +0.000 OA
ATOM     23  C   UNL     1      28.218  -0.018  54.387  0.00  0.00    +0.000 A 
ATOM     24  O   UNL     1      29.159   0.517  54.943  0.00  0.00    +0.000 OA
ATOM     25  N   UNL     1      28.295  -1.056  53.535  0.00  0.00    +0.000 N 
ATOM     26  C   UNL     1      27.054  -1.375  53.089  0.00  0.00    +0.000 A 
ATOM     27  O   UNL     1      26.798  -2.272  52.297  0.00  0.00    +0.000 OA
ATOM     28  H   UNL     1      29.127  -1.516  53.275  0.00  0.00    +0.000 HD
ENDBRANCH  20  21
ENDBRANCH   2  20
TORSDOF 8
ENDMDL
