MODEL 1
REMARK VINA RESULT:    -9.237      0.000      0.000
REMARK INTER + INTRA:         -10.961
REMARK INTER:                 -10.587
REMARK INTRA:                  -0.375
REMARK UNBOUND:                -0.375
REMARK  Name = 
REMARK  8 active torsions:
REMARK  status: ('A' for Active; 'I' for Inactive)
REMARK    1  A    between atoms: C_1  and  C_2
REMARK    2  A    between atoms: C_2  and  C_3
REMARK    3  A    between atoms: C_3  and  C_4
REMARK    4  A    between atoms: C_16  and  C_17
REMARK    5  A    between atoms: C_16  and  C_18
REMARK    6  A    between atoms: C_22  and  C_23
REMARK    7  A    between atoms: C_24  and  C_25
REMARK    8  A    between atoms: C_26  and  O_27
REMARK                            x       y       z     vdW  Elec       q    Type
REMARK                         _______ _______ _______ _____ _____    ______ ____
ROOT
ATOM      1  C   UNL     1      22.164   1.445  52.518  0.00  0.00    +0.000 A 
ATOM      2  C   UNL     1      21.135   2.108  51.938  0.00  0.00    +0.000 A 
ATOM      3  C   UNL     1      21.124   3.561  51.772  0.00  0.00    +0.000 A 
ATOM      4  O   UNL     1      20.094   4.198  51.608  0.00  0.00    +0.000 OA
ATOM      5  O   UNL     1      22.345   4.155  51.851  0.00  0.00    +0.000 OA
ATOM      6  C   UNL     1      23.419   3.281  51.747  0.00  0.00    +0.000 A 
ATOM      7  C   UNL     1      24.360   3.596  50.805  0.00  0.00    +0.000 A 
ATOM      8  C   UNL     1      25.660   3.208  51.053  0.00  0.00    +0.000 A 
ATOM      9  C   UNL     1      25.910   2.278  52.082  0.00  0.00    +0.000 A 
ATOM     10  C   UNL     1      24.821   1.623  52.709  0.00  0.00    +0.000 A 
ATOM     11  C   UNL     1      23.512   2.111  52.478  0.00  0.00    +0.000 A 
ATOM     12  O   UNL     1      25.034   0.553  53.559  0.00  0.00    +0.000 OA
ATOM     13  C   UNL     1      26.382   0.007  53.693  0.00  0.00    +0.000 C 
ATOM     14  C   UNL     1      26.634  -0.306  55.177  0.00  0.00    +0.000 C 
ATOM     15  C   UNL     1      26.449  -1.305  52.888  0.00  0.00    +0.000 C 
ATOM     16  C   UNL     1      27.494   0.902  53.218  0.00  0.00    +0.000 C 
ATOM     17  C   UNL     1      27.287   1.960  52.441  0.00  0.00    +0.000 C 
ATOM     18  O   UNL     1      26.694   3.748  50.323  0.00  0.00    +0.000 OA
ATOM     19  C   UNL     1      26.343   4.359  49.053  0.00  0.00    +0.000 C 
ATOM     20  C   UNL     1      27.515   5.211  48.569  0.00  0.00    +0.000 C 
ATOM     21  C   UNL     1      25.022   5.153  49.051  0.00  0.00    +0.000 C 
ATOM     22  C   UNL     1      24.975   6.382  49.970  0.00  0.00    +0.000 C 
ATOM     23  C   UNL     1      23.967   4.152  49.466  0.00  0.00    +0.000 C 
ENDROOT
BRANCH  23  24
ATOM     24  O   UNL     1      22.667   4.713  49.342  0.00  0.00    +0.000 OA
ATOM     25  H   UNL     1      22.738   5.677  49.256  0.00  0.00    +0.000 HD
ENDBRANCH  23  24
BRANCH   1  26
ATOM     26  C   UNL     1      21.906  -0.001  52.835  0.00  0.00    +0.000 C 
BRANCH  26  28
ATOM     27  C   UNL     1      22.450  -1.366  54.895  0.00  0.00    +0.000 C 
ATOM     28  C   UNL     1      21.618  -0.214  54.330  0.00  0.00    +0.000 C 
ENDBRANCH  26  28
ENDBRANCH   1  26
TORSDOF 3
ENDMDL
MODEL 2
REMARK VINA RESULT:    -9.115      1.559      5.348
REMARK INTER + INTRA:         -10.822
REMARK INTER:                 -10.486
REMARK INTRA:                  -0.336
REMARK UNBOUND:                -0.375
REMARK  Name = 
REMARK  8 active torsions:
REMARK  status: ('A' for Active; 'I' for Inactive)
REMARK    1  A    between atoms: C_1  and  C_2
REMARK    2  A    between atoms: C_2  and  C_3
REMARK    3  A    between atoms: C_3  and  C_4
REMARK    4  A    between atoms: C_16  and  C_17
REMARK    5  A    between atoms: C_16  and  C_18
REMARK    6  A    between atoms: C_22  and  C_23
REMARK    7  A    between atoms: C_24  and  C_25
REMARK    8  A    between atoms: C_26  and  O_27
REMARK                            x       y       z     vdW  Elec       q    Type
REMARK                         _______ _______ _______ _____ _____    ______ ____
ROOT
ATOM      1  C   UNL     1      22.018   1.411  52.758  0.00  0.00    +0.000 A 
ATOM      2  C   UNL     1      21.742   0.423  53.642  0.00  0.00    +0.000 A 
ATOM      3  C   UNL     1      22.434  -0.867  53.629  0.00  0.00    +0.000 A 
ATOM      4  O   UNL     1      21.965  -1.871  54.144  0.00  0.00    +0.000 OA
ATOM      5  O   UNL     1      23.621  -0.872  52.966  0.00  0.00    +0.000 OA
ATOM      6  C   UNL     1      24.138   0.390  52.700  0.00  0.00    +0.000 A 
ATOM      7  C   UNL     1      25.426   0.608  53.104  0.00  0.00    +0.000 A 
ATOM      8  C   UNL     1      26.180   1.499  52.368  0.00  0.00    +0.000 A 
ATOM      9  C   UNL     1      25.529   2.344  51.446  0.00  0.00    +0.000 A 
ATOM     10  C   UNL     1      24.113   2.394  51.427  0.00  0.00    +0.000 A 
ATOM     11  C   UNL     1      23.389   1.407  52.139  0.00  0.00    +0.000 A 
ATOM     12  O   UNL     1      23.451   3.364  50.697  0.00  0.00    +0.000 OA
ATOM     13  C   UNL     1      24.222   4.429  50.062  0.00  0.00    +0.000 C 
ATOM     14  C   UNL     1      23.643   4.679  48.660  0.00  0.00    +0.000 C 
ATOM     15  C   UNL     1      24.058   5.708  50.905  0.00  0.00    +0.000 C 
ATOM     16  C   UNL     1      25.695   4.159  49.908  0.00  0.00    +0.000 C 
ATOM     17  C   UNL     1      26.325   3.196  50.571  0.00  0.00    +0.000 C 
ATOM     18  O   UNL     1      27.547   1.537  52.518  0.00  0.00    +0.000 OA
ATOM     19  C   UNL     1      28.084   0.956  53.736  0.00  0.00    +0.000 C 
ATOM     20  C   UNL     1      29.589   0.752  53.569  0.00  0.00    +0.000 C 
ATOM     21  C   UNL     1      27.384  -0.331  54.213  0.00  0.00    +0.000 C 
ATOM     22  C   UNL     1      27.479  -1.537  53.268  0.00  0.00    +0.000 C 
ATOM     23  C   UNL     1      25.937   0.065  54.409  0.00  0.00    +0.000 C 
ENDROOT
BRANCH  23  24
ATOM     24  O   UNL     1      25.205  -0.994  55.013  0.00  0.00    +0.000 OA
ATOM     25  H   UNL     1      25.032  -0.778  55.942  0.00  0.00    +0.000 HD
ENDBRANCH  23  24
BRANCH   1  26
ATOM     26  C   UNL     1      21.051   2.562  52.750  0.00  0.00    +0.000 C 
BRANCH  26  28
ATOM     27  C   UNL     1      19.980   1.744  50.609  0.00  0.00    +0.000 C 
ATOM     28  C   UNL     1      19.733   2.194  52.051  0.00  0.00    +0.000 C 
ENDBRANCH  26  28
ENDBRANCH   1  26
TORSDOF 3
ENDMDL
MODEL 3
REMARK VINA RESULT:    -8.419      1.653      6.942
REMARK INTER + INTRA:         -10.025
REMARK INTER:                  -9.804
REMARK INTRA:                  -0.221
REMARK UNBOUND:                -0.375
REMARK  Name = 
REMARK  8 active torsions:
REMARK  status: ('A' for Active; 'I' for Inactive)
REMARK    1  A    between atoms: C_1  and  C_2
REMARK    2  A    between atoms: C_2  and  C_3
REMARK    3  A    between atoms: C_3  and  C_4
REMARK    4  A    between atoms: C_16  and  C_17
REMARK    5  A    between atoms: C_16  and  C_18
REMARK    6  A    between atoms: C_22  and  C_23
REMARK    7  A    between atoms: C_24  and  C_25
REMARK    8  A    between atoms: C_26  and  O_27
REMARK                            x       y       z     vdW  Elec       q    Type
REMARK                         _______ _______ _______ _____ _____    ______ ____
ROOT
ATOM      1  C   UNL     1      25.721   3.074  50.885  0.00  0.00    +0.000 A 
ATOM      2  C   UNL     1      26.807   2.314  51.162  0.00  0.00    +0.000 A 
ATOM      3  C   UNL     1      27.069   1.764  52.492  0.00  0.00    +0.000 A 
ATOM      4  O   UNL     1      28.184   1.412  52.851  0.00  0.00    +0.000 OA
ATOM      5  O   UNL     1      25.986   1.711  53.312  0.00  0.00    +0.000 OA
ATOM      6  C   UNL     1      24.767   1.869  52.668  0.00  0.00    +0.000 A 
ATOM      7  C   UNL     1      23.832   0.900  52.906  0.00  0.00    +0.000 A 
ATOM      8  C   UNL     1      22.504   1.273  52.858  0.00  0.00    +0.000 A 
ATOM      9  C   UNL     1      22.166   2.519  52.292  0.00  0.00    +0.000 A 
ATOM     10  C   UNL     1      23.162   3.273  51.622  0.00  0.00    +0.000 A 
ATOM     11  C   UNL     1      24.517   2.889  51.768  0.00  0.00    +0.000 A 
ATOM     12  O   UNL     1      22.822   4.383  50.870  0.00  0.00    +0.000 OA
ATOM     13  C   UNL     1      21.411   4.690  50.651  0.00  0.00    +0.000 C 
ATOM     14  C   UNL     1      21.218   6.208  50.787  0.00  0.00    +0.000 C 
ATOM     15  C   UNL     1      21.046   4.267  49.215  0.00  0.00    +0.000 C 
ATOM     16  C   UNL     1      20.448   4.019  51.592  0.00  0.00    +0.000 C 
ATOM     17  C   UNL     1      20.785   2.982  52.352  0.00  0.00    +0.000 C 
ATOM     18  O   UNL     1      21.535   0.449  53.381  0.00  0.00    +0.000 OA
ATOM     19  C   UNL     1      21.896  -0.945  53.563  0.00  0.00    +0.000 C 
ATOM     20  C   UNL     1      20.865  -1.612  54.473  0.00  0.00    +0.000 C 
ATOM     21  C   UNL     1      23.335  -1.191  54.056  0.00  0.00    +0.000 C 
ATOM     22  C   UNL     1      23.673  -0.636  55.447  0.00  0.00    +0.000 C 
ATOM     23  C   UNL     1      24.218  -0.548  53.010  0.00  0.00    +0.000 C 
ENDROOT
BRANCH  23  24
ATOM     24  O   UNL     1      25.586  -0.849  53.256  0.00  0.00    +0.000 OA
ATOM     25  H   UNL     1      26.146  -0.218  52.777  0.00  0.00    +0.000 HD
ENDBRANCH  23  24
BRANCH   1  26
ATOM     26  C   UNL     1      25.734   3.761  49.548  0.00  0.00    +0.000 C 
BRANCH  26  28
ATOM     27  C   UNL     1      27.174   5.659  48.697  0.00  0.00    +0.000 C 
ATOM     28  C   UNL     1      27.152   4.197  49.146  0.00  0.00    +0.000 C 
ENDBRANCH  26  28
ENDBRANCH   1  26
TORSDOF 3
ENDMDL
MODEL 4
REMARK VINA RESULT:    -8.189      1.576      6.539
REMARK INTER + INTRA:          -9.761
REMARK INTER:                  -9.501
REMARK INTRA:                  -0.260
REMARK UNBOUND:                -0.375
REMARK  Name = 
REMARK  8 active torsions:
REMARK  status: ('A' for Active; 'I' for Inactive)
REMARK    1  A    between atoms: C_1  and  C_2
REMARK    2  A    between atoms: C_2  and  C_3
REMARK    3  A    between atoms: C_3  and  C_4
REMARK    4  A    between atoms: C_16  and  C_17
REMARK    5  A    between atoms: C_16  and  C_18
REMARK    6  A    between atoms: C_22  and  C_23
REMARK    7  A    between atoms: C_24  and  C_25
REMARK    8  A    between atoms: C_26  and  O_27
REMARK                            x       y       z     vdW  Elec       q    Type
REMARK                         _______ _______ _______ _____ _____    ______ ____
ROOT
ATOM      1  C   UNL     1      25.766   2.128  52.195  0.00  0.00    +0.000 A 
ATOM      2  C   UNL     1      26.076   0.880  52.617  0.00  0.00    +0.000 A 
ATOM      3  C   UNL     1      25.334   0.195  53.676  0.00  0.00    +0.000 A 
ATOM      4  O   UNL     1      25.805  -0.736  54.314  0.00  0.00    +0.000 OA
ATOM      5  O   UNL     1      24.095   0.698  53.922  0.00  0.00    +0.000 OA
ATOM      6  C   UNL     1      23.609   1.543  52.934  0.00  0.00    +0.000 A 
ATOM      7  C   UNL     1      22.370   1.239  52.440  0.00  0.00    +0.000 A 
ATOM      8  C   UNL     1      21.593   2.285  51.988  0.00  0.00    +0.000 A 
ATOM      9  C   UNL     1      22.195   3.543  51.781  0.00  0.00    +0.000 A 
ATOM     10  C   UNL     1      23.605   3.661  51.860  0.00  0.00    +0.000 A 
ATOM     11  C   UNL     1      24.347   2.584  52.403  0.00  0.00    +0.000 A 
ATOM     12  O   UNL     1      24.241   4.818  51.449  0.00  0.00    +0.000 OA
ATOM     13  C   UNL     1      23.461   5.866  50.795  0.00  0.00    +0.000 C 
ATOM     14  C   UNL     1      23.927   7.227  51.337  0.00  0.00    +0.000 C 
ATOM     15  C   UNL     1      23.749   5.805  49.283  0.00  0.00    +0.000 C 
ATOM     16  C   UNL     1      21.971   5.782  50.989  0.00  0.00    +0.000 C 
ATOM     17  C   UNL     1      21.362   4.686  51.430  0.00  0.00    +0.000 C 
ATOM     18  O   UNL     1      20.246   2.103  51.772  0.00  0.00    +0.000 OA
ATOM     19  C   UNL     1      19.793   0.733  51.611  0.00  0.00    +0.000 C 
ATOM     20  C   UNL     1      18.272   0.691  51.752  0.00  0.00    +0.000 C 
ATOM     21  C   UNL     1      20.479  -0.297  52.529  0.00  0.00    +0.000 C 
ATOM     22  C   UNL     1      20.254  -0.108  54.037  0.00  0.00    +0.000 C 
ATOM     23  C   UNL     1      21.952  -0.185  52.205  0.00  0.00    +0.000 C 
ENDROOT
BRANCH  23  24
ATOM     24  O   UNL     1      22.690  -1.205  52.866  0.00  0.00    +0.000 OA
ATOM     25  H   UNL     1      22.579  -1.114  53.825  0.00  0.00    +0.000 HD
ENDBRANCH  23  24
BRANCH   1  26
ATOM     26  C   UNL     1      26.774   2.775  51.287  0.00  0.00    +0.000 C 
BRANCH  26  28
ATOM     27  C   UNL     1      26.880   4.049  49.104  0.00  0.00    +0.000 C 
ATOM     28  C   UNL     1      26.266   2.856  49.838  0.00  0.00    +0.000 C 
ENDBRANCH  26  28
ENDBRANCH   1  26
TORSDOF 3
ENDMDL
MODEL 5
REMARK VINA RESULT:    -8.151      1.677      5.419
REMARK INTER + INTRA:          -9.717
REMARK INTER:                  -9.257
REMARK INTRA:                  -0.459
REMARK UNBOUND:                -0.375
REMARK  Name = 
REMARK  8 active torsions:
REMARK  status: ('A' for Active; 'I' for Inactive)
REMARK    1  A    between atoms: C_1  and  C_2
REMARK    2  A    between atoms: C_2  and  C_3
REMARK    3  A    between atoms: C_3  and  C_4
REMARK    4  A    between atoms: C_16  and  C_17
REMARK    5  A    between atoms: C_16  and  C_18
REMARK    6  A    between atoms: C_22  and  C_23
REMARK    7  A    between atoms: C_24  and  C_25
REMARK    8  A    between atoms: C_26  and  O_27
REMARK                            x       y       z     vdW  Elec       q    Type
REMARK                         _______ _______ _______ _____ _____    ______ ____
ROOT
ATOM      1  C   UNL     1      22.815   4.516  49.694  0.00  0.00    +0.000 A 
ATOM      2  C   UNL     1      23.883   5.283  49.372  0.00  0.00    +0.000 A 
ATOM      3  C   UNL     1      24.940   5.610  50.330  0.00  0.00    +0.000 A 
ATOM      4  O   UNL     1      25.685   6.569  50.187  0.00  0.00    +0.000 OA
ATOM      5  O   UNL     1      25.005   4.789  51.412  0.00  0.00    +0.000 OA
ATOM      6  C   UNL     1      24.297   3.602  51.278  0.00  0.00    +0.000 A 
ATOM      7  C   UNL     1      24.997   2.454  51.529  0.00  0.00    +0.000 A 
ATOM      8  C   UNL     1      24.292   1.378  52.028  0.00  0.00    +0.000 A 
ATOM      9  C   UNL     1      22.884   1.403  51.979  0.00  0.00    +0.000 A 
ATOM     10  C   UNL     1      22.230   2.433  51.258  0.00  0.00    +0.000 A 
ATOM     11  C   UNL     1      22.988   3.552  50.835  0.00  0.00    +0.000 A 
ATOM     12  O   UNL     1      20.872   2.366  51.005  0.00  0.00    +0.000 OA
ATOM     13  C   UNL     1      20.140   1.152  51.359  0.00  0.00    +0.000 C 
ATOM     14  C   UNL     1      18.791   1.561  51.972  0.00  0.00    +0.000 C 
ATOM     15  C   UNL     1      19.881   0.355  50.066  0.00  0.00    +0.000 C 
ATOM     16  C   UNL     1      20.831   0.241  52.337  0.00  0.00    +0.000 C 
ATOM     17  C   UNL     1      22.126   0.334  52.620  0.00  0.00    +0.000 C 
ATOM     18  O   UNL     1      24.961   0.314  52.589  0.00  0.00    +0.000 OA
ATOM     19  C   UNL     1      26.364   0.172  52.243  0.00  0.00    +0.000 C 
ATOM     20  C   UNL     1      27.021  -0.805  53.216  0.00  0.00    +0.000 C 
ATOM     21  C   UNL     1      27.151   1.493  52.143  0.00  0.00    +0.000 C 
ATOM     22  C   UNL     1      27.269   2.305  53.441  0.00  0.00    +0.000 C 
ATOM     23  C   UNL     1      26.425   2.299  51.089  0.00  0.00    +0.000 C 
ENDROOT
BRANCH  23  24
ATOM     24  O   UNL     1      27.149   3.481  50.775  0.00  0.00    +0.000 OA
ATOM     25  H   UNL     1      28.067   3.251  50.562  0.00  0.00    +0.000 HD
ENDBRANCH  23  24
BRANCH   1  26
ATOM     26  C   UNL     1      21.708   4.487  48.678  0.00  0.00    +0.000 C 
BRANCH  26  28
ATOM     27  C   UNL     1      22.363   2.314  47.562  0.00  0.00    +0.000 C 
ATOM     28  C   UNL     1      22.154   3.817  47.369  0.00  0.00    +0.000 C 
ENDBRANCH  26  28
ENDBRANCH   1  26
TORSDOF 3
ENDMDL
MODEL 6
REMARK VINA RESULT:    -8.141      1.889      4.960
REMARK INTER + INTRA:          -9.706
REMARK INTER:                  -9.363
REMARK INTRA:                  -0.343
REMARK UNBOUND:                -0.375
REMARK  Name = 
REMARK  8 active torsions:
REMARK  status: ('A' for Active; 'I' for Inactive)
REMARK    1  A    between atoms: C_1  and  C_2
REMARK    2  A    between atoms: C_2  and  C_3
REMARK    3  A    between atoms: C_3  and  C_4
REMARK    4  A    between atoms: C_16  and  C_17
REMARK    5  A    between atoms: C_16  and  C_18
REMARK    6  A    between atoms: C_22  and  C_23
REMARK    7  A    between atoms: C_24  and  C_25
REMARK    8  A    between atoms: C_26  and  O_27
REMARK                            x       y       z     vdW  Elec       q    Type
REMARK                         _______ _______ _______ _____ _____    ______ ____
ROOT
ATOM      1  C   UNL     1      22.674   0.120  53.448  0.00  0.00    +0.000 A 
ATOM      2  C   UNL     1      23.886   0.008  54.041  0.00  0.00    +0.000 A 
ATOM      3  C   UNL     1      25.136  -0.038  53.281  0.00  0.00    +0.000 A 
ATOM      4  O   UNL     1      26.170  -0.502  53.741  0.00  0.00    +0.000 OA
ATOM      5  O   UNL     1      25.052   0.441  52.012  0.00  0.00    +0.000 OA
ATOM      6  C   UNL     1      23.909   1.185  51.751  0.00  0.00    +0.000 A 
ATOM      7  C   UNL     1      24.111   2.427  51.213  0.00  0.00    +0.000 A 
ATOM      8  C   UNL     1      23.129   2.925  50.381  0.00  0.00    +0.000 A 
ATOM      9  C   UNL     1      21.870   2.292  50.357  0.00  0.00    +0.000 A 
ATOM     10  C   UNL     1      21.578   1.286  51.311  0.00  0.00    +0.000 A 
ATOM     11  C   UNL     1      22.638   0.756  52.086  0.00  0.00    +0.000 A 
ATOM     12  O   UNL     1      20.289   0.804  51.457  0.00  0.00    +0.000 OA
ATOM     13  C   UNL     1      19.201   1.444  50.722  0.00  0.00    +0.000 C 
ATOM     14  C   UNL     1      18.270   0.347  50.182  0.00  0.00    +0.000 C 
ATOM     15  C   UNL     1      18.413   2.329  51.707  0.00  0.00    +0.000 C 
ATOM     16  C   UNL     1      19.622   2.302  49.560  0.00  0.00    +0.000 C 
ATOM     17  C   UNL     1      20.870   2.727  49.389  0.00  0.00    +0.000 C 
ATOM     18  O   UNL     1      23.393   4.005  49.571  0.00  0.00    +0.000 OA
ATOM     19  C   UNL     1      24.529   4.832  49.938  0.00  0.00    +0.000 C 
ATOM     20  C   UNL     1      24.891   5.733  48.759  0.00  0.00    +0.000 C 
ATOM     21  C   UNL     1      25.756   4.063  50.465  0.00  0.00    +0.000 C 
ATOM     22  C   UNL     1      26.424   3.102  49.472  0.00  0.00    +0.000 C 
ATOM     23  C   UNL     1      25.247   3.298  51.667  0.00  0.00    +0.000 C 
ENDROOT
BRANCH  23  24
ATOM     24  O   UNL     1      26.323   2.672  52.355  0.00  0.00    +0.000 OA
ATOM     25  H   UNL     1      26.122   2.634  53.303  0.00  0.00    +0.000 HD
ENDBRANCH  23  24
BRANCH   1  26
ATOM     26  C   UNL     1      21.490  -0.100  54.348  0.00  0.00    +0.000 C 
BRANCH  26  28
ATOM     27  C   UNL     1      19.459  -1.459  53.694  0.00  0.00    +0.000 C 
ATOM     28  C   UNL     1      20.907  -1.513  54.186  0.00  0.00    +0.000 C 
ENDBRANCH  26  28
ENDBRANCH   1  26
TORSDOF 3
ENDMDL
MODEL 7
REMARK VINA RESULT:    -7.973      1.977      5.493
REMARK INTER + INTRA:          -9.513
REMARK INTER:                  -9.237
REMARK INTRA:                  -0.276
REMARK UNBOUND:                -0.375
REMARK  Name = 
REMARK  8 active torsions:
REMARK  status: ('A' for Active; 'I' for Inactive)
REMARK    1  A    between atoms: C_1  and  C_2
REMARK    2  A    between atoms: C_2  and  C_3
REMARK    3  A    between atoms: C_3  and  C_4
REMARK    4  A    between atoms: C_16  and  C_17
REMARK    5  A    between atoms: C_16  and  C_18
REMARK    6  A    between atoms: C_22  and  C_23
REMARK    7  A    between atoms: C_24  and  C_25
REMARK    8  A    between atoms: C_26  and  O_27
REMARK                            x       y       z     vdW  Elec       q    Type
REMARK                         _______ _______ _______ _____ _____    ______ ____
ROOT
ATOM      1  C   UNL     1      24.120   3.597  49.788  0.00  0.00    +0.000 A 
ATOM      2  C   UNL     1      23.249   4.273  49.003  0.00  0.00    +0.000 A 
ATOM      3  C   UNL     1      22.156   3.615  48.286  0.00  0.00    +0.000 A 
ATOM      4  O   UNL     1      21.611   4.115  47.312  0.00  0.00    +0.000 OA
ATOM      5  O   UNL     1      21.816   2.388  48.763  0.00  0.00    +0.000 OA
ATOM      6  C   UNL     1      22.319   2.101  50.025  0.00  0.00    +0.000 A 
ATOM      7  C   UNL     1      21.405   1.688  50.955  0.00  0.00    +0.000 A 
ATOM      8  C   UNL     1      21.845   0.826  51.938  0.00  0.00    +0.000 A 
ATOM      9  C   UNL     1      23.232   0.647  52.118  0.00  0.00    +0.000 A 
ATOM     10  C   UNL     1      24.138   1.486  51.423  0.00  0.00    +0.000 A 
ATOM     11  C   UNL     1      23.643   2.295  50.371  0.00  0.00    +0.000 A 
ATOM     12  O   UNL     1      25.484   1.487  51.738  0.00  0.00    +0.000 OA
ATOM     13  C   UNL     1      25.945   0.724  52.896  0.00  0.00    +0.000 C 
ATOM     14  C   UNL     1      27.259   0.020  52.521  0.00  0.00    +0.000 C 
ATOM     15  C   UNL     1      26.219   1.714  54.044  0.00  0.00    +0.000 C 
ATOM     16  C   UNL     1      24.992  -0.324  53.402  0.00  0.00    +0.000 C 
ATOM     17  C   UNL     1      23.707  -0.357  53.062  0.00  0.00    +0.000 C 
ATOM     18  O   UNL     1      20.938   0.134  52.708  0.00  0.00    +0.000 OA
ATOM     19  C   UNL     1      19.585   0.660  52.749  0.00  0.00    +0.000 C 
ATOM     20  C   UNL     1      18.654  -0.406  53.324  0.00  0.00    +0.000 C 
ATOM     21  C   UNL     1      19.057   1.216  51.413  0.00  0.00    +0.000 C 
ATOM     22  C   UNL     1      18.924   0.201  50.268  0.00  0.00    +0.000 C 
ATOM     23  C   UNL     1      20.037   2.305  51.032  0.00  0.00    +0.000 C 
ENDROOT
BRANCH  23  24
ATOM     24  O   UNL     1      19.573   3.020  49.894  0.00  0.00    +0.000 OA
ATOM     25  H   UNL     1      19.929   2.613  49.089  0.00  0.00    +0.000 HD
ENDBRANCH  23  24
BRANCH   1  26
ATOM     26  C   UNL     1      25.322   4.377  50.243  0.00  0.00    +0.000 C 
BRANCH  26  28
ATOM     27  C   UNL     1      27.219   5.096  48.732  0.00  0.00    +0.000 C 
ATOM     28  C   UNL     1      26.599   3.935  49.511  0.00  0.00    +0.000 C 
ENDBRANCH  26  28
ENDBRANCH   1  26
TORSDOF 3
ENDMDL
MODEL 8
REMARK VINA RESULT:    -7.503      1.590      4.824
REMARK INTER + INTRA:          -8.974
REMARK INTER:                  -8.640
REMARK INTRA:                  -0.334
REMARK UNBOUND:                -0.375
REMARK  Name = 
REMARK  8 active torsions:
REMARK  status: ('A' for Active; 'I' for Inactive)
REMARK    1  A    between atoms: C_1  and  C_2
REMARK    2  A    between atoms: C_2  and  C_3
REMARK    3  A    between atoms: C_3  and  C_4
REMARK    4  A    between atoms: C_16  and  C_17
REMARK    5  A    between atoms: C_16  and  C_18
REMARK    6  A    between atoms: C_22  and  C_23
REMARK    7  A    between atoms: C_24  and  C_25
REMARK    8  A    between atoms: C_26  and  O_27
REMARK                            x       y       z     vdW  Elec       q    Type
REMARK                         _______ _______ _______ _____ _____    ______ ____
ROOT
ATOM      1  C   UNL     1      25.314   1.769  52.218  0.00  0.00    +0.000 A 
ATOM      2  C   UNL     1      26.126   2.680  51.631  0.00  0.00    +0.000 A 
ATOM      3  C   UNL     1      25.943   3.127  50.249  0.00  0.00    +0.000 A 
ATOM      4  O   UNL     1      26.844   3.637  49.597  0.00  0.00    +0.000 OA
ATOM      5  O   UNL     1      24.707   2.899  49.733  0.00  0.00    +0.000 OA
ATOM      6  C   UNL     1      23.736   2.591  50.677  0.00  0.00    +0.000 A 
ATOM      7  C   UNL     1      22.596   3.345  50.634  0.00  0.00    +0.000 A 
ATOM      8  C   UNL     1      21.422   2.745  51.042  0.00  0.00    +0.000 A 
ATOM      9  C   UNL     1      21.489   1.524  51.743  0.00  0.00    +0.000 A 
ATOM     10  C   UNL     1      22.747   1.036  52.175  0.00  0.00    +0.000 A 
ATOM     11  C   UNL     1      23.921   1.642  51.665  0.00  0.00    +0.000 A 
ATOM     12  O   UNL     1      22.829  -0.033  53.048  0.00  0.00    +0.000 OA
ATOM     13  C   UNL     1      21.604  -0.566  53.639  0.00  0.00    +0.000 C 
ATOM     14  C   UNL     1      21.692  -2.100  53.640  0.00  0.00    +0.000 C 
ATOM     15  C   UNL     1      21.519  -0.069  55.096  0.00  0.00    +0.000 C 
ATOM     16  C   UNL     1      20.327  -0.181  52.941  0.00  0.00    +0.000 C 
ATOM     17  C   UNL     1      20.256   0.815  52.065  0.00  0.00    +0.000 C 
ATOM     18  O   UNL     1      20.210   3.321  50.741  0.00  0.00    +0.000 OA
ATOM     19  C   UNL     1      20.229   4.732  50.396  0.00  0.00    +0.000 C 
ATOM     20  C   UNL     1      18.897   5.104  49.746  0.00  0.00    +0.000 C 
ATOM     21  C   UNL     1      21.426   5.181  49.538  0.00  0.00    +0.000 C 
ATOM     22  C   UNL     1      21.523   4.555  48.139  0.00  0.00    +0.000 C 
ATOM     23  C   UNL     1      22.647   4.821  50.356  0.00  0.00    +0.000 C 
ENDROOT
BRANCH  23  24
ATOM     24  O   UNL     1      23.826   5.336  49.751  0.00  0.00    +0.000 OA
ATOM     25  H   UNL     1      24.244   5.973  50.350  0.00  0.00    +0.000 HD
ENDBRANCH  23  24
BRANCH   1  26
ATOM     26  C   UNL     1      25.788   1.238  53.542  0.00  0.00    +0.000 C 
BRANCH  26  28
ATOM     27  C   UNL     1      26.547  -0.953  52.530  0.00  0.00    +0.000 C 
ATOM     28  C   UNL     1      26.957   0.254  53.376  0.00  0.00    +0.000 C 
ENDBRANCH  26  28
ENDBRANCH   1  26
TORSDOF 3
ENDMDL
MODEL 9
REMARK VINA RESULT:    -7.261      1.961      5.043
REMARK INTER + INTRA:          -8.697
REMARK INTER:                  -8.500
REMARK INTRA:                  -0.198
REMARK UNBOUND:                -0.375
REMARK  Name = 
REMARK  8 active torsions:
REMARK  status: ('A' for Active; 'I' for Inactive)
REMARK    1  A    between atoms: C_1  and  C_2
REMARK    2  A    between atoms: C_2  and  C_3
REMARK    3  A    between atoms: C_3  and  C_4
REMARK    4  A    between atoms: C_16  and  C_17
REMARK    5  A    between atoms: C_16  and  C_18
REMARK    6  A    between atoms: C_22  and  C_23
REMARK    7  A    between atoms: C_24  and  C_25
REMARK    8  A    between atoms: C_26  and  O_27
REMARK                            x       y       z     vdW  Elec       q    Type
REMARK                         _______ _______ _______ _____ _____    ______ ____
ROOT
ATOM      1  C   UNL     1      25.205   2.251  51.197  0.00  0.00    +0.000 A 
ATOM      2  C   UNL     1      26.330   2.906  50.823  0.00  0.00    +0.000 A 
ATOM      3  C   UNL     1      26.383   3.781  49.651  0.00  0.00    +0.000 A 
ATOM      4  O   UNL     1      27.432   4.071  49.093  0.00  0.00    +0.000 OA
ATOM      5  O   UNL     1      25.174   4.216  49.207  0.00  0.00    +0.000 OA
ATOM      6  C   UNL     1      24.132   4.041  50.108  0.00  0.00    +0.000 A 
ATOM      7  C   UNL     1      23.387   5.154  50.388  0.00  0.00    +0.000 A 
ATOM      8  C   UNL     1      22.060   4.963  50.713  0.00  0.00    +0.000 A 
ATOM      9  C   UNL     1      21.614   3.663  51.025  0.00  0.00    +0.000 A 
ATOM     10  C   UNL     1      22.560   2.621  51.181  0.00  0.00    +0.000 A 
ATOM     11  C   UNL     1      23.894   2.846  50.761  0.00  0.00    +0.000 A 
ATOM     12  O   UNL     1      22.183   1.395  51.700  0.00  0.00    +0.000 OA
ATOM     13  C   UNL     1      20.830   1.229  52.223  0.00  0.00    +0.000 C 
ATOM     14  C   UNL     1      20.301  -0.143  51.776  0.00  0.00    +0.000 C 
ATOM     15  C   UNL     1      20.904   1.259  53.762  0.00  0.00    +0.000 C 
ATOM     16  C   UNL     1      19.834   2.269  51.785  0.00  0.00    +0.000 C 
ATOM     17  C   UNL     1      20.191   3.428  51.241  0.00  0.00    +0.000 C 
ATOM     18  O   UNL     1      21.186   6.026  50.702  0.00  0.00    +0.000 OA
ATOM     19  C   UNL     1      21.775   7.352  50.776  0.00  0.00    +0.000 C 
ATOM     20  C   UNL     1      20.721   8.387  50.385  0.00  0.00    +0.000 C 
ATOM     21  C   UNL     1      23.079   7.536  49.976  0.00  0.00    +0.000 C 
ATOM     22  C   UNL     1      22.962   7.371  48.454  0.00  0.00    +0.000 C 
ATOM     23  C   UNL     1      24.029   6.503  50.541  0.00  0.00    +0.000 C 
ENDROOT
BRANCH  23  24
ATOM     24  O   UNL     1      25.334   6.677  50.003  0.00  0.00    +0.000 OA
ATOM     25  H   UNL     1      25.950   6.899  50.718  0.00  0.00    +0.000 HD
ENDBRANCH  23  24
BRANCH   1  26
ATOM     26  C   UNL     1      25.387   1.208  52.263  0.00  0.00    +0.000 C 
BRANCH  26  28
ATOM     27  C   UNL     1      26.582  -0.920  52.929  0.00  0.00    +0.000 C 
ATOM     28  C   UNL     1      26.496   0.208  51.899  0.00  0.00    +0.000 C 
ENDBRANCH  26  28
ENDBRANCH   1  26
TORSDOF 3
ENDMDL
