MODEL 1
REMARK VINA RESULT:    -8.810      0.000      0.000
REMARK INTER + INTRA:         -14.249
REMARK INTER:                 -12.930
REMARK INTRA:                  -1.319
REMARK UNBOUND:                -1.319
REMARK  Name = 
REMARK  10 active torsions:
REMARK  status: ('A' for Active; 'I' for Inactive)
REMARK    1  A    between atoms: C_1  and  C_2
REMARK    2  A    between atoms: C_2  and  C_3
REMARK    3  A    between atoms: C_3  and  C_4
REMARK    4  A    between atoms: C_4  and  C_5
REMARK    5  A    between atoms: C_5  and  C_15
REMARK    6  A    between atoms: C_6  and  C_7
REMARK    7  A    between atoms: C_7  and  N_8
REMARK    8  A    between atoms: C_19  and  O_20
REMARK    9  A    between atoms: O_20  and  C_21
REMARK   10  A    between atoms: C_24  and  C_25
REMARK                            x       y       z     vdW  Elec       q    Type
REMARK                         _______ _______ _______ _____ _____    ______ ____
ROOT
ATOM      1  C   UNL     1      23.043   0.968  51.795  0.00  0.00    +0.000 C 
ATOM      2  C   UNL     1      24.289   0.877  52.315  0.00  0.00    +0.000 C 
ENDROOT
BRANCH   1   3
ATOM      3  C   UNL     1      22.820   1.943  50.682  0.00  0.00    +0.000 A 
ATOM      4  C   UNL     1      21.945   1.637  49.627  0.00  0.00    +0.000 A 
ATOM      5  C   UNL     1      21.859   2.446  48.494  0.00  0.00    +0.000 A 
ATOM      6  C   UNL     1      22.621   3.603  48.411  0.00  0.00    +0.000 A 
ATOM      7  C   UNL     1      23.358   4.027  49.518  0.00  0.00    +0.000 A 
ATOM      8  C   UNL     1      23.503   3.176  50.622  0.00  0.00    +0.000 A 
BRANCH   7   9
ATOM      9  O   UNL     1      23.972   5.265  49.581  0.00  0.00    +0.000 OA
BRANCH   9  10
ATOM     10  C   UNL     1      25.272   5.378  49.119  0.00  0.00    +0.000 A 
ATOM     11  C   UNL     1      26.201   4.332  49.146  0.00  0.00    +0.000 A 
ATOM     12  C   UNL     1      27.536   4.562  48.811  0.00  0.00    +0.000 A 
ATOM     13  C   UNL     1      27.943   5.823  48.366  0.00  0.00    +0.000 A 
ATOM     14  C   UNL     1      29.383   6.089  48.042  0.00  0.00    +0.000 C 
ATOM     15  C   UNL     1      26.982   6.833  48.217  0.00  0.00    +0.000 A 
ATOM     16  C   UNL     1      25.653   6.613  48.598  0.00  0.00    +0.000 A 
ENDBRANCH   9  10
ENDBRANCH   7   9
ENDBRANCH   1   3
BRANCH   1  17
ATOM     17  C   UNL     1      21.936  -0.015  52.151  0.00  0.00    +0.000 C 
BRANCH  17  18
ATOM     18  C   UNL     1      20.915   0.488  53.178  0.00  0.00    +0.000 C 
BRANCH  18  20
ATOM     19  C   UNL     1      21.598  -1.444  54.639  0.00  0.00    +0.000 C 
ATOM     20  C   UNL     1      21.181   0.020  54.608  0.00  0.00    +0.000 C 
ENDBRANCH  18  20
ENDBRANCH  17  18
ENDBRANCH   1  17
BRANCH   2  21
ATOM     21  C   UNL     1      24.807  -0.118  53.320  0.00  0.00    +0.000 C 
BRANCH  21  22
ATOM     22  N   UNL     1      26.250  -0.133  53.198  0.00  0.00    +0.000 N 
ATOM     23  O   UNL     1      26.958   0.520  54.257  0.00  0.00    +0.000 OA
ATOM     24  C   UNL     1      28.171  -0.118  54.375  0.00  0.00    +0.000 A 
ATOM     25  O   UNL     1      29.031   0.172  55.192  0.00  0.00    +0.000 OA
ATOM     26  N   UNL     1      28.211  -1.127  53.487  0.00  0.00    +0.000 N 
ATOM     27  C   UNL     1      26.995  -1.274  52.923  0.00  0.00    +0.000 A 
ATOM     28  O   UNL     1      26.617  -2.274  52.333  0.00  0.00    +0.000 OA
ATOM     29  H   UNL     1      29.004  -1.672  53.280  0.00  0.00    +0.000 HD
ENDBRANCH  21  22
ENDBRANCH   2  21
TORSDOF 8
ENDMDL
MODEL 2
REMARK VINA RESULT:    -8.496      3.539      7.835
REMARK INTER + INTRA:         -13.789
REMARK INTER:                 -11.783
REMARK INTRA:                  -2.006
REMARK UNBOUND:                -1.319
REMARK  Name = 
REMARK  10 active torsions:
REMARK  status: ('A' for Active; 'I' for Inactive)
REMARK    1  A    between atoms: C_1  and  C_2
REMARK    2  A    between atoms: C_2  and  C_3
REMARK    3  A    between atoms: C_3  and  C_4
REMARK    4  A    between atoms: C_4  and  C_5
REMARK    5  A    between atoms: C_5  and  C_15
REMARK    6  A    between atoms: C_6  and  C_7
REMARK    7  A    between atoms: C_7  and  N_8
REMARK    8  A    between atoms: C_19  and  O_20
REMARK    9  A    between atoms: O_20  and  C_21
REMARK   10  A    between atoms: C_24  and  C_25
REMARK                            x       y       z     vdW  Elec       q    Type
REMARK                         _______ _______ _______ _____ _____    ______ ____
ROOT
ATOM      1  C   UNL     1      23.040   3.241  51.304  0.00  0.00    +0.000 C 
ATOM      2  C   UNL     1      22.253   4.203  51.839  0.00  0.00    +0.000 C 
ENDROOT
BRANCH   1   3
ATOM      3  C   UNL     1      22.866   1.840  51.802  0.00  0.00    +0.000 A 
ATOM      4  C   UNL     1      21.874   1.006  51.261  0.00  0.00    +0.000 A 
ATOM      5  C   UNL     1      21.576  -0.233  51.828  0.00  0.00    +0.000 A 
ATOM      6  C   UNL     1      22.292  -0.681  52.928  0.00  0.00    +0.000 A 
ATOM      7  C   UNL     1      23.401   0.041  53.372  0.00  0.00    +0.000 A 
ATOM      8  C   UNL     1      23.652   1.318  52.851  0.00  0.00    +0.000 A 
BRANCH   7   9
ATOM      9  O   UNL     1      24.281  -0.444  54.323  0.00  0.00    +0.000 OA
BRANCH   9  10
ATOM     10  C   UNL     1      25.633  -0.449  54.024  0.00  0.00    +0.000 A 
ATOM     11  C   UNL     1      26.186  -1.122  52.929  0.00  0.00    +0.000 A 
ATOM     12  C   UNL     1      27.570  -1.214  52.780  0.00  0.00    +0.000 A 
ATOM     13  C   UNL     1      28.420  -0.565  53.680  0.00  0.00    +0.000 A 
ATOM     14  C   UNL     1      29.909  -0.692  53.550  0.00  0.00    +0.000 C 
ATOM     15  C   UNL     1      27.860   0.214  54.701  0.00  0.00    +0.000 A 
ATOM     16  C   UNL     1      26.472   0.268  54.876  0.00  0.00    +0.000 A 
ENDBRANCH   9  10
ENDBRANCH   7   9
ENDBRANCH   1   3
BRANCH   1  17
ATOM     17  C   UNL     1      23.926   3.491  50.092  0.00  0.00    +0.000 C 
BRANCH  17  18
ATOM     18  C   UNL     1      25.379   3.867  50.405  0.00  0.00    +0.000 C 
BRANCH  18  20
ATOM     19  C   UNL     1      26.898   2.364  51.734  0.00  0.00    +0.000 C 
ATOM     20  C   UNL     1      26.356   2.692  50.350  0.00  0.00    +0.000 C 
ENDBRANCH  18  20
ENDBRANCH  17  18
ENDBRANCH   1  17
BRANCH   2  21
ATOM     21  C   UNL     1      22.122   5.640  51.411  0.00  0.00    +0.000 C 
BRANCH  21  22
ATOM     22  N   UNL     1      21.111   5.685  50.375  0.00  0.00    +0.000 N 
ATOM     23  O   UNL     1      20.057   4.725  50.508  0.00  0.00    +0.000 OA
ATOM     24  C   UNL     1      18.936   5.285  49.942  0.00  0.00    +0.000 A 
ATOM     25  O   UNL     1      17.842   4.745  49.888  0.00  0.00    +0.000 OA
ATOM     26  N   UNL     1      19.244   6.525  49.519  0.00  0.00    +0.000 N 
ATOM     27  C   UNL     1      20.478   6.850  49.955  0.00  0.00    +0.000 A 
ATOM     28  O   UNL     1      20.917   7.988  50.020  0.00  0.00    +0.000 OA
ATOM     29  H   UNL     1      18.661   7.102  48.977  0.00  0.00    +0.000 HD
ENDBRANCH  21  22
ENDBRANCH   2  21
TORSDOF 8
ENDMDL
MODEL 3
REMARK VINA RESULT:    -8.462      1.507      2.220
REMARK INTER + INTRA:         -13.738
REMARK INTER:                 -12.523
REMARK INTRA:                  -1.215
REMARK UNBOUND:                -1.319
REMARK  Name = 
REMARK  10 active torsions:
REMARK  status: ('A' for Active; 'I' for Inactive)
REMARK    1  A    between atoms: C_1  and  C_2
REMARK    2  A    between atoms: C_2  and  C_3
REMARK    3  A    between atoms: C_3  and  C_4
REMARK    4  A    between atoms: C_4  and  C_5
REMARK    5  A    between atoms: C_5  and  C_15
REMARK    6  A    between atoms: C_6  and  C_7
REMARK    7  A    between atoms: C_7  and  N_8
REMARK    8  A    between atoms: C_19  and  O_20
REMARK    9  A    between atoms: O_20  and  C_21
REMARK   10  A    between atoms: C_24  and  C_25
REMARK                            x       y       z     vdW  Elec       q    Type
REMARK                         _______ _______ _______ _____ _____    ______ ____
ROOT
ATOM      1  C   UNL     1      24.192   1.256  52.343  0.00  0.00    +0.000 C 
ATOM      2  C   UNL     1      25.394   0.668  52.544  0.00  0.00    +0.000 C 
ENDROOT
BRANCH   1   3
ATOM      3  C   UNL     1      24.177   2.702  51.957  0.00  0.00    +0.000 A 
ATOM      4  C   UNL     1      23.869   3.692  52.905  0.00  0.00    +0.000 A 
ATOM      5  C   UNL     1      23.673   5.021  52.532  0.00  0.00    +0.000 A 
ATOM      6  C   UNL     1      23.819   5.396  51.204  0.00  0.00    +0.000 A 
ATOM      7  C   UNL     1      24.301   4.473  50.274  0.00  0.00    +0.000 A 
ATOM      8  C   UNL     1      24.424   3.125  50.634  0.00  0.00    +0.000 A 
BRANCH   7   9
ATOM      9  O   UNL     1      24.667   4.826  48.987  0.00  0.00    +0.000 OA
BRANCH   9  10
ATOM     10  C   UNL     1      25.907   5.410  48.794  0.00  0.00    +0.000 A 
ATOM     11  C   UNL     1      26.093   6.770  48.524  0.00  0.00    +0.000 A 
ATOM     12  C   UNL     1      27.356   7.258  48.184  0.00  0.00    +0.000 A 
ATOM     13  C   UNL     1      28.464   6.407  48.189  0.00  0.00    +0.000 A 
ATOM     14  C   UNL     1      29.817   6.914  47.787  0.00  0.00    +0.000 C 
ATOM     15  C   UNL     1      28.294   5.073  48.585  0.00  0.00    +0.000 A 
ATOM     16  C   UNL     1      27.020   4.575  48.880  0.00  0.00    +0.000 A 
ENDBRANCH   9  10
ENDBRANCH   7   9
ENDBRANCH   1   3
BRANCH   1  17
ATOM     17  C   UNL     1      22.894   0.462  52.290  0.00  0.00    +0.000 C 
BRANCH  17  18
ATOM     18  C   UNL     1      22.051   0.491  53.570  0.00  0.00    +0.000 C 
BRANCH  18  20
ATOM     19  C   UNL     1      21.507  -1.831  54.373  0.00  0.00    +0.000 C 
ATOM     20  C   UNL     1      22.394  -0.610  54.572  0.00  0.00    +0.000 C 
ENDBRANCH  18  20
ENDBRANCH  17  18
ENDBRANCH   1  17
BRANCH   2  21
ATOM     21  C   UNL     1      25.688  -0.789  52.784  0.00  0.00    +0.000 C 
BRANCH  21  22
ATOM     22  N   UNL     1      26.887  -0.852  53.595  0.00  0.00    +0.000 N 
ATOM     23  O   UNL     1      28.118  -0.731  52.875  0.00  0.00    +0.000 OA
ATOM     24  C   UNL     1      29.024  -0.154  53.733  0.00  0.00    +0.000 A 
ATOM     25  O   UNL     1      30.181   0.109  53.447  0.00  0.00    +0.000 OA
ATOM     26  N   UNL     1      28.402   0.112  54.897  0.00  0.00    +0.000 N 
ATOM     27  C   UNL     1      27.080  -0.111  54.756  0.00  0.00    +0.000 A 
ATOM     28  O   UNL     1      26.216   0.328  55.499  0.00  0.00    +0.000 OA
ATOM     29  H   UNL     1      28.843   0.419  55.721  0.00  0.00    +0.000 HD
ENDBRANCH  21  22
ENDBRANCH   2  21
TORSDOF 8
ENDMDL
MODEL 4
REMARK VINA RESULT:    -8.301      2.936      5.857
REMARK INTER + INTRA:         -13.503
REMARK INTER:                 -11.772
REMARK INTRA:                  -1.731
REMARK UNBOUND:                -1.319
REMARK  Name = 
REMARK  10 active torsions:
REMARK  status: ('A' for Active; 'I' for Inactive)
REMARK    1  A    between atoms: C_1  and  C_2
REMARK    2  A    between atoms: C_2  and  C_3
REMARK    3  A    between atoms: C_3  and  C_4
REMARK    4  A    between atoms: C_4  and  C_5
REMARK    5  A    between atoms: C_5  and  C_15
REMARK    6  A    between atoms: C_6  and  C_7
REMARK    7  A    between atoms: C_7  and  N_8
REMARK    8  A    between atoms: C_19  and  O_20
REMARK    9  A    between atoms: O_20  and  C_21
REMARK   10  A    between atoms: C_24  and  C_25
REMARK                            x       y       z     vdW  Elec       q    Type
REMARK                         _______ _______ _______ _____ _____    ______ ____
ROOT
ATOM      1  C   UNL     1      24.455   1.008  52.907  0.00  0.00    +0.000 C 
ATOM      2  C   UNL     1      25.468   0.288  52.370  0.00  0.00    +0.000 C 
ENDROOT
BRANCH   1   3
ATOM      3  C   UNL     1      23.247   0.266  53.385  0.00  0.00    +0.000 A 
ATOM      4  C   UNL     1      23.336  -0.629  54.464  0.00  0.00    +0.000 A 
ATOM      5  C   UNL     1      22.273  -1.462  54.809  0.00  0.00    +0.000 A 
ATOM      6  C   UNL     1      21.080  -1.389  54.105  0.00  0.00    +0.000 A 
ATOM      7  C   UNL     1      20.900  -0.386  53.151  0.00  0.00    +0.000 A 
ATOM      8  C   UNL     1      21.992   0.398  52.754  0.00  0.00    +0.000 A 
BRANCH   7   9
ATOM      9  O   UNL     1      19.677  -0.122  52.560  0.00  0.00    +0.000 OA
BRANCH   9  10
ATOM     10  C   UNL     1      19.567   0.994  51.749  0.00  0.00    +0.000 A 
ATOM     11  C   UNL     1      19.339   0.934  50.369  0.00  0.00    +0.000 A 
ATOM     12  C   UNL     1      19.399   2.091  49.591  0.00  0.00    +0.000 A 
ATOM     13  C   UNL     1      19.606   3.335  50.194  0.00  0.00    +0.000 A 
ATOM     14  C   UNL     1      19.711   4.578  49.361  0.00  0.00    +0.000 C 
ATOM     15  C   UNL     1      19.706   3.405  51.590  0.00  0.00    +0.000 A 
ATOM     16  C   UNL     1      19.693   2.238  52.364  0.00  0.00    +0.000 A 
ENDBRANCH   9  10
ENDBRANCH   7   9
ENDBRANCH   1   3
BRANCH   1  17
ATOM     17  C   UNL     1      24.589   2.491  53.229  0.00  0.00    +0.000 C 
BRANCH  17  18
ATOM     18  C   UNL     1      23.709   3.427  52.393  0.00  0.00    +0.000 C 
BRANCH  18  20
ATOM     19  C   UNL     1      23.216   2.713  50.031  0.00  0.00    +0.000 C 
ATOM     20  C   UNL     1      24.128   3.539  50.927  0.00  0.00    +0.000 C 
ENDBRANCH  18  20
ENDBRANCH  17  18
ENDBRANCH   1  17
BRANCH   2  21
ATOM     21  C   UNL     1      26.835   0.768  51.962  0.00  0.00    +0.000 C 
BRANCH  21  22
ATOM     22  N   UNL     1      27.714   0.558  53.094  0.00  0.00    +0.000 N 
ATOM     23  O   UNL     1      28.419  -0.688  53.096  0.00  0.00    +0.000 OA
ATOM     24  C   UNL     1      29.605  -0.471  53.756  0.00  0.00    +0.000 A 
ATOM     25  O   UNL     1      30.465  -1.320  53.937  0.00  0.00    +0.000 OA
ATOM     26  N   UNL     1      29.668   0.826  54.109  0.00  0.00    +0.000 N 
ATOM     27  C   UNL     1      28.642   1.492  53.541  0.00  0.00    +0.000 A 
ATOM     28  O   UNL     1      28.592   2.703  53.398  0.00  0.00    +0.000 OA
ATOM     29  H   UNL     1      30.354   1.225  54.691  0.00  0.00    +0.000 HD
ENDBRANCH  21  22
ENDBRANCH   2  21
TORSDOF 8
ENDMDL
MODEL 5
REMARK VINA RESULT:    -8.226      4.486      7.885
REMARK INTER + INTRA:         -13.393
REMARK INTER:                 -11.989
REMARK INTRA:                  -1.404
REMARK UNBOUND:                -1.319
REMARK  Name = 
REMARK  10 active torsions:
REMARK  status: ('A' for Active; 'I' for Inactive)
REMARK    1  A    between atoms: C_1  and  C_2
REMARK    2  A    between atoms: C_2  and  C_3
REMARK    3  A    between atoms: C_3  and  C_4
REMARK    4  A    between atoms: C_4  and  C_5
REMARK    5  A    between atoms: C_5  and  C_15
REMARK    6  A    between atoms: C_6  and  C_7
REMARK    7  A    between atoms: C_7  and  N_8
REMARK    8  A    between atoms: C_19  and  O_20
REMARK    9  A    between atoms: O_20  and  C_21
REMARK   10  A    between atoms: C_24  and  C_25
REMARK                            x       y       z     vdW  Elec       q    Type
REMARK                         _______ _______ _______ _____ _____    ______ ____
ROOT
ATOM      1  C   UNL     1      20.777   1.582  51.256  0.00  0.00    +0.000 C 
ATOM      2  C   UNL     1      19.906   0.672  51.754  0.00  0.00    +0.000 C 
ENDROOT
BRANCH   1   3
ATOM      3  C   UNL     1      22.083   1.760  51.965  0.00  0.00    +0.000 A 
ATOM      4  C   UNL     1      22.739   3.001  51.954  0.00  0.00    +0.000 A 
ATOM      5  C   UNL     1      24.035   3.144  52.450  0.00  0.00    +0.000 A 
ATOM      6  C   UNL     1      24.688   2.052  53.005  0.00  0.00    +0.000 A 
ATOM      7  C   UNL     1      23.995   0.855  53.195  0.00  0.00    +0.000 A 
ATOM      8  C   UNL     1      22.723   0.692  52.629  0.00  0.00    +0.000 A 
BRANCH   7   9
ATOM      9  O   UNL     1      24.510  -0.202  53.923  0.00  0.00    +0.000 OA
BRANCH   9  10
ATOM     10  C   UNL     1      25.884  -0.367  53.959  0.00  0.00    +0.000 A 
ATOM     11  C   UNL     1      26.714   0.227  54.917  0.00  0.00    +0.000 A 
ATOM     12  C   UNL     1      28.102   0.146  54.797  0.00  0.00    +0.000 A 
ATOM     13  C   UNL     1      28.678  -0.598  53.764  0.00  0.00    +0.000 A 
ATOM     14  C   UNL     1      30.168  -0.657  53.606  0.00  0.00    +0.000 C 
ATOM     15  C   UNL     1      27.842  -1.297  52.883  0.00  0.00    +0.000 A 
ATOM     16  C   UNL     1      26.450  -1.177  52.976  0.00  0.00    +0.000 A 
ENDBRANCH   9  10
ENDBRANCH   7   9
ENDBRANCH   1   3
BRANCH   1  17
ATOM     17  C   UNL     1      20.566   2.261  49.910  0.00  0.00    +0.000 C 
BRANCH  17  18
ATOM     18  C   UNL     1      21.001   1.446  48.686  0.00  0.00    +0.000 C 
BRANCH  18  20
ATOM     19  C   UNL     1      22.595   3.363  48.343  0.00  0.00    +0.000 C 
ATOM     20  C   UNL     1      22.333   1.886  48.081  0.00  0.00    +0.000 C 
ENDBRANCH  18  20
ENDBRANCH  17  18
ENDBRANCH   1  17
BRANCH   2  21
ATOM     21  C   UNL     1      18.611   0.198  51.151  0.00  0.00    +0.000 C 
BRANCH  21  22
ATOM     22  N   UNL     1      17.624   0.200  52.210  0.00  0.00    +0.000 N 
ATOM     23  O   UNL     1      16.379   0.828  51.884  0.00  0.00    +0.000 OA
ATOM     24  C   UNL     1      15.410   0.197  52.628  0.00  0.00    +0.000 A 
ATOM     25  O   UNL     1      14.221   0.471  52.593  0.00  0.00    +0.000 OA
ATOM     26  N   UNL     1      15.989  -0.786  53.341  0.00  0.00    +0.000 N 
ATOM     27  C   UNL     1      17.271  -0.927  52.946  0.00  0.00    +0.000 A 
ATOM     28  O   UNL     1      17.961  -1.912  53.156  0.00  0.00    +0.000 OA
ATOM     29  H   UNL     1      15.548  -1.317  54.041  0.00  0.00    +0.000 HD
ENDBRANCH  21  22
ENDBRANCH   2  21
TORSDOF 8
ENDMDL
MODEL 6
REMARK VINA RESULT:    -8.196      2.771      6.715
REMARK INTER + INTRA:         -13.348
REMARK INTER:                 -11.700
REMARK INTRA:                  -1.649
REMARK UNBOUND:                -1.319
REMARK  Name = 
REMARK  10 active torsions:
REMARK  status: ('A' for Active; 'I' for Inactive)
REMARK    1  A    between atoms: C_1  and  C_2
REMARK    2  A    between atoms: C_2  and  C_3
REMARK    3  A    between atoms: C_3  and  C_4
REMARK    4  A    between atoms: C_4  and  C_5
REMARK    5  A    between atoms: C_5  and  C_15
REMARK    6  A    between atoms: C_6  and  C_7
REMARK    7  A    between atoms: C_7  and  N_8
REMARK    8  A    between atoms: C_19  and  O_20
REMARK    9  A    between atoms: O_20  and  C_21
REMARK   10  A    between atoms: C_24  and  C_25
REMARK                            x       y       z     vdW  Elec       q    Type
REMARK                         _______ _______ _______ _____ _____    ______ ____
ROOT
ATOM      1  C   UNL     1      21.698   2.536  52.049  0.00  0.00    +0.000 C 
ATOM      2  C   UNL     1      22.730   3.411  52.037  0.00  0.00    +0.000 C 
ENDROOT
BRANCH   1   3
ATOM      3  C   UNL     1      21.862   1.274  52.837  0.00  0.00    +0.000 A 
ATOM      4  C   UNL     1      20.891   0.885  53.775  0.00  0.00    +0.000 A 
ATOM      5  C   UNL     1      21.106  -0.184  54.645  0.00  0.00    +0.000 A 
ATOM      6  C   UNL     1      22.284  -0.912  54.568  0.00  0.00    +0.000 A 
ATOM      7  C   UNL     1      23.184  -0.665  53.529  0.00  0.00    +0.000 A 
ATOM      8  C   UNL     1      23.002   0.454  52.706  0.00  0.00    +0.000 A 
BRANCH   7   9
ATOM      9  O   UNL     1      24.270  -1.481  53.267  0.00  0.00    +0.000 OA
BRANCH   9  10
ATOM     10  C   UNL     1      25.535  -1.001  53.559  0.00  0.00    +0.000 A 
ATOM     11  C   UNL     1      25.821  -0.164  54.644  0.00  0.00    +0.000 A 
ATOM     12  C   UNL     1      27.086   0.407  54.784  0.00  0.00    +0.000 A 
ATOM     13  C   UNL     1      28.107   0.085  53.886  0.00  0.00    +0.000 A 
ATOM     14  C   UNL     1      29.458   0.725  54.006  0.00  0.00    +0.000 C 
ATOM     15  C   UNL     1      27.853  -0.854  52.876  0.00  0.00    +0.000 A 
ATOM     16  C   UNL     1      26.571  -1.390  52.710  0.00  0.00    +0.000 A 
ENDBRANCH   9  10
ENDBRANCH   7   9
ENDBRANCH   1   3
BRANCH   1  17
ATOM     17  C   UNL     1      20.330   2.879  51.476  0.00  0.00    +0.000 C 
BRANCH  17  18
ATOM     18  C   UNL     1      20.107   2.473  50.015  0.00  0.00    +0.000 C 
BRANCH  18  20
ATOM     19  C   UNL     1      21.882   1.559  48.482  0.00  0.00    +0.000 C 
ATOM     20  C   UNL     1      20.885   1.230  49.584  0.00  0.00    +0.000 C 
ENDBRANCH  18  20
ENDBRANCH  17  18
ENDBRANCH   1  17
BRANCH   2  21
ATOM     21  C   UNL     1      22.764   4.800  51.458  0.00  0.00    +0.000 C 
BRANCH  21  22
ATOM     22  N   UNL     1      24.157   5.147  51.266  0.00  0.00    +0.000 N 
ATOM     23  O   UNL     1      24.912   4.224  50.474  0.00  0.00    +0.000 OA
ATOM     24  C   UNL     1      25.897   4.951  49.849  0.00  0.00    +0.000 A 
ATOM     25  O   UNL     1      26.724   4.484  49.082  0.00  0.00    +0.000 OA
ATOM     26  N   UNL     1      25.752   6.246  50.185  0.00  0.00    +0.000 N 
ATOM     27  C   UNL     1      24.597   6.403  50.863  0.00  0.00    +0.000 A 
ATOM     28  O   UNL     1      24.024   7.469  51.026  0.00  0.00    +0.000 OA
ATOM     29  H   UNL     1      26.388   6.964  49.970  0.00  0.00    +0.000 HD
ENDBRANCH  21  22
ENDBRANCH   2  21
TORSDOF 8
ENDMDL
MODEL 7
REMARK VINA RESULT:    -8.164      2.798      6.740
REMARK INTER + INTRA:         -13.302
REMARK INTER:                 -11.728
REMARK INTRA:                  -1.574
REMARK UNBOUND:                -1.319
REMARK  Name = 
REMARK  10 active torsions:
REMARK  status: ('A' for Active; 'I' for Inactive)
REMARK    1  A    between atoms: C_1  and  C_2
REMARK    2  A    between atoms: C_2  and  C_3
REMARK    3  A    between atoms: C_3  and  C_4
REMARK    4  A    between atoms: C_4  and  C_5
REMARK    5  A    between atoms: C_5  and  C_15
REMARK    6  A    between atoms: C_6  and  C_7
REMARK    7  A    between atoms: C_7  and  N_8
REMARK    8  A    between atoms: C_19  and  O_20
REMARK    9  A    between atoms: O_20  and  C_21
REMARK   10  A    between atoms: C_24  and  C_25
REMARK                            x       y       z     vdW  Elec       q    Type
REMARK                         _______ _______ _______ _____ _____    ______ ____
ROOT
ATOM      1  C   UNL     1      22.974   2.233  50.219  0.00  0.00    +0.000 C 
ATOM      2  C   UNL     1      24.083   3.008  50.273  0.00  0.00    +0.000 C 
ENDROOT
BRANCH   1   3
ATOM      3  C   UNL     1      22.782   1.213  51.298  0.00  0.00    +0.000 A 
ATOM      4  C   UNL     1      21.676   0.349  51.277  0.00  0.00    +0.000 A 
ATOM      5  C   UNL     1      21.379  -0.482  52.357  0.00  0.00    +0.000 A 
ATOM      6  C   UNL     1      22.209  -0.492  53.469  0.00  0.00    +0.000 A 
ATOM      7  C   UNL     1      23.411   0.217  53.443  0.00  0.00    +0.000 A 
ATOM      8  C   UNL     1      23.668   1.107  52.391  0.00  0.00    +0.000 A 
BRANCH   7   9
ATOM      9  O   UNL     1      24.379   0.090  54.423  0.00  0.00    +0.000 OA
BRANCH   9  10
ATOM     10  C   UNL     1      25.676  -0.193  54.030  0.00  0.00    +0.000 A 
ATOM     11  C   UNL     1      26.004  -1.115  53.030  0.00  0.00    +0.000 A 
ATOM     12  C   UNL     1      27.335  -1.464  52.798  0.00  0.00    +0.000 A 
ATOM     13  C   UNL     1      28.362  -0.837  53.508  0.00  0.00    +0.000 A 
ATOM     14  C   UNL     1      29.791  -1.235  53.292  0.00  0.00    +0.000 C 
ATOM     15  C   UNL     1      28.036   0.179  54.418  0.00  0.00    +0.000 A 
ATOM     16  C   UNL     1      26.698   0.495  54.683  0.00  0.00    +0.000 A 
ENDBRANCH   9  10
ENDBRANCH   7   9
ENDBRANCH   1   3
BRANCH   1  17
ATOM     17  C   UNL     1      21.838   2.499  49.241  0.00  0.00    +0.000 C 
BRANCH  17  18
ATOM     18  C   UNL     1      20.940   3.692  49.585  0.00  0.00    +0.000 C 
BRANCH  18  20
ATOM     19  C   UNL     1      19.802   3.430  51.815  0.00  0.00    +0.000 C 
ATOM     20  C   UNL     1      19.645   3.315  50.305  0.00  0.00    +0.000 C 
ENDBRANCH  18  20
ENDBRANCH  17  18
ENDBRANCH   1  17
BRANCH   2  21
ATOM     21  C   UNL     1      24.431   4.192  49.412  0.00  0.00    +0.000 C 
BRANCH  21  22
ATOM     22  N   UNL     1      24.955   5.217  50.291  0.00  0.00    +0.000 N 
ATOM     23  O   UNL     1      25.950   6.068  49.712  0.00  0.00    +0.000 OA
ATOM     24  C   UNL     1      25.844   7.287  50.340  0.00  0.00    +0.000 A 
ATOM     25  O   UNL     1      26.535   8.260  50.087  0.00  0.00    +0.000 OA
ATOM     26  N   UNL     1      24.828   7.227  51.220  0.00  0.00    +0.000 N 
ATOM     27  C   UNL     1      24.161   6.067  51.054  0.00  0.00    +0.000 A 
ATOM     28  O   UNL     1      23.030   5.849  51.459  0.00  0.00    +0.000 OA
ATOM     29  H   UNL     1      24.608   7.921  51.882  0.00  0.00    +0.000 HD
ENDBRANCH  21  22
ENDBRANCH   2  21
TORSDOF 8
ENDMDL
MODEL 8
REMARK VINA RESULT:    -8.160      1.597      6.365
REMARK INTER + INTRA:         -13.295
REMARK INTER:                 -12.446
REMARK INTRA:                  -0.849
REMARK UNBOUND:                -1.319
REMARK  Name = 
REMARK  10 active torsions:
REMARK  status: ('A' for Active; 'I' for Inactive)
REMARK    1  A    between atoms: C_1  and  C_2
REMARK    2  A    between atoms: C_2  and  C_3
REMARK    3  A    between atoms: C_3  and  C_4
REMARK    4  A    between atoms: C_4  and  C_5
REMARK    5  A    between atoms: C_5  and  C_15
REMARK    6  A    between atoms: C_6  and  C_7
REMARK    7  A    between atoms: C_7  and  N_8
REMARK    8  A    between atoms: C_19  and  O_20
REMARK    9  A    between atoms: O_20  and  C_21
REMARK   10  A    between atoms: C_24  and  C_25
REMARK                            x       y       z     vdW  Elec       q    Type
REMARK                         _______ _______ _______ _____ _____    ______ ____
ROOT
ATOM      1  C   UNL     1      25.018   2.898  50.548  0.00  0.00    +0.000 C 
ATOM      2  C   UNL     1      25.546   2.001  51.413  0.00  0.00    +0.000 C 
ENDROOT
BRANCH   1   3
ATOM      3  C   UNL     1      23.621   2.664  50.064  0.00  0.00    +0.000 A 
ATOM      4  C   UNL     1      23.238   3.051  48.770  0.00  0.00    +0.000 A 
ATOM      5  C   UNL     1      21.905   3.009  48.362  0.00  0.00    +0.000 A 
ATOM      6  C   UNL     1      20.930   2.541  49.232  0.00  0.00    +0.000 A 
ATOM      7  C   UNL     1      21.305   1.980  50.454  0.00  0.00    +0.000 A 
ATOM      8  C   UNL     1      22.631   2.093  50.891  0.00  0.00    +0.000 A 
BRANCH   7   9
ATOM      9  O   UNL     1      20.416   1.311  51.277  0.00  0.00    +0.000 OA
BRANCH   9  10
ATOM     10  C   UNL     1      20.926   0.581  52.337  0.00  0.00    +0.000 A 
ATOM     11  C   UNL     1      20.535   0.764  53.668  0.00  0.00    +0.000 A 
ATOM     12  C   UNL     1      21.205   0.105  54.700  0.00  0.00    +0.000 A 
ATOM     13  C   UNL     1      22.222  -0.808  54.409  0.00  0.00    +0.000 A 
ATOM     14  C   UNL     1      22.973  -1.490  55.513  0.00  0.00    +0.000 C 
ATOM     15  C   UNL     1      22.523  -1.084  53.068  0.00  0.00    +0.000 A 
ATOM     16  C   UNL     1      21.882  -0.388  52.036  0.00  0.00    +0.000 A 
ENDBRANCH   9  10
ENDBRANCH   7   9
ENDBRANCH   1   3
BRANCH   1  17
ATOM     17  C   UNL     1      25.704   4.218  50.221  0.00  0.00    +0.000 C 
BRANCH  17  18
ATOM     18  C   UNL     1      26.850   4.131  49.206  0.00  0.00    +0.000 C 
BRANCH  18  20
ATOM     19  C   UNL     1      28.816   5.380  48.255  0.00  0.00    +0.000 C 
ATOM     20  C   UNL     1      27.377   5.487  48.738  0.00  0.00    +0.000 C 
ENDBRANCH  18  20
ENDBRANCH  17  18
ENDBRANCH   1  17
BRANCH   2  21
ATOM     21  C   UNL     1      26.852   2.085  52.157  0.00  0.00    +0.000 C 
BRANCH  21  22
ATOM     22  N   UNL     1      26.953   0.892  52.973  0.00  0.00    +0.000 N 
ATOM     23  O   UNL     1      26.512  -0.317  52.345  0.00  0.00    +0.000 OA
ATOM     24  C   UNL     1      27.246  -1.340  52.896  0.00  0.00    +0.000 A 
ATOM     25  O   UNL     1      27.139  -2.516  52.585  0.00  0.00    +0.000 OA
ATOM     26  N   UNL     1      28.118  -0.817  53.776  0.00  0.00    +0.000 N 
ATOM     27  C   UNL     1      28.094   0.528  53.680  0.00  0.00    +0.000 A 
ATOM     28  O   UNL     1      28.969   1.272  54.095  0.00  0.00    +0.000 OA
ATOM     29  H   UNL     1      28.683  -1.333  54.393  0.00  0.00    +0.000 HD
ENDBRANCH  21  22
ENDBRANCH   2  21
TORSDOF 8
ENDMDL
MODEL 9
REMARK VINA RESULT:    -8.084      3.984      5.545
REMARK INTER + INTRA:         -13.185
REMARK INTER:                 -11.683
REMARK INTRA:                  -1.502
REMARK UNBOUND:                -1.319
REMARK  Name = 
REMARK  10 active torsions:
REMARK  status: ('A' for Active; 'I' for Inactive)
REMARK    1  A    between atoms: C_1  and  C_2
REMARK    2  A    between atoms: C_2  and  C_3
REMARK    3  A    between atoms: C_3  and  C_4
REMARK    4  A    between atoms: C_4  and  C_5
REMARK    5  A    between atoms: C_5  and  C_15
REMARK    6  A    between atoms: C_6  and  C_7
REMARK    7  A    between atoms: C_7  and  N_8
REMARK    8  A    between atoms: C_19  and  O_20
REMARK    9  A    between atoms: O_20  and  C_21
REMARK   10  A    between atoms: C_24  and  C_25
REMARK                            x       y       z     vdW  Elec       q    Type
REMARK                         _______ _______ _______ _____ _____    ______ ____
ROOT
ATOM      1  C   UNL     1      21.767   0.625  52.043  0.00  0.00    +0.000 C 
ATOM      2  C   UNL     1      20.630  -0.106  52.110  0.00  0.00    +0.000 C 
ENDROOT
BRANCH   1   3
ATOM      3  C   UNL     1      22.000   1.444  50.812  0.00  0.00    +0.000 A 
ATOM      4  C   UNL     1      21.565   0.989  49.557  0.00  0.00    +0.000 A 
ATOM      5  C   UNL     1      21.926   1.644  48.380  0.00  0.00    +0.000 A 
ATOM      6  C   UNL     1      22.701   2.794  48.437  0.00  0.00    +0.000 A 
ATOM      7  C   UNL     1      22.992   3.370  49.675  0.00  0.00    +0.000 A 
ATOM      8  C   UNL     1      22.694   2.672  50.853  0.00  0.00    +0.000 A 
BRANCH   7   9
ATOM      9  O   UNL     1      23.577   4.617  49.803  0.00  0.00    +0.000 OA
BRANCH   9  10
ATOM     10  C   UNL     1      24.873   4.784  49.346  0.00  0.00    +0.000 A 
ATOM     11  C   UNL     1      25.870   3.807  49.458  0.00  0.00    +0.000 A 
ATOM     12  C   UNL     1      27.191   4.103  49.120  0.00  0.00    +0.000 A 
ATOM     13  C   UNL     1      27.520   5.353  48.589  0.00  0.00    +0.000 A 
ATOM     14  C   UNL     1      28.943   5.692  48.260  0.00  0.00    +0.000 C 
ATOM     15  C   UNL     1      26.497   6.283  48.358  0.00  0.00    +0.000 A 
ATOM     16  C   UNL     1      25.180   6.002  48.741  0.00  0.00    +0.000 A 
ENDBRANCH   9  10
ENDBRANCH   7   9
ENDBRANCH   1   3
BRANCH   1  17
ATOM     17  C   UNL     1      22.694   0.804  53.238  0.00  0.00    +0.000 C 
BRANCH  17  18
ATOM     18  C   UNL     1      23.817  -0.233  53.361  0.00  0.00    +0.000 C 
BRANCH  18  20
ATOM     19  C   UNL     1      25.246   1.835  53.240  0.00  0.00    +0.000 C 
ATOM     20  C   UNL     1      25.214   0.321  53.084  0.00  0.00    +0.000 C 
ENDBRANCH  18  20
ENDBRANCH  17  18
ENDBRANCH   1  17
BRANCH   2  21
ATOM     21  C   UNL     1      20.092  -0.882  53.282  0.00  0.00    +0.000 C 
BRANCH  21  22
ATOM     22  N   UNL     1      18.651  -0.731  53.266  0.00  0.00    +0.000 N 
ATOM     23  O   UNL     1      18.128   0.015  52.161  0.00  0.00    +0.000 OA
ATOM     24  C   UNL     1      16.868  -0.477  51.913  0.00  0.00    +0.000 A 
ATOM     25  O   UNL     1      16.129  -0.078  51.026  0.00  0.00    +0.000 OA
ATOM     26  N   UNL     1      16.626  -1.487  52.769  0.00  0.00    +0.000 N 
ATOM     27  C   UNL     1      17.757  -1.782  53.441  0.00  0.00    +0.000 A 
ATOM     28  O   UNL     1      17.960  -2.826  54.039  0.00  0.00    +0.000 OA
ATOM     29  H   UNL     1      15.760  -1.939  52.886  0.00  0.00    +0.000 HD
ENDBRANCH  21  22
ENDBRANCH   2  21
TORSDOF 8
ENDMDL
