MODEL 1
REMARK VINA RESULT:    -7.972      0.000      0.000
REMARK INTER + INTRA:         -10.474
REMARK INTER:                 -10.069
REMARK INTRA:                  -0.406
REMARK UNBOUND:                -0.406
REMARK  Name = 
REMARK  7 active torsions:
REMARK  status: ('A' for Active; 'I' for Inactive)
REMARK    1  A    between atoms: C_1  and  C_2
REMARK    2  A    between atoms: C_2  and  C_3
REMARK    3  A    between atoms: C_5  and  N_6
REMARK    4  A    between atoms: N_6  and  C_7
REMARK    5  A    between atoms: C_7  and  C_8
REMARK    6  A    between atoms: C_19  and  O_20
REMARK    7  A    between atoms: C_22  and  C_23
REMARK                            x       y       z     vdW  Elec       q    Type
REMARK                         _______ _______ _______ _____ _____    ______ ____
ROOT
ATOM      1  N   UNL     1      24.077   3.075  51.632  0.00  0.00    +0.000 N 
ATOM      2  H   UNL     1      23.488   2.500  51.092  0.00  0.00    +0.000 HD
ENDROOT
BRANCH   1   5
ATOM      3  C   UNL     1      25.713   5.830  49.647  0.00  0.00    +0.000 A 
ATOM      4  C   UNL     1      25.374   4.532  50.093  0.00  0.00    +0.000 A 
ATOM      5  C   UNL     1      24.489   4.335  51.152  0.00  0.00    +0.000 A 
ATOM      6  C   UNL     1      23.921   5.507  51.666  0.00  0.00    +0.000 A 
ATOM      7  N   UNL     1      24.213   6.763  51.286  0.00  0.00    +0.000 NA
ATOM      8  C   UNL     1      25.113   6.922  50.286  0.00  0.00    +0.000 A 
ATOM      9  C   UNL     1      25.362   8.353  49.904  0.00  0.00    +0.000 C 
BRANCH   3  11
ATOM     10  C   UNL     1      27.810   4.900  48.635  0.00  0.00    +0.000 C 
ATOM     11  C   UNL     1      26.734   5.974  48.546  0.00  0.00    +0.000 C 
ENDBRANCH   3  11
BRANCH   6  12
ATOM     12  O   UNL     1      22.934   5.410  52.613  0.00  0.00    +0.000 OA
ATOM     13  H   UNL     1      22.139   4.955  52.418  0.00  0.00    +0.000 HD
ENDBRANCH   6  12
ENDBRANCH   1   5
BRANCH   1  14
ATOM     14  C   UNL     1      24.545   2.634  52.956  0.00  0.00    +0.000 C 
BRANCH  14  15
ATOM     15  C   UNL     1      25.688   1.655  52.966  0.00  0.00    +0.000 A 
ATOM     16  N   UNL     1      25.714   0.385  52.596  0.00  0.00    +0.000 NA
ATOM     17  C   UNL     1      26.989  -0.033  52.932  0.00  0.00    +0.000 A 
ATOM     18  C   UNL     1      27.661  -1.262  52.828  0.00  0.00    +0.000 A 
ATOM     19 CL   UNL     1      26.794  -2.555  52.132  0.00  0.00    +0.000 Cl
ATOM     20  C   UNL     1      28.973  -1.400  53.290  0.00  0.00    +0.000 A 
ATOM     21  C   UNL     1      29.635  -0.304  53.853  0.00  0.00    +0.000 A 
ATOM     22  C   UNL     1      29.000   0.941  53.961  0.00  0.00    +0.000 A 
ATOM     23 CL   UNL     1      29.813   2.281  54.651  0.00  0.00    +0.000 Cl
ATOM     24  C   UNL     1      27.688   1.026  53.496  0.00  0.00    +0.000 A 
ATOM     25  O   UNL     1      26.858   2.111  53.516  0.00  0.00    +0.000 OA
ENDBRANCH  14  15
ENDBRANCH   1  14
TORSDOF 5
ENDMDL
MODEL 2
REMARK VINA RESULT:    -7.961      4.420      5.634
REMARK INTER + INTRA:         -10.461
REMARK INTER:                 -10.089
REMARK INTRA:                  -0.372
REMARK UNBOUND:                -0.406
REMARK  Name = 
REMARK  7 active torsions:
REMARK  status: ('A' for Active; 'I' for Inactive)
REMARK    1  A    between atoms: C_1  and  C_2
REMARK    2  A    between atoms: C_2  and  C_3
REMARK    3  A    between atoms: C_5  and  N_6
REMARK    4  A    between atoms: N_6  and  C_7
REMARK    5  A    between atoms: C_7  and  C_8
REMARK    6  A    between atoms: C_19  and  O_20
REMARK    7  A    between atoms: C_22  and  C_23
REMARK                            x       y       z     vdW  Elec       q    Type
REMARK                         _______ _______ _______ _____ _____    ______ ____
ROOT
ATOM      1  N   UNL     1      23.022  -0.423  53.483  0.00  0.00    +0.000 N 
ATOM      2  H   UNL     1      23.279  -1.219  54.003  0.00  0.00    +0.000 HD
ENDROOT
BRANCH   1   5
ATOM      3  C   UNL     1      20.027   0.375  51.338  0.00  0.00    +0.000 A 
ATOM      4  C   UNL     1      21.370   0.295  51.771  0.00  0.00    +0.000 A 
ATOM      5  C   UNL     1      21.707  -0.277  52.997  0.00  0.00    +0.000 A 
ATOM      6  C   UNL     1      20.627  -0.822  53.704  0.00  0.00    +0.000 A 
ATOM      7  N   UNL     1      19.333  -0.766  53.343  0.00  0.00    +0.000 NA
ATOM      8  C   UNL     1      19.036  -0.161  52.168  0.00  0.00    +0.000 A 
ATOM      9  C   UNL     1      17.573  -0.166  51.827  0.00  0.00    +0.000 C 
BRANCH   3  11
ATOM     10  C   UNL     1      20.950   1.119  49.128  0.00  0.00    +0.000 C 
ATOM     11  C   UNL     1      19.727   1.074  50.035  0.00  0.00    +0.000 C 
ENDBRANCH   3  11
BRANCH   6  12
ATOM     12  O   UNL     1      20.871  -1.530  54.852  0.00  0.00    +0.000 OA
ATOM     13  H   UNL     1      20.379  -1.349  55.629  0.00  0.00    +0.000 HD
ENDBRANCH   6  12
ENDBRANCH   1   5
BRANCH   1  14
ATOM     14  C   UNL     1      24.003   0.636  53.198  0.00  0.00    +0.000 C 
BRANCH  14  15
ATOM     15  C   UNL     1      25.448   0.212  53.161  0.00  0.00    +0.000 A 
ATOM     16  N   UNL     1      25.968  -0.998  53.043  0.00  0.00    +0.000 NA
ATOM     17  C   UNL     1      27.328  -0.790  53.184  0.00  0.00    +0.000 A 
ATOM     18  C   UNL     1      28.442  -1.646  53.180  0.00  0.00    +0.000 A 
ATOM     19 CL   UNL     1      28.135  -3.306  52.939  0.00  0.00    +0.000 Cl
ATOM     20  C   UNL     1      29.730  -1.143  53.381  0.00  0.00    +0.000 A 
ATOM     21  C   UNL     1      29.923   0.229  53.575  0.00  0.00    +0.000 A 
ATOM     22  C   UNL     1      28.837   1.114  53.571  0.00  0.00    +0.000 A 
ATOM     23 CL   UNL     1      29.075   2.793  53.809  0.00  0.00    +0.000 Cl
ATOM     24  C   UNL     1      27.570   0.564  53.379  0.00  0.00    +0.000 A 
ATOM     25  O   UNL     1      26.366   1.210  53.361  0.00  0.00    +0.000 OA
ENDBRANCH  14  15
ENDBRANCH   1  14
TORSDOF 5
ENDMDL
MODEL 3
REMARK VINA RESULT:    -7.935      3.098      5.636
REMARK INTER + INTRA:         -10.429
REMARK INTER:                  -9.883
REMARK INTRA:                  -0.546
REMARK UNBOUND:                -0.406
REMARK  Name = 
REMARK  7 active torsions:
REMARK  status: ('A' for Active; 'I' for Inactive)
REMARK    1  A    between atoms: C_1  and  C_2
REMARK    2  A    between atoms: C_2  and  C_3
REMARK    3  A    between atoms: C_5  and  N_6
REMARK    4  A    between atoms: N_6  and  C_7
REMARK    5  A    between atoms: C_7  and  C_8
REMARK    6  A    between atoms: C_19  and  O_20
REMARK    7  A    between atoms: C_22  and  C_23
REMARK                            x       y       z     vdW  Elec       q    Type
REMARK                         _______ _______ _______ _____ _____    ______ ____
ROOT
ATOM      1  N   UNL     1      24.004   1.938  51.037  0.00  0.00    +0.000 N 
ATOM      2  H   UNL     1      24.302   1.888  50.101  0.00  0.00    +0.000 HD
ENDROOT
BRANCH   1   5
ATOM      3  C   UNL     1      21.208   0.439  53.072  0.00  0.00    +0.000 A 
ATOM      4  C   UNL     1      22.466   0.996  52.746  0.00  0.00    +0.000 A 
ATOM      5  C   UNL     1      22.787   1.350  51.436  0.00  0.00    +0.000 A 
ATOM      6  C   UNL     1      21.747   1.182  50.514  0.00  0.00    +0.000 A 
ATOM      7  N   UNL     1      20.538   0.652  50.768  0.00  0.00    +0.000 NA
ATOM      8  C   UNL     1      20.275   0.274  52.042  0.00  0.00    +0.000 A 
ATOM      9  C   UNL     1      18.895  -0.283  52.246  0.00  0.00    +0.000 C 
BRANCH   3  11
ATOM     10  C   UNL     1      21.620  -1.325  54.807  0.00  0.00    +0.000 C 
ATOM     11  C   UNL     1      20.954   0.009  54.496  0.00  0.00    +0.000 C 
ENDBRANCH   3  11
BRANCH   6  12
ATOM     12  O   UNL     1      21.916   1.632  49.229  0.00  0.00    +0.000 OA
ATOM     13  H   UNL     1      21.223   1.543  48.605  0.00  0.00    +0.000 HD
ENDBRANCH   6  12
ENDBRANCH   1   5
BRANCH   1  14
ATOM     14  C   UNL     1      24.820   2.631  52.047  0.00  0.00    +0.000 C 
BRANCH  14  15
ATOM     15  C   UNL     1      25.988   1.859  52.603  0.00  0.00    +0.000 A 
ATOM     16  N   UNL     1      27.059   2.297  53.244  0.00  0.00    +0.000 NA
ATOM     17  C   UNL     1      27.833   1.163  53.410  0.00  0.00    +0.000 A 
ATOM     18  C   UNL     1      29.091   0.929  53.989  0.00  0.00    +0.000 A 
ATOM     19 CL   UNL     1      29.886   2.275  54.670  0.00  0.00    +0.000 Cl
ATOM     20  C   UNL     1      29.653  -0.350  53.984  0.00  0.00    +0.000 A 
ATOM     21  C   UNL     1      28.955  -1.418  53.409  0.00  0.00    +0.000 A 
ATOM     22  C   UNL     1      27.692  -1.224  52.835  0.00  0.00    +0.000 A 
ATOM     23 CL   UNL     1      26.840  -2.533  52.131  0.00  0.00    +0.000 Cl
ATOM     24  C   UNL     1      27.179   0.072  52.853  0.00  0.00    +0.000 A 
ATOM     25  O   UNL     1      25.993   0.514  52.339  0.00  0.00    +0.000 OA
ENDBRANCH  14  15
ENDBRANCH   1  14
TORSDOF 5
ENDMDL
MODEL 4
REMARK VINA RESULT:    -7.915      1.751      2.362
REMARK INTER + INTRA:         -10.403
REMARK INTER:                  -9.898
REMARK INTRA:                  -0.504
REMARK UNBOUND:                -0.406
REMARK  Name = 
REMARK  7 active torsions:
REMARK  status: ('A' for Active; 'I' for Inactive)
REMARK    1  A    between atoms: C_1  and  C_2
REMARK    2  A    between atoms: C_2  and  C_3
REMARK    3  A    between atoms: C_5  and  N_6
REMARK    4  A    between atoms: N_6  and  C_7
REMARK    5  A    between atoms: C_7  and  C_8
REMARK    6  A    between atoms: C_19  and  O_20
REMARK    7  A    between atoms: C_22  and  C_23
REMARK                            x       y       z     vdW  Elec       q    Type
REMARK                         _______ _______ _______ _____ _____    ______ ____
ROOT
ATOM      1  N   UNL     1      24.607   3.814  52.765  0.00  0.00    +0.000 N 
ATOM      2  H   UNL     1      25.059   4.490  53.320  0.00  0.00    +0.000 HD
ENDROOT
BRANCH   1   5
ATOM      3  C   UNL     1      23.219   3.618  49.266  0.00  0.00    +0.000 A 
ATOM      4  C   UNL     1      23.702   3.211  50.531  0.00  0.00    +0.000 A 
ATOM      5  C   UNL     1      24.144   4.138  51.474  0.00  0.00    +0.000 A 
ATOM      6  C   UNL     1      23.992   5.477  51.093  0.00  0.00    +0.000 A 
ATOM      7  N   UNL     1      23.548   5.918  49.903  0.00  0.00    +0.000 NA
ATOM      8  C   UNL     1      23.172   4.989  48.991  0.00  0.00    +0.000 A 
ATOM      9  C   UNL     1      22.663   5.566  47.701  0.00  0.00    +0.000 C 
BRANCH   3  11
ATOM     10  C   UNL     1      21.833   1.569  48.857  0.00  0.00    +0.000 C 
ATOM     11  C   UNL     1      22.828   2.559  48.266  0.00  0.00    +0.000 C 
ENDBRANCH   3  11
BRANCH   6  12
ATOM     12  O   UNL     1      24.266   6.465  52.004  0.00  0.00    +0.000 OA
ATOM     13  H   UNL     1      24.847   6.295  52.719  0.00  0.00    +0.000 HD
ENDBRANCH   6  12
ENDBRANCH   1   5
BRANCH   1  14
ATOM     14  C   UNL     1      24.403   2.446  53.268  0.00  0.00    +0.000 C 
BRANCH  14  15
ATOM     15  C   UNL     1      25.590   1.523  53.191  0.00  0.00    +0.000 A 
ATOM     16  N   UNL     1      25.655   0.266  52.785  0.00  0.00    +0.000 NA
ATOM     17  C   UNL     1      26.965  -0.098  53.041  0.00  0.00    +0.000 A 
ATOM     18  C   UNL     1      27.687  -1.290  52.867  0.00  0.00    +0.000 A 
ATOM     19 CL   UNL     1      26.846  -2.606  52.184  0.00  0.00    +0.000 Cl
ATOM     20  C   UNL     1      29.027  -1.376  53.255  0.00  0.00    +0.000 A 
ATOM     21  C   UNL     1      29.667  -0.263  53.811  0.00  0.00    +0.000 A 
ATOM     22  C   UNL     1      28.981   0.946  53.987  0.00  0.00    +0.000 A 
ATOM     23 CL   UNL     1      29.766   2.307  54.669  0.00  0.00    +0.000 Cl
ATOM     24  C   UNL     1      27.643   0.979  53.596  0.00  0.00    +0.000 A 
ATOM     25  O   UNL     1      26.765   2.022  53.689  0.00  0.00    +0.000 OA
ENDBRANCH  14  15
ENDBRANCH   1  14
TORSDOF 5
ENDMDL
MODEL 5
REMARK VINA RESULT:    -7.894      1.879      3.242
REMARK INTER + INTRA:         -10.376
REMARK INTER:                  -9.869
REMARK INTRA:                  -0.507
REMARK UNBOUND:                -0.406
REMARK  Name = 
REMARK  7 active torsions:
REMARK  status: ('A' for Active; 'I' for Inactive)
REMARK    1  A    between atoms: C_1  and  C_2
REMARK    2  A    between atoms: C_2  and  C_3
REMARK    3  A    between atoms: C_5  and  N_6
REMARK    4  A    between atoms: N_6  and  C_7
REMARK    5  A    between atoms: C_7  and  C_8
REMARK    6  A    between atoms: C_19  and  O_20
REMARK    7  A    between atoms: C_22  and  C_23
REMARK                            x       y       z     vdW  Elec       q    Type
REMARK                         _______ _______ _______ _____ _____    ______ ____
ROOT
ATOM      1  N   UNL     1      24.298   3.590  52.903  0.00  0.00    +0.000 N 
ATOM      2  H   UNL     1      24.518   4.279  53.570  0.00  0.00    +0.000 HD
ENDROOT
BRANCH   1   5
ATOM      3  C   UNL     1      23.230   3.500  49.290  0.00  0.00    +0.000 A 
ATOM      4  C   UNL     1      23.567   3.057  50.589  0.00  0.00    +0.000 A 
ATOM      5  C   UNL     1      23.977   3.949  51.578  0.00  0.00    +0.000 A 
ATOM      6  C   UNL     1      23.947   5.297  51.199  0.00  0.00    +0.000 A 
ATOM      7  N   UNL     1      23.643   5.772  49.979  0.00  0.00    +0.000 NA
ATOM      8  C   UNL     1      23.295   4.873  49.026  0.00  0.00    +0.000 A 
ATOM      9  C   UNL     1      22.944   5.487  47.701  0.00  0.00    +0.000 C 
BRANCH   3  11
ATOM     10  C   UNL     1      21.768   1.538  48.737  0.00  0.00    +0.000 C 
ATOM     11  C   UNL     1      22.866   2.473  48.246  0.00  0.00    +0.000 C 
ENDBRANCH   3  11
BRANCH   6  12
ATOM     12  O   UNL     1      24.197   6.261  52.142  0.00  0.00    +0.000 OA
ATOM     13  H   UNL     1      24.966   6.792  52.078  0.00  0.00    +0.000 HD
ENDBRANCH   6  12
ENDBRANCH   1   5
BRANCH   1  14
ATOM     14  C   UNL     1      24.297   2.165  53.270  0.00  0.00    +0.000 C 
BRANCH  14  15
ATOM     15  C   UNL     1      25.647   1.525  53.461  0.00  0.00    +0.000 A 
ATOM     16  N   UNL     1      26.773   2.052  53.911  0.00  0.00    +0.000 NA
ATOM     17  C   UNL     1      27.699   1.035  53.760  0.00  0.00    +0.000 A 
ATOM     18  C   UNL     1      29.075   0.936  54.023  0.00  0.00    +0.000 A 
ATOM     19 CL   UNL     1      29.832   2.311  54.689  0.00  0.00    +0.000 Cl
ATOM     20  C   UNL     1      29.775  -0.239  53.733  0.00  0.00    +0.000 A 
ATOM     21  C   UNL     1      29.101  -1.336  53.186  0.00  0.00    +0.000 A 
ATOM     22  C   UNL     1      27.727  -1.278  52.923  0.00  0.00    +0.000 A 
ATOM     23 CL   UNL     1      26.904  -2.623  52.253  0.00  0.00    +0.000 Cl
ATOM     24  C   UNL     1      27.075  -0.081  53.218  0.00  0.00    +0.000 A 
ATOM     25  O   UNL     1      25.757   0.228  53.029  0.00  0.00    +0.000 OA
ENDBRANCH  14  15
ENDBRANCH   1  14
TORSDOF 5
ENDMDL
MODEL 6
REMARK VINA RESULT:    -7.819      3.756      7.087
REMARK INTER + INTRA:         -10.281
REMARK INTER:                  -9.790
REMARK INTRA:                  -0.491
REMARK UNBOUND:                -0.406
REMARK  Name = 
REMARK  7 active torsions:
REMARK  status: ('A' for Active; 'I' for Inactive)
REMARK    1  A    between atoms: C_1  and  C_2
REMARK    2  A    between atoms: C_2  and  C_3
REMARK    3  A    between atoms: C_5  and  N_6
REMARK    4  A    between atoms: N_6  and  C_7
REMARK    5  A    between atoms: C_7  and  C_8
REMARK    6  A    between atoms: C_19  and  O_20
REMARK    7  A    between atoms: C_22  and  C_23
REMARK                            x       y       z     vdW  Elec       q    Type
REMARK                         _______ _______ _______ _____ _____    ______ ____
ROOT
ATOM      1  N   UNL     1      25.918   2.321  52.897  0.00  0.00    +0.000 N 
ATOM      2  H   UNL     1      25.726   3.028  53.555  0.00  0.00    +0.000 HD
ENDROOT
BRANCH   1   5
ATOM      3  C   UNL     1      27.897  -0.884  53.036  0.00  0.00    +0.000 A 
ATOM      4  C   UNL     1      26.838   0.016  52.777  0.00  0.00    +0.000 A 
ATOM      5  C   UNL     1      26.915   1.358  53.149  0.00  0.00    +0.000 A 
ATOM      6  C   UNL     1      28.139   1.738  53.714  0.00  0.00    +0.000 A 
ATOM      7  N   UNL     1      29.173   0.924  53.989  0.00  0.00    +0.000 NA
ATOM      8  C   UNL     1      29.046  -0.384  53.659  0.00  0.00    +0.000 A 
ATOM      9  C   UNL     1      30.255  -1.217  53.976  0.00  0.00    +0.000 C 
BRANCH   3  11
ATOM     10  C   UNL     1      26.450  -2.560  51.858  0.00  0.00    +0.000 C 
ATOM     11  C   UNL     1      27.716  -2.337  52.675  0.00  0.00    +0.000 C 
ENDBRANCH   3  11
BRANCH   6  12
ATOM     12  O   UNL     1      28.366   3.063  53.983  0.00  0.00    +0.000 OA
ATOM     13  H   UNL     1      27.734   3.708  53.731  0.00  0.00    +0.000 HD
ENDBRANCH   6  12
ENDBRANCH   1   5
BRANCH   1  14
ATOM     14  C   UNL     1      25.170   2.252  51.631  0.00  0.00    +0.000 C 
BRANCH  14  15
ATOM     15  C   UNL     1      23.806   1.618  51.698  0.00  0.00    +0.000 A 
ATOM     16  N   UNL     1      22.803   1.684  50.838  0.00  0.00    +0.000 NA
ATOM     17  C   UNL     1      21.776   1.008  51.473  0.00  0.00    +0.000 A 
ATOM     18  C   UNL     1      20.445   0.727  51.124  0.00  0.00    +0.000 A 
ATOM     19 CL   UNL     1      19.914   1.288  49.604  0.00  0.00    +0.000 Cl
ATOM     20  C   UNL     1      19.609   0.032  52.001  0.00  0.00    +0.000 A 
ATOM     21  C   UNL     1      20.099  -0.404  53.237  0.00  0.00    +0.000 A 
ATOM     22  C   UNL     1      21.425  -0.153  53.612  0.00  0.00    +0.000 A 
ATOM     23 CL   UNL     1      22.023  -0.687  55.126  0.00  0.00    +0.000 Cl
ATOM     24  C   UNL     1      22.218   0.554  52.708  0.00  0.00    +0.000 A 
ATOM     25  O   UNL     1      23.520   0.940  52.855  0.00  0.00    +0.000 OA
ENDBRANCH  14  15
ENDBRANCH   1  14
TORSDOF 5
ENDMDL
MODEL 7
REMARK VINA RESULT:    -7.782      4.766      7.549
REMARK INTER + INTRA:         -10.235
REMARK INTER:                  -9.647
REMARK INTRA:                  -0.588
REMARK UNBOUND:                -0.406
REMARK  Name = 
REMARK  7 active torsions:
REMARK  status: ('A' for Active; 'I' for Inactive)
REMARK    1  A    between atoms: C_1  and  C_2
REMARK    2  A    between atoms: C_2  and  C_3
REMARK    3  A    between atoms: C_5  and  N_6
REMARK    4  A    between atoms: N_6  and  C_7
REMARK    5  A    between atoms: C_7  and  C_8
REMARK    6  A    between atoms: C_19  and  O_20
REMARK    7  A    between atoms: C_22  and  C_23
REMARK                            x       y       z     vdW  Elec       q    Type
REMARK                         _______ _______ _______ _____ _____    ______ ____
ROOT
ATOM      1  N   UNL     1      24.204  -0.880  53.391  0.00  0.00    +0.000 N 
ATOM      2  H   UNL     1      24.073  -1.480  52.623  0.00  0.00    +0.000 HD
ENDROOT
BRANCH   1   5
ATOM      3  C   UNL     1      27.782   0.220  53.836  0.00  0.00    +0.000 A 
ATOM      4  C   UNL     1      26.647  -0.619  53.770  0.00  0.00    +0.000 A 
ATOM      5  C   UNL     1      25.377  -0.106  53.505  0.00  0.00    +0.000 A 
ATOM      6  C   UNL     1      25.347   1.268  53.237  0.00  0.00    +0.000 A 
ATOM      7  N   UNL     1      26.392   2.112  53.294  0.00  0.00    +0.000 NA
ATOM      8  C   UNL     1      27.603   1.588  53.602  0.00  0.00    +0.000 A 
ATOM      9  C   UNL     1      28.720   2.592  53.617  0.00  0.00    +0.000 C 
BRANCH   3  11
ATOM     10  C   UNL     1      29.416  -1.621  53.357  0.00  0.00    +0.000 C 
ATOM     11  C   UNL     1      29.113  -0.390  54.201  0.00  0.00    +0.000 C 
ENDBRANCH   3  11
BRANCH   6  12
ATOM     12  O   UNL     1      24.170   1.841  52.828  0.00  0.00    +0.000 OA
ATOM     13  H   UNL     1      24.161   2.726  52.519  0.00  0.00    +0.000 HD
ENDBRANCH   6  12
ENDBRANCH   1   5
BRANCH   1  14
ATOM     14  C   UNL     1      23.181  -0.773  54.444  0.00  0.00    +0.000 C 
BRANCH  14  15
ATOM     15  C   UNL     1      21.756  -0.651  53.976  0.00  0.00    +0.000 A 
ATOM     16  N   UNL     1      20.741  -1.483  54.139  0.00  0.00    +0.000 NA
ATOM     17  C   UNL     1      19.718  -0.908  53.406  0.00  0.00    +0.000 A 
ATOM     18  C   UNL     1      18.390  -1.281  53.143  0.00  0.00    +0.000 A 
ATOM     19 CL   UNL     1      17.842  -2.728  53.859  0.00  0.00    +0.000 Cl
ATOM     20  C   UNL     1      17.577  -0.497  52.320  0.00  0.00    +0.000 A 
ATOM     21  C   UNL     1      18.081   0.681  51.758  0.00  0.00    +0.000 A 
ATOM     22  C   UNL     1      19.396   1.092  52.010  0.00  0.00    +0.000 A 
ATOM     23 CL   UNL     1      20.011   2.535  51.321  0.00  0.00    +0.000 Cl
ATOM     24  C   UNL     1      20.172   0.270  52.827  0.00  0.00    +0.000 A 
ATOM     25  O   UNL     1      21.477   0.440  53.194  0.00  0.00    +0.000 OA
ENDBRANCH  14  15
ENDBRANCH   1  14
TORSDOF 5
ENDMDL
MODEL 8
REMARK VINA RESULT:    -7.725      3.361      7.615
REMARK INTER + INTRA:         -10.163
REMARK INTER:                  -9.426
REMARK INTRA:                  -0.737
REMARK UNBOUND:                -0.406
REMARK  Name = 
REMARK  7 active torsions:
REMARK  status: ('A' for Active; 'I' for Inactive)
REMARK    1  A    between atoms: C_1  and  C_2
REMARK    2  A    between atoms: C_2  and  C_3
REMARK    3  A    between atoms: C_5  and  N_6
REMARK    4  A    between atoms: N_6  and  C_7
REMARK    5  A    between atoms: C_7  and  C_8
REMARK    6  A    between atoms: C_19  and  O_20
REMARK    7  A    between atoms: C_22  and  C_23
REMARK                            x       y       z     vdW  Elec       q    Type
REMARK                         _______ _______ _______ _____ _____    ______ ____
ROOT
ATOM      1  N   UNL     1      24.679   3.968  52.127  0.00  0.00    +0.000 N 
ATOM      2  H   UNL     1      24.806   4.646  52.829  0.00  0.00    +0.000 HD
ENDROOT
BRANCH   1   5
ATOM      3  C   UNL     1      24.708   0.299  52.990  0.00  0.00    +0.000 A 
ATOM      4  C   UNL     1      24.247   1.626  52.836  0.00  0.00    +0.000 A 
ATOM      5  C   UNL     1      25.075   2.632  52.339  0.00  0.00    +0.000 A 
ATOM      6  C   UNL     1      26.346   2.199  51.941  0.00  0.00    +0.000 A 
ATOM      7  N   UNL     1      26.838   0.955  52.072  0.00  0.00    +0.000 NA
ATOM      8  C   UNL     1      26.023   0.012  52.604  0.00  0.00    +0.000 A 
ATOM      9  C   UNL     1      26.639  -1.355  52.690  0.00  0.00    +0.000 C 
BRANCH   3  11
ATOM     10  C   UNL     1      22.399  -0.678  52.971  0.00  0.00    +0.000 C 
ATOM     11  C   UNL     1      23.783  -0.723  53.603  0.00  0.00    +0.000 C 
ENDBRANCH   3  11
BRANCH   6  12
ATOM     12  O   UNL     1      27.184   3.083  51.310  0.00  0.00    +0.000 OA
ATOM     13  H   UNL     1      27.508   2.891  50.452  0.00  0.00    +0.000 HD
ENDBRANCH   6  12
ENDBRANCH   1   5
BRANCH   1  14
ATOM     14  C   UNL     1      24.074   4.331  50.835  0.00  0.00    +0.000 C 
BRANCH  14  15
ATOM     15  C   UNL     1      24.766   5.418  50.057  0.00  0.00    +0.000 A 
ATOM     16  N   UNL     1      24.297   6.580  49.634  0.00  0.00    +0.000 NA
ATOM     17  C   UNL     1      25.336   7.104  48.885  0.00  0.00    +0.000 A 
ATOM     18  C   UNL     1      25.492   8.289  48.148  0.00  0.00    +0.000 A 
ATOM     19 CL   UNL     1      24.174   9.371  48.142  0.00  0.00    +0.000 Cl
ATOM     20  C   UNL     1      26.675   8.545  47.450  0.00  0.00    +0.000 A 
ATOM     21  C   UNL     1      27.724   7.621  47.490  0.00  0.00    +0.000 A 
ATOM     22  C   UNL     1      27.608   6.434  48.226  0.00  0.00    +0.000 A 
ATOM     23 CL   UNL     1      28.894   5.303  48.273  0.00  0.00    +0.000 Cl
ATOM     24  C   UNL     1      26.405   6.218  48.896  0.00  0.00    +0.000 A 
ATOM     25  O   UNL     1      26.044   5.137  49.650  0.00  0.00    +0.000 OA
ENDBRANCH  14  15
ENDBRANCH   1  14
TORSDOF 5
ENDMDL
MODEL 9
REMARK VINA RESULT:    -7.691      3.413      7.547
REMARK INTER + INTRA:         -10.120
REMARK INTER:                  -9.403
REMARK INTRA:                  -0.716
REMARK UNBOUND:                -0.406
REMARK  Name = 
REMARK  7 active torsions:
REMARK  status: ('A' for Active; 'I' for Inactive)
REMARK    1  A    between atoms: C_1  and  C_2
REMARK    2  A    between atoms: C_2  and  C_3
REMARK    3  A    between atoms: C_5  and  N_6
REMARK    4  A    between atoms: N_6  and  C_7
REMARK    5  A    between atoms: C_7  and  C_8
REMARK    6  A    between atoms: C_19  and  O_20
REMARK    7  A    between atoms: C_22  and  C_23
REMARK                            x       y       z     vdW  Elec       q    Type
REMARK                         _______ _______ _______ _____ _____    ______ ____
ROOT
ATOM      1  N   UNL     1      24.707   3.977  51.833  0.00  0.00    +0.000 N 
ATOM      2  H   UNL     1      24.755   4.694  52.506  0.00  0.00    +0.000 HD
ENDROOT
BRANCH   1   5
ATOM      3  C   UNL     1      24.590   0.351  52.857  0.00  0.00    +0.000 A 
ATOM      4  C   UNL     1      24.161   1.667  52.571  0.00  0.00    +0.000 A 
ATOM      5  C   UNL     1      25.060   2.654  52.167  0.00  0.00    +0.000 A 
ATOM      6  C   UNL     1      26.378   2.209  51.997  0.00  0.00    +0.000 A 
ATOM      7  N   UNL     1      26.840   0.975  52.261  0.00  0.00    +0.000 NA
ATOM      8  C   UNL     1      25.948   0.053  52.699  0.00  0.00    +0.000 A 
ATOM      9  C   UNL     1      26.540  -1.305  52.945  0.00  0.00    +0.000 C 
BRANCH   3  11
ATOM     10  C   UNL     1      22.182  -0.349  52.827  0.00  0.00    +0.000 C 
ATOM     11  C   UNL     1      23.577  -0.646  53.362  0.00  0.00    +0.000 C 
ENDBRANCH   3  11
BRANCH   6  12
ATOM     12  O   UNL     1      27.307   3.067  51.467  0.00  0.00    +0.000 OA
ATOM     13  H   UNL     1      27.619   3.792  51.973  0.00  0.00    +0.000 HD
ENDBRANCH   6  12
ENDBRANCH   1   5
BRANCH   1  14
ATOM     14  C   UNL     1      24.266   4.266  50.459  0.00  0.00    +0.000 C 
BRANCH  14  15
ATOM     15  C   UNL     1      25.210   5.079  49.614  0.00  0.00    +0.000 A 
ATOM     16  N   UNL     1      26.475   4.848  49.303  0.00  0.00    +0.000 NA
ATOM     17  C   UNL     1      26.857   5.978  48.604  0.00  0.00    +0.000 A 
ATOM     18  C   UNL     1      28.064   6.385  48.012  0.00  0.00    +0.000 A 
ATOM     19 CL   UNL     1      29.376   5.302  48.119  0.00  0.00    +0.000 Cl
ATOM     20  C   UNL     1      28.167   7.628  47.382  0.00  0.00    +0.000 A 
ATOM     21  C   UNL     1      27.057   8.477  47.326  0.00  0.00    +0.000 A 
ATOM     22  C   UNL     1      25.833   8.099  47.894  0.00  0.00    +0.000 A 
ATOM     23 CL   UNL     1      24.475   9.140  47.823  0.00  0.00    +0.000 Cl
ATOM     24  C   UNL     1      25.783   6.854  48.521  0.00  0.00    +0.000 A 
ATOM     25  O   UNL     1      24.724   6.279  49.164  0.00  0.00    +0.000 OA
ENDBRANCH  14  15
ENDBRANCH   1  14
TORSDOF 5
ENDMDL
