MODEL 1
REMARK VINA RESULT:    -7.906      0.000      0.000
REMARK INTER + INTRA:         -10.652
REMARK INTER:                  -9.986
REMARK INTRA:                  -0.666
REMARK UNBOUND:                -0.666
REMARK  Name = 
REMARK  7 active torsions:
REMARK  status: ('A' for Active; 'I' for Inactive)
REMARK    1  A    between atoms: C_1  and  C_2
REMARK    2  A    between atoms: C_2  and  C_3
REMARK    3  A    between atoms: C_3  and  C_4
REMARK    4  A    between atoms: C_4  and  N_5
REMARK    5  A    between atoms: C_10  and  C_11
REMARK    6  A    between atoms: C_14  and  N_15
REMARK    7  A    between atoms: C_25  and  C_26
REMARK                            x       y       z     vdW  Elec       q    Type
REMARK                         _______ _______ _______ _____ _____    ______ ____
ROOT
ATOM      1  N   UNL     1      24.069   4.528  50.532  0.00  0.00    +0.000 N 
ATOM      2  C   UNL     1      23.353   4.167  49.410  0.00  0.00    +0.000 C 
ATOM      3  O   UNL     1      23.188   4.933  48.469  0.00  0.00    +0.000 OA
ATOM      4  N   UNL     1      22.856   2.852  49.501  0.00  0.00    +0.000 N 
ATOM      5  N   UNL     1      23.154   2.131  50.673  0.00  0.00    +0.000 NA
ATOM      6  C   UNL     1      22.115   1.649  51.313  0.00  0.00    +0.000 C 
ATOM      7  C   UNL     1      20.714   1.945  50.911  0.00  0.00    +0.000 A 
ATOM      8  C   UNL     1      19.879   2.600  51.821  0.00  0.00    +0.000 A 
ATOM      9  C   UNL     1      18.652   3.012  51.352  0.00  0.00    +0.000 A 
ATOM     10  C   UNL     1      18.240   2.762  50.065  0.00  0.00    +0.000 A 
ATOM     11  C   UNL     1      19.031   2.081  49.157  0.00  0.00    +0.000 A 
ATOM     12  C   UNL     1      20.306   1.682  49.576  0.00  0.00    +0.000 A 
ATOM     13  C   UNL     1      21.304   1.067  48.622  0.00  0.00    +0.000 C 
ATOM     14  C   UNL     1      22.483   2.028  48.314  0.00  0.00    +0.000 C 
ATOM     15  C   UNL     1      22.202   2.756  46.995  0.00  0.00    +0.000 C 
ATOM     16  O   UNL     1      17.018   3.298  49.807  0.00  0.00    +0.000 OA
ATOM     17  C   UNL     1      16.795   4.046  51.022  0.00  0.00    +0.000 C 
ATOM     18  O   UNL     1      17.744   3.734  52.059  0.00  0.00    +0.000 OA
ATOM     19  H   UNL     1      24.008   3.952  51.329  0.00  0.00    +0.000 HD
ENDROOT
BRANCH   6  20
ATOM     20  C   UNL     1      22.344   0.782  52.507  0.00  0.00    +0.000 A 
ATOM     21  C   UNL     1      23.653   0.490  52.899  0.00  0.00    +0.000 A 
ATOM     22  C   UNL     1      23.884  -0.362  53.982  0.00  0.00    +0.000 A 
ATOM     23  C   UNL     1      22.819  -0.974  54.646  0.00  0.00    +0.000 A 
ATOM     24  C   UNL     1      21.514  -0.624  54.296  0.00  0.00    +0.000 A 
ATOM     25  C   UNL     1      21.272   0.233  53.217  0.00  0.00    +0.000 A 
BRANCH  23  26
ATOM     26  N   UNL     1      23.057  -1.754  55.785  0.00  0.00    +0.000 N 
ATOM     27  H   UNL     1      22.520  -1.615  56.599  0.00  0.00    +0.000 HD
ATOM     28  H   UNL     1      23.761  -2.443  55.773  0.00  0.00    +0.000 HD
ENDBRANCH  23  26
ENDBRANCH   6  20
BRANCH   1  29
ATOM     29  C   UNL     1      24.898   5.707  50.603  0.00  0.00    +0.000 C 
BRANCH  29  30
ATOM     30  C   UNL     1      24.248   6.858  51.366  0.00  0.00    +0.000 C 
BRANCH  30  32
ATOM     31  C   UNL     1      21.962   7.576  50.583  0.00  0.00    +0.000 C 
ATOM     32  C   UNL     1      23.461   7.810  50.462  0.00  0.00    +0.000 C 
ENDBRANCH  30  32
ENDBRANCH  29  30
ENDBRANCH   1  29
TORSDOF 5
ENDMDL
MODEL 2
REMARK VINA RESULT:    -7.630      2.986      5.505
REMARK INTER + INTRA:         -10.303
REMARK INTER:                  -9.738
REMARK INTRA:                  -0.565
REMARK UNBOUND:                -0.666
REMARK  Name = 
REMARK  7 active torsions:
REMARK  status: ('A' for Active; 'I' for Inactive)
REMARK    1  A    between atoms: C_1  and  C_2
REMARK    2  A    between atoms: C_2  and  C_3
REMARK    3  A    between atoms: C_3  and  C_4
REMARK    4  A    between atoms: C_4  and  N_5
REMARK    5  A    between atoms: C_10  and  C_11
REMARK    6  A    between atoms: C_14  and  N_15
REMARK    7  A    between atoms: C_25  and  C_26
REMARK                            x       y       z     vdW  Elec       q    Type
REMARK                         _______ _______ _______ _____ _____    ______ ____
ROOT
ATOM      1  N   UNL     1      20.876   6.624  49.682  0.00  0.00    +0.000 N 
ATOM      2  C   UNL     1      20.291   5.467  49.211  0.00  0.00    +0.000 C 
ATOM      3  O   UNL     1      19.087   5.262  49.304  0.00  0.00    +0.000 OA
ATOM      4  N   UNL     1      21.236   4.593  48.639  0.00  0.00    +0.000 N 
ATOM      5  N   UNL     1      22.580   5.013  48.631  0.00  0.00    +0.000 NA
ATOM      6  C   UNL     1      23.429   4.184  49.189  0.00  0.00    +0.000 C 
ATOM      7  C   UNL     1      23.000   2.948  49.897  0.00  0.00    +0.000 A 
ATOM      8  C   UNL     1      23.309   2.811  51.254  0.00  0.00    +0.000 A 
ATOM      9  C   UNL     1      22.745   1.742  51.912  0.00  0.00    +0.000 A 
ATOM     10  C   UNL     1      21.949   0.825  51.271  0.00  0.00    +0.000 A 
ATOM     11  C   UNL     1      21.661   0.916  49.920  0.00  0.00    +0.000 A 
ATOM     12  C   UNL     1      22.175   2.013  49.218  0.00  0.00    +0.000 A 
ATOM     13  C   UNL     1      21.799   2.287  47.780  0.00  0.00    +0.000 C 
ATOM     14  C   UNL     1      20.885   3.535  47.647  0.00  0.00    +0.000 C 
ATOM     15  C   UNL     1      19.424   3.077  47.573  0.00  0.00    +0.000 C 
ATOM     16  O   UNL     1      21.465  -0.117  52.123  0.00  0.00    +0.000 OA
ATOM     17  C   UNL     1      21.915   0.415  53.388  0.00  0.00    +0.000 C 
ATOM     18  O   UNL     1      22.860   1.492  53.243  0.00  0.00    +0.000 OA
ATOM     19  H   UNL     1      21.858   6.654  49.754  0.00  0.00    +0.000 HD
ENDROOT
BRANCH   6  20
ATOM     20  C   UNL     1      24.887   4.501  49.131  0.00  0.00    +0.000 A 
ATOM     21  C   UNL     1      25.294   5.798  48.807  0.00  0.00    +0.000 A 
ATOM     22  C   UNL     1      26.653   6.096  48.697  0.00  0.00    +0.000 A 
ATOM     23  C   UNL     1      27.617   5.097  48.850  0.00  0.00    +0.000 A 
ATOM     24  C   UNL     1      27.209   3.821  49.242  0.00  0.00    +0.000 A 
ATOM     25  C   UNL     1      25.850   3.514  49.361  0.00  0.00    +0.000 A 
BRANCH  23  26
ATOM     26  N   UNL     1      28.979   5.425  48.827  0.00  0.00    +0.000 N 
ATOM     27  H   UNL     1      29.604   4.976  49.440  0.00  0.00    +0.000 HD
ATOM     28  H   UNL     1      29.311   6.105  48.197  0.00  0.00    +0.000 HD
ENDBRANCH  23  26
ENDBRANCH   6  20
BRANCH   1  29
ATOM     29  C   UNL     1      20.126   7.792  50.077  0.00  0.00    +0.000 C 
BRANCH  29  30
ATOM     30  C   UNL     1      20.199   8.930  49.062  0.00  0.00    +0.000 C 
BRANCH  30  32
ATOM     31  C   UNL     1      20.512  11.426  49.222  0.00  0.00    +0.000 C 
ATOM     32  C   UNL     1      19.626  10.246  49.592  0.00  0.00    +0.000 C 
ENDBRANCH  30  32
ENDBRANCH  29  30
ENDBRANCH   1  29
TORSDOF 5
ENDMDL
MODEL 3
REMARK VINA RESULT:    -7.363      2.019      2.648
REMARK INTER + INTRA:          -9.965
REMARK INTER:                  -9.635
REMARK INTRA:                  -0.330
REMARK UNBOUND:                -0.666
REMARK  Name = 
REMARK  7 active torsions:
REMARK  status: ('A' for Active; 'I' for Inactive)
REMARK    1  A    between atoms: C_1  and  C_2
REMARK    2  A    between atoms: C_2  and  C_3
REMARK    3  A    between atoms: C_3  and  C_4
REMARK    4  A    between atoms: C_4  and  N_5
REMARK    5  A    between atoms: C_10  and  C_11
REMARK    6  A    between atoms: C_14  and  N_15
REMARK    7  A    between atoms: C_25  and  C_26
REMARK                            x       y       z     vdW  Elec       q    Type
REMARK                         _______ _______ _______ _____ _____    ______ ____
ROOT
ATOM      1  N   UNL     1      23.298   5.961  50.717  0.00  0.00    +0.000 N 
ATOM      2  C   UNL     1      22.680   5.452  49.594  0.00  0.00    +0.000 C 
ATOM      3  O   UNL     1      21.885   6.111  48.934  0.00  0.00    +0.000 OA
ATOM      4  N   UNL     1      23.072   4.125  49.330  0.00  0.00    +0.000 N 
ATOM      5  N   UNL     1      23.999   3.540  50.214  0.00  0.00    +0.000 NA
ATOM      6  C   UNL     1      23.619   2.409  50.757  0.00  0.00    +0.000 C 
ATOM      7  C   UNL     1      22.256   1.842  50.563  0.00  0.00    +0.000 A 
ATOM      8  C   UNL     1      21.443   1.653  51.685  0.00  0.00    +0.000 A 
ATOM      9  C   UNL     1      20.135   1.295  51.448  0.00  0.00    +0.000 A 
ATOM     10  C   UNL     1      19.651   1.090  50.179  0.00  0.00    +0.000 A 
ATOM     11  C   UNL     1      20.446   1.232  49.055  0.00  0.00    +0.000 A 
ATOM     12  C   UNL     1      21.772   1.640  49.244  0.00  0.00    +0.000 A 
ATOM     13  C   UNL     1      22.680   1.968  48.081  0.00  0.00    +0.000 C 
ATOM     14  C   UNL     1      22.973   3.489  47.984  0.00  0.00    +0.000 C 
ATOM     15  C   UNL     1      22.020   4.117  46.962  0.00  0.00    +0.000 C 
ATOM     16  O   UNL     1      18.326   0.790  50.180  0.00  0.00    +0.000 OA
ATOM     17  C   UNL     1      18.008   0.994  51.573  0.00  0.00    +0.000 C 
ATOM     18  O   UNL     1      19.177   1.149  52.400  0.00  0.00    +0.000 OA
ATOM     19  H   UNL     1      23.773   5.334  51.311  0.00  0.00    +0.000 HD
ENDROOT
BRANCH   6  20
ATOM     20  C   UNL     1      24.581   1.667  51.624  0.00  0.00    +0.000 A 
ATOM     21  C   UNL     1      25.953   1.822  51.411  0.00  0.00    +0.000 A 
ATOM     22  C   UNL     1      26.865   1.095  52.178  0.00  0.00    +0.000 A 
ATOM     23  C   UNL     1      26.421   0.165  53.121  0.00  0.00    +0.000 A 
ATOM     24  C   UNL     1      25.054   0.065  53.378  0.00  0.00    +0.000 A 
ATOM     25  C   UNL     1      24.132   0.794  52.620  0.00  0.00    +0.000 A 
BRANCH  23  26
ATOM     26  N   UNL     1      27.343  -0.493  53.947  0.00  0.00    +0.000 N 
ATOM     27  H   UNL     1      28.292  -0.230  53.933  0.00  0.00    +0.000 HD
ATOM     28  H   UNL     1      27.042  -1.218  54.542  0.00  0.00    +0.000 HD
ENDBRANCH  23  26
ENDBRANCH   6  20
BRANCH   1  29
ATOM     29  C   UNL     1      23.283   7.360  51.070  0.00  0.00    +0.000 C 
BRANCH  29  30
ATOM     30  C   UNL     1      24.367   8.172  50.367  0.00  0.00    +0.000 C 
BRANCH  30  32
ATOM     31  C   UNL     1      26.844   8.427  49.976  0.00  0.00    +0.000 C 
ATOM     32  C   UNL     1      25.722   7.462  50.331  0.00  0.00    +0.000 C 
ENDBRANCH  30  32
ENDBRANCH  29  30
ENDBRANCH   1  29
TORSDOF 5
ENDMDL
MODEL 4
REMARK VINA RESULT:    -7.151      2.314      6.093
REMARK INTER + INTRA:          -9.698
REMARK INTER:                  -8.915
REMARK INTRA:                  -0.783
REMARK UNBOUND:                -0.666
REMARK  Name = 
REMARK  7 active torsions:
REMARK  status: ('A' for Active; 'I' for Inactive)
REMARK    1  A    between atoms: C_1  and  C_2
REMARK    2  A    between atoms: C_2  and  C_3
REMARK    3  A    between atoms: C_3  and  C_4
REMARK    4  A    between atoms: C_4  and  N_5
REMARK    5  A    between atoms: C_10  and  C_11
REMARK    6  A    between atoms: C_14  and  N_15
REMARK    7  A    between atoms: C_25  and  C_26
REMARK                            x       y       z     vdW  Elec       q    Type
REMARK                         _______ _______ _______ _____ _____    ______ ____
ROOT
ATOM      1  N   UNL     1      21.172   3.221  48.777  0.00  0.00    +0.000 N 
ATOM      2  C   UNL     1      21.346   4.564  49.039  0.00  0.00    +0.000 C 
ATOM      3  O   UNL     1      20.940   5.434  48.277  0.00  0.00    +0.000 OA
ATOM      4  N   UNL     1      22.031   4.782  50.250  0.00  0.00    +0.000 N 
ATOM      5  N   UNL     1      22.418   3.645  50.984  0.00  0.00    +0.000 NA
ATOM      6  C   UNL     1      23.696   3.572  51.272  0.00  0.00    +0.000 C 
ATOM      7  C   UNL     1      24.694   4.547  50.755  0.00  0.00    +0.000 A 
ATOM      8  C   UNL     1      25.736   4.077  49.949  0.00  0.00    +0.000 A 
ATOM      9  C   UNL     1      26.531   5.026  49.349  0.00  0.00    +0.000 A 
ATOM     10  C   UNL     1      26.347   6.371  49.556  0.00  0.00    +0.000 A 
ATOM     11  C   UNL     1      25.349   6.861  50.379  0.00  0.00    +0.000 A 
ATOM     12  C   UNL     1      24.485   5.934  50.976  0.00  0.00    +0.000 A 
ATOM     13  C   UNL     1      23.274   6.367  51.771  0.00  0.00    +0.000 C 
ATOM     14  C   UNL     1      21.949   6.054  51.026  0.00  0.00    +0.000 C 
ATOM     15  C   UNL     1      21.479   7.314  50.291  0.00  0.00    +0.000 C 
ATOM     16  O   UNL     1      27.215   7.123  48.829  0.00  0.00    +0.000 OA
ATOM     17  C   UNL     1      27.844   6.101  48.026  0.00  0.00    +0.000 C 
ATOM     18  O   UNL     1      27.534   4.766  48.470  0.00  0.00    +0.000 OA
ATOM     19  H   UNL     1      21.678   2.572  49.318  0.00  0.00    +0.000 HD
ENDROOT
BRANCH   6  20
ATOM     20  C   UNL     1      24.176   2.454  52.138  0.00  0.00    +0.000 A 
ATOM     21  C   UNL     1      25.248   2.674  53.007  0.00  0.00    +0.000 A 
ATOM     22  C   UNL     1      25.743   1.625  53.784  0.00  0.00    +0.000 A 
ATOM     23  C   UNL     1      25.215   0.338  53.662  0.00  0.00    +0.000 A 
ATOM     24  C   UNL     1      24.102   0.139  52.846  0.00  0.00    +0.000 A 
ATOM     25  C   UNL     1      23.594   1.185  52.068  0.00  0.00    +0.000 A 
BRANCH  23  26
ATOM     26  N   UNL     1      25.659  -0.686  54.510  0.00  0.00    +0.000 N 
ATOM     27  H   UNL     1      25.597  -0.578  55.487  0.00  0.00    +0.000 HD
ATOM     28  H   UNL     1      26.031  -1.514  54.130  0.00  0.00    +0.000 HD
ENDBRANCH  23  26
ENDBRANCH   6  20
BRANCH   1  29
ATOM     29  C   UNL     1      20.290   2.717  47.752  0.00  0.00    +0.000 C 
BRANCH  29  30
ATOM     30  C   UNL     1      18.831   2.639  48.195  0.00  0.00    +0.000 C 
BRANCH  30  32
ATOM     31  C   UNL     1      18.260   0.901  49.929  0.00  0.00    +0.000 C 
ATOM     32  C   UNL     1      18.671   2.346  49.688  0.00  0.00    +0.000 C 
ENDBRANCH  30  32
ENDBRANCH  29  30
ENDBRANCH   1  29
TORSDOF 5
ENDMDL
MODEL 5
REMARK VINA RESULT:    -6.897      3.180      6.417
REMARK INTER + INTRA:          -9.377
REMARK INTER:                  -8.651
REMARK INTRA:                  -0.726
REMARK UNBOUND:                -0.666
REMARK  Name = 
REMARK  7 active torsions:
REMARK  status: ('A' for Active; 'I' for Inactive)
REMARK    1  A    between atoms: C_1  and  C_2
REMARK    2  A    between atoms: C_2  and  C_3
REMARK    3  A    between atoms: C_3  and  C_4
REMARK    4  A    between atoms: C_4  and  N_5
REMARK    5  A    between atoms: C_10  and  C_11
REMARK    6  A    between atoms: C_14  and  N_15
REMARK    7  A    between atoms: C_25  and  C_26
REMARK                            x       y       z     vdW  Elec       q    Type
REMARK                         _______ _______ _______ _____ _____    ______ ____
ROOT
ATOM      1  N   UNL     1      16.678  -0.319  50.360  0.00  0.00    +0.000 N 
ATOM      2  C   UNL     1      16.702   1.049  50.186  0.00  0.00    +0.000 C 
ATOM      3  O   UNL     1      15.981   1.615  49.373  0.00  0.00    +0.000 OA
ATOM      4  N   UNL     1      17.636   1.674  51.036  0.00  0.00    +0.000 N 
ATOM      5  N   UNL     1      18.374   0.844  51.902  0.00  0.00    +0.000 NA
ATOM      6  C   UNL     1      19.677   0.956  51.809  0.00  0.00    +0.000 C 
ATOM      7  C   UNL     1      20.341   1.798  50.777  0.00  0.00    +0.000 A 
ATOM      8  C   UNL     1      21.198   1.184  49.859  0.00  0.00    +0.000 A 
ATOM      9  C   UNL     1      21.651   1.962  48.818  0.00  0.00    +0.000 A 
ATOM     10  C   UNL     1      21.318   3.289  48.699  0.00  0.00    +0.000 A 
ATOM     11  C   UNL     1      20.505   3.931  49.616  0.00  0.00    +0.000 A 
ATOM     12  C   UNL     1      19.982   3.168  50.667  0.00  0.00    +0.000 A 
ATOM     13  C   UNL     1      18.968   3.732  51.636  0.00  0.00    +0.000 C 
ATOM     14  C   UNL     1      17.560   3.112  51.429  0.00  0.00    +0.000 C 
ATOM     15  C   UNL     1      16.725   4.051  50.553  0.00  0.00    +0.000 C 
ATOM     16  O   UNL     1      21.839   3.847  47.573  0.00  0.00    +0.000 OA
ATOM     17  C   UNL     1      22.389   2.679  46.928  0.00  0.00    +0.000 C 
ATOM     18  O   UNL     1      22.418   1.523  47.786  0.00  0.00    +0.000 OA
ATOM     19  H   UNL     1      17.403  -0.734  50.882  0.00  0.00    +0.000 HD
ENDROOT
BRANCH   6  20
ATOM     20  C   UNL     1      20.535   0.191  52.762  0.00  0.00    +0.000 A 
ATOM     21  C   UNL     1      19.984  -0.880  53.470  0.00  0.00    +0.000 A 
ATOM     22  C   UNL     1      20.759  -1.571  54.404  0.00  0.00    +0.000 A 
ATOM     23  C   UNL     1      22.066  -1.168  54.684  0.00  0.00    +0.000 A 
ATOM     24  C   UNL     1      22.633  -0.143  53.925  0.00  0.00    +0.000 A 
ATOM     25  C   UNL     1      21.868   0.551  52.983  0.00  0.00    +0.000 A 
BRANCH  23  26
ATOM     26  N   UNL     1      22.863  -1.922  55.556  0.00  0.00    +0.000 N 
ATOM     27  H   UNL     1      23.309  -2.738  55.233  0.00  0.00    +0.000 HD
ATOM     28  H   UNL     1      22.977  -1.637  56.491  0.00  0.00    +0.000 HD
ENDBRANCH  23  26
ENDBRANCH   6  20
BRANCH   1  29
ATOM     29  C   UNL     1      15.650  -1.173  49.816  0.00  0.00    +0.000 C 
BRANCH  29  30
ATOM     30  C   UNL     1      14.861  -1.924  50.885  0.00  0.00    +0.000 C 
BRANCH  30  32
ATOM     31  C   UNL     1      15.554  -3.540  52.692  0.00  0.00    +0.000 C 
ATOM     32  C   UNL     1      15.638  -2.105  52.190  0.00  0.00    +0.000 C 
ENDBRANCH  30  32
ENDBRANCH  29  30
ENDBRANCH   1  29
TORSDOF 5
ENDMDL
MODEL 6
REMARK VINA RESULT:    -6.396      3.663      5.374
REMARK INTER + INTRA:          -8.745
REMARK INTER:                  -7.710
REMARK INTRA:                  -1.034
REMARK UNBOUND:                -0.666
REMARK  Name = 
REMARK  7 active torsions:
REMARK  status: ('A' for Active; 'I' for Inactive)
REMARK    1  A    between atoms: C_1  and  C_2
REMARK    2  A    between atoms: C_2  and  C_3
REMARK    3  A    between atoms: C_3  and  C_4
REMARK    4  A    between atoms: C_4  and  N_5
REMARK    5  A    between atoms: C_10  and  C_11
REMARK    6  A    between atoms: C_14  and  N_15
REMARK    7  A    between atoms: C_25  and  C_26
REMARK                            x       y       z     vdW  Elec       q    Type
REMARK                         _______ _______ _______ _____ _____    ______ ____
ROOT
ATOM      1  N   UNL     1      19.707   3.378  51.385  0.00  0.00    +0.000 N 
ATOM      2  C   UNL     1      18.858   3.752  50.365  0.00  0.00    +0.000 C 
ATOM      3  O   UNL     1      18.888   4.873  49.871  0.00  0.00    +0.000 OA
ATOM      4  N   UNL     1      17.987   2.709  49.993  0.00  0.00    +0.000 N 
ATOM      5  N   UNL     1      18.108   1.491  50.687  0.00  0.00    +0.000 NA
ATOM      6  C   UNL     1      17.006   1.053  51.246  0.00  0.00    +0.000 C 
ATOM      7  C   UNL     1      15.744   1.842  51.264  0.00  0.00    +0.000 A 
ATOM      8  C   UNL     1      15.199   2.206  52.499  0.00  0.00    +0.000 A 
ATOM      9  C   UNL     1      14.135   3.079  52.473  0.00  0.00    +0.000 A 
ATOM     10  C   UNL     1      13.601   3.546  51.297  0.00  0.00    +0.000 A 
ATOM     11  C   UNL     1      14.097   3.170  50.061  0.00  0.00    +0.000 A 
ATOM     12  C   UNL     1      15.208   2.318  50.038  0.00  0.00    +0.000 A 
ATOM     13  C   UNL     1      15.919   1.966  48.752  0.00  0.00    +0.000 C 
ATOM     14  C   UNL     1      17.319   2.630  48.661  0.00  0.00    +0.000 C 
ATOM     15  C   UNL     1      17.208   3.917  47.836  0.00  0.00    +0.000 C 
ATOM     16  O   UNL     1      12.591   4.431  51.510  0.00  0.00    +0.000 OA
ATOM     17  C   UNL     1      12.671   4.584  52.943  0.00  0.00    +0.000 C 
ATOM     18  O   UNL     1      13.530   3.611  53.567  0.00  0.00    +0.000 OA
ATOM     19  H   UNL     1      19.513   2.541  51.868  0.00  0.00    +0.000 HD
ENDROOT
BRANCH   6  20
ATOM     20  C   UNL     1      17.019  -0.283  51.912  0.00  0.00    +0.000 A 
ATOM     21  C   UNL     1      15.922  -1.135  51.758  0.00  0.00    +0.000 A 
ATOM     22  C   UNL     1      15.895  -2.366  52.417  0.00  0.00    +0.000 A 
ATOM     23  C   UNL     1      16.930  -2.735  53.279  0.00  0.00    +0.000 A 
ATOM     24  C   UNL     1      18.054  -1.913  53.375  0.00  0.00    +0.000 A 
ATOM     25  C   UNL     1      18.093  -0.681  52.713  0.00  0.00    +0.000 A 
BRANCH  23  26
ATOM     26  N   UNL     1      16.937  -4.008  53.864  0.00  0.00    +0.000 N 
ATOM     27  H   UNL     1      17.772  -4.526  53.906  0.00  0.00    +0.000 HD
ATOM     28  H   UNL     1      16.106  -4.384  54.235  0.00  0.00    +0.000 HD
ENDBRANCH  23  26
ENDBRANCH   6  20
BRANCH   1  29
ATOM     29  C   UNL     1      20.860   4.147  51.785  0.00  0.00    +0.000 C 
BRANCH  29  30
ATOM     30  C   UNL     1      22.053   3.284  52.186  0.00  0.00    +0.000 C 
BRANCH  30  32
ATOM     31  C   UNL     1      21.887   0.882  52.934  0.00  0.00    +0.000 C 
ATOM     32  C   UNL     1      21.917   1.826  51.741  0.00  0.00    +0.000 C 
ENDBRANCH  30  32
ENDBRANCH  29  30
ENDBRANCH   1  29
TORSDOF 5
ENDMDL
MODEL 7
REMARK VINA RESULT:    -6.356      4.182      6.275
REMARK INTER + INTRA:          -8.693
REMARK INTER:                  -7.544
REMARK INTRA:                  -1.150
REMARK UNBOUND:                -0.666
REMARK  Name = 
REMARK  7 active torsions:
REMARK  status: ('A' for Active; 'I' for Inactive)
REMARK    1  A    between atoms: C_1  and  C_2
REMARK    2  A    between atoms: C_2  and  C_3
REMARK    3  A    between atoms: C_3  and  C_4
REMARK    4  A    between atoms: C_4  and  N_5
REMARK    5  A    between atoms: C_10  and  C_11
REMARK    6  A    between atoms: C_14  and  N_15
REMARK    7  A    between atoms: C_25  and  C_26
REMARK                            x       y       z     vdW  Elec       q    Type
REMARK                         _______ _______ _______ _____ _____    ______ ____
ROOT
ATOM      1  N   UNL     1      17.190   2.344  47.936  0.00  0.00    +0.000 N 
ATOM      2  C   UNL     1      15.853   2.008  47.954  0.00  0.00    +0.000 C 
ATOM      3  O   UNL     1      15.036   2.547  47.217  0.00  0.00    +0.000 OA
ATOM      4  N   UNL     1      15.573   1.005  48.903  0.00  0.00    +0.000 N 
ATOM      5  N   UNL     1      16.655   0.514  49.658  0.00  0.00    +0.000 NA
ATOM      6  C   UNL     1      16.507   0.581  50.959  0.00  0.00    +0.000 C 
ATOM      7  C   UNL     1      15.340   1.246  51.602  0.00  0.00    +0.000 A 
ATOM      8  C   UNL     1      15.571   2.340  52.443  0.00  0.00    +0.000 A 
ATOM      9  C   UNL     1      14.463   3.032  52.875  0.00  0.00    +0.000 A 
ATOM     10  C   UNL     1      13.186   2.654  52.538  0.00  0.00    +0.000 A 
ATOM     11  C   UNL     1      12.930   1.553  51.741  0.00  0.00    +0.000 A 
ATOM     12  C   UNL     1      14.027   0.843  51.239  0.00  0.00    +0.000 A 
ATOM     13  C   UNL     1      13.864  -0.281  50.242  0.00  0.00    +0.000 C 
ATOM     14  C   UNL     1      14.378   0.114  48.832  0.00  0.00    +0.000 C 
ATOM     15  C   UNL     1      13.191   0.573  47.979  0.00  0.00    +0.000 C 
ATOM     16  O   UNL     1      12.253   3.507  53.036  0.00  0.00    +0.000 OA
ATOM     17  C   UNL     1      13.101   4.543  53.577  0.00  0.00    +0.000 C 
ATOM     18  O   UNL     1      14.490   4.166  53.624  0.00  0.00    +0.000 OA
ATOM     19  H   UNL     1      17.761   2.022  48.671  0.00  0.00    +0.000 HD
ENDROOT
BRANCH   6  20
ATOM     20  C   UNL     1      17.558  -0.013  51.836  0.00  0.00    +0.000 A 
ATOM     21  C   UNL     1      17.218  -1.055  52.703  0.00  0.00    +0.000 A 
ATOM     22  C   UNL     1      18.178  -1.586  53.567  0.00  0.00    +0.000 A 
ATOM     23  C   UNL     1      19.466  -1.049  53.618  0.00  0.00    +0.000 A 
ATOM     24  C   UNL     1      19.820  -0.057  52.702  0.00  0.00    +0.000 A 
ATOM     25  C   UNL     1      18.868   0.477  51.828  0.00  0.00    +0.000 A 
BRANCH  23  26
ATOM     26  N   UNL     1      20.445  -1.647  54.422  0.00  0.00    +0.000 N 
ATOM     27  H   UNL     1      20.672  -2.596  54.297  0.00  0.00    +0.000 HD
ATOM     28  H   UNL     1      20.907  -1.118  55.112  0.00  0.00    +0.000 HD
ENDBRANCH  23  26
ENDBRANCH   6  20
BRANCH   1  29
ATOM     29  C   UNL     1      17.796   3.144  46.899  0.00  0.00    +0.000 C 
BRANCH  29  30
ATOM     30  C   UNL     1      19.306   3.303  47.062  0.00  0.00    +0.000 C 
BRANCH  30  32
ATOM     31  C   UNL     1      20.702   1.897  48.620  0.00  0.00    +0.000 C 
ATOM     32  C   UNL     1      19.779   3.101  48.503  0.00  0.00    +0.000 C 
ENDBRANCH  30  32
ENDBRANCH  29  30
ENDBRANCH   1  29
TORSDOF 5
ENDMDL
MODEL 8
REMARK VINA RESULT:    -6.281      4.741      6.931
REMARK INTER + INTRA:          -8.600
REMARK INTER:                  -8.078
REMARK INTRA:                  -0.522
REMARK UNBOUND:                -0.666
REMARK  Name = 
REMARK  7 active torsions:
REMARK  status: ('A' for Active; 'I' for Inactive)
REMARK    1  A    between atoms: C_1  and  C_2
REMARK    2  A    between atoms: C_2  and  C_3
REMARK    3  A    between atoms: C_3  and  C_4
REMARK    4  A    between atoms: C_4  and  N_5
REMARK    5  A    between atoms: C_10  and  C_11
REMARK    6  A    between atoms: C_14  and  N_15
REMARK    7  A    between atoms: C_25  and  C_26
REMARK                            x       y       z     vdW  Elec       q    Type
REMARK                         _______ _______ _______ _____ _____    ______ ____
ROOT
ATOM      1  N   UNL     1      15.769   3.427  52.206  0.00  0.00    +0.000 N 
ATOM      2  C   UNL     1      15.200   2.897  51.067  0.00  0.00    +0.000 C 
ATOM      3  O   UNL     1      14.074   3.206  50.698  0.00  0.00    +0.000 OA
ATOM      4  N   UNL     1      16.059   1.985  50.423  0.00  0.00    +0.000 N 
ATOM      5  N   UNL     1      17.319   1.762  51.010  0.00  0.00    +0.000 NA
ATOM      6  C   UNL     1      17.597   0.508  51.279  0.00  0.00    +0.000 C 
ATOM      7  C   UNL     1      16.610  -0.591  51.101  0.00  0.00    +0.000 A 
ATOM      8  C   UNL     1      16.231  -1.340  52.219  0.00  0.00    +0.000 A 
ATOM      9  C   UNL     1      15.192  -2.226  52.047  0.00  0.00    +0.000 A 
ATOM     10  C   UNL     1      14.576  -2.404  50.833  0.00  0.00    +0.000 A 
ATOM     11  C   UNL     1      14.959  -1.705  49.702  0.00  0.00    +0.000 A 
ATOM     12  C   UNL     1      15.982  -0.759  49.838  0.00  0.00    +0.000 A 
ATOM     13  C   UNL     1      16.374   0.162  48.705  0.00  0.00    +0.000 C 
ATOM     14  C   UNL     1      15.949   1.630  48.977  0.00  0.00    +0.000 C 
ATOM     15  C   UNL     1      14.617   1.903  48.271  0.00  0.00    +0.000 C 
ATOM     16  O   UNL     1      13.548  -3.291  50.907  0.00  0.00    +0.000 OA
ATOM     17  C   UNL     1      13.493  -3.515  52.332  0.00  0.00    +0.000 C 
ATOM     18  O   UNL     1      14.630  -2.975  53.032  0.00  0.00    +0.000 OA
ATOM     19  H   UNL     1      16.588   3.005  52.557  0.00  0.00    +0.000 HD
ENDROOT
BRANCH   6  20
ATOM     20  C   UNL     1      18.953   0.169  51.805  0.00  0.00    +0.000 A 
ATOM     21  C   UNL     1      19.073  -0.372  53.088  0.00  0.00    +0.000 A 
ATOM     22  C   UNL     1      20.337  -0.645  53.615  0.00  0.00    +0.000 A 
ATOM     23  C   UNL     1      21.492  -0.330  52.895  0.00  0.00    +0.000 A 
ATOM     24  C   UNL     1      21.365   0.144  51.590  0.00  0.00    +0.000 A 
ATOM     25  C   UNL     1      20.103   0.415  51.050  0.00  0.00    +0.000 A 
BRANCH  23  26
ATOM     26  N   UNL     1      22.750  -0.691  53.395  0.00  0.00    +0.000 N 
ATOM     27  H   UNL     1      23.200  -0.118  54.058  0.00  0.00    +0.000 HD
ATOM     28  H   UNL     1      23.185  -1.518  53.085  0.00  0.00    +0.000 HD
ENDBRANCH  23  26
ENDBRANCH   6  20
BRANCH   1  29
ATOM     29  C   UNL     1      15.228   4.563  52.912  0.00  0.00    +0.000 C 
BRANCH  29  30
ATOM     30  C   UNL     1      14.247   4.177  54.016  0.00  0.00    +0.000 C 
BRANCH  30  32
ATOM     31  C   UNL     1      11.841   3.994  54.746  0.00  0.00    +0.000 C 
ATOM     32  C   UNL     1      12.788   4.454  53.647  0.00  0.00    +0.000 C 
ENDBRANCH  30  32
ENDBRANCH  29  30
ENDBRANCH   1  29
TORSDOF 5
ENDMDL
MODEL 9
REMARK VINA RESULT:    -6.268      2.770      6.422
REMARK INTER + INTRA:          -8.582
REMARK INTER:                  -7.748
REMARK INTRA:                  -0.834
REMARK UNBOUND:                -0.666
REMARK  Name = 
REMARK  7 active torsions:
REMARK  status: ('A' for Active; 'I' for Inactive)
REMARK    1  A    between atoms: C_1  and  C_2
REMARK    2  A    between atoms: C_2  and  C_3
REMARK    3  A    between atoms: C_3  and  C_4
REMARK    4  A    between atoms: C_4  and  N_5
REMARK    5  A    between atoms: C_10  and  C_11
REMARK    6  A    between atoms: C_14  and  N_15
REMARK    7  A    between atoms: C_25  and  C_26
REMARK                            x       y       z     vdW  Elec       q    Type
REMARK                         _______ _______ _______ _____ _____    ______ ____
ROOT
ATOM      1  N   UNL     1      21.129   1.569  52.076  0.00  0.00    +0.000 N 
ATOM      2  C   UNL     1      21.703   1.724  50.832  0.00  0.00    +0.000 C 
ATOM      3  O   UNL     1      22.893   1.512  50.633  0.00  0.00    +0.000 OA
ATOM      4  N   UNL     1      20.768   2.148  49.867  0.00  0.00    +0.000 N 
ATOM      5  N   UNL     1      19.441   2.340  50.298  0.00  0.00    +0.000 NA
ATOM      6  C   UNL     1      18.939   3.527  50.054  0.00  0.00    +0.000 C 
ATOM      7  C   UNL     1      19.745   4.639  49.481  0.00  0.00    +0.000 A 
ATOM      8  C   UNL     1      19.896   5.811  50.228  0.00  0.00    +0.000 A 
ATOM      9  C   UNL     1      20.788   6.742  49.745  0.00  0.00    +0.000 A 
ATOM     10  C   UNL     1      21.472   6.558  48.569  0.00  0.00    +0.000 A 
ATOM     11  C   UNL     1      21.311   5.425  47.791  0.00  0.00    +0.000 A 
ATOM     12  C   UNL     1      20.448   4.429  48.265  0.00  0.00    +0.000 A 
ATOM     13  C   UNL     1      20.314   3.093  47.571  0.00  0.00    +0.000 C 
ATOM     14  C   UNL     1      20.947   1.943  48.400  0.00  0.00    +0.000 C 
ATOM     15  C   UNL     1      22.363   1.674  47.880  0.00  0.00    +0.000 C 
ATOM     16  O   UNL     1      22.330   7.581  48.312  0.00  0.00    +0.000 OA
ATOM     17  C   UNL     1      22.222   8.333  49.539  0.00  0.00    +0.000 C 
ATOM     18  O   UNL     1      21.130   7.899  50.372  0.00  0.00    +0.000 OA
ATOM     19  H   UNL     1      20.225   1.932  52.220  0.00  0.00    +0.000 HD
ENDROOT
BRANCH   6  20
ATOM     20  C   UNL     1      17.505   3.783  50.381  0.00  0.00    +0.000 A 
ATOM     21  C   UNL     1      17.088   3.730  51.714  0.00  0.00    +0.000 A 
ATOM     22  C   UNL     1      15.741   3.915  52.031  0.00  0.00    +0.000 A 
ATOM     23  C   UNL     1      14.790   4.096  51.024  0.00  0.00    +0.000 A 
ATOM     24  C   UNL     1      15.221   4.218  49.703  0.00  0.00    +0.000 A 
ATOM     25  C   UNL     1      16.569   4.041  49.375  0.00  0.00    +0.000 A 
BRANCH  23  26
ATOM     26  N   UNL     1      13.457   4.370  51.358  0.00  0.00    +0.000 N 
ATOM     27  H   UNL     1      13.251   4.967  52.114  0.00  0.00    +0.000 HD
ATOM     28  H   UNL     1      12.725   3.967  50.837  0.00  0.00    +0.000 HD
ENDBRANCH  23  26
ENDBRANCH   6  20
BRANCH   1  29
ATOM     29  C   UNL     1      21.784   0.906  53.178  0.00  0.00    +0.000 C 
BRANCH  29  30
ATOM     30  C   UNL     1      20.815   0.180  54.108  0.00  0.00    +0.000 C 
BRANCH  30  32
ATOM     31  C   UNL     1      22.553  -1.346  55.113  0.00  0.00    +0.000 C 
ATOM     32  C   UNL     1      21.220  -1.270  54.382  0.00  0.00    +0.000 C 
ENDBRANCH  30  32
ENDBRANCH  29  30
ENDBRANCH   1  29
TORSDOF 5
ENDMDL
