MODEL 1
REMARK VINA RESULT:    -9.274      0.000      0.000
REMARK INTER + INTRA:         -13.690
REMARK INTER:                 -12.527
REMARK INTRA:                  -1.163
REMARK UNBOUND:                -1.163
REMARK  Name = 
REMARK  8 active torsions:
REMARK  status: ('A' for Active; 'I' for Inactive)
REMARK    1  A    between atoms: C_1  and  N_2
REMARK    2  A    between atoms: N_2  and  C_3
REMARK    3  A    between atoms: C_3  and  C_4
REMARK    4  A    between atoms: C_4  and  C_5
REMARK    5  A    between atoms: C_5  and  N_6
REMARK    6  A    between atoms: C_8  and  C_9
REMARK    7  A    between atoms: C_10  and  C_11
REMARK    8  A    between atoms: N_13  and  C_14
REMARK                            x       y       z     vdW  Elec       q    Type
REMARK                         _______ _______ _______ _____ _____    ______ ____
ROOT
ATOM      1  C   UNL     1      22.819   0.946  52.960  0.00  0.00    +0.000 C 
ATOM      2  C   UNL     1      23.578   0.036  53.587  0.00  0.00    +0.000 C 
ATOM      3  C   UNL     1      22.730  -0.588  54.623  0.00  0.00    +0.000 C 
ATOM      4  O   UNL     1      23.061  -1.458  55.412  0.00  0.00    +0.000 OA
ATOM      5  N   UNL     1      21.505  -0.024  54.541  0.00  0.00    +0.000 N 
ATOM      6  C   UNL     1      21.475   0.906  53.566  0.00  0.00    +0.000 C 
ATOM      7  O   UNL     1      20.511   1.588  53.256  0.00  0.00    +0.000 OA
ATOM      8  H   UNL     1      20.740  -0.259  55.113  0.00  0.00    +0.000 HD
ENDROOT
BRANCH   2   9
ATOM      9  C   UNL     1      24.939  -0.298  53.376  0.00  0.00    +0.000 A 
ATOM     10  C   UNL     1      25.395  -1.532  52.966  0.00  0.00    +0.000 A 
ATOM     11  N   UNL     1      26.765  -1.474  52.919  0.00  0.00    +0.000 N 
ATOM     12  C   UNL     1      27.626  -2.585  52.574  0.00  0.00    +0.000 C 
ATOM     13  C   UNL     1      27.207  -0.214  53.271  0.00  0.00    +0.000 A 
ATOM     14  C   UNL     1      28.504   0.314  53.369  0.00  0.00    +0.000 A 
ATOM     15  C   UNL     1      28.643   1.648  53.765  0.00  0.00    +0.000 A 
ATOM     16  C   UNL     1      27.527   2.431  54.048  0.00  0.00    +0.000 A 
ATOM     17  C   UNL     1      26.239   1.895  53.947  0.00  0.00    +0.000 A 
ATOM     18  C   UNL     1      26.070   0.550  53.558  0.00  0.00    +0.000 A 
ENDBRANCH   2   9
BRANCH   1  21
ATOM     19  N   UNL     1      24.031   3.519  50.783  0.00  0.00    +0.000 N 
ATOM     20  C   UNL     1      23.967   2.912  52.014  0.00  0.00    +0.000 A 
ATOM     21  C   UNL     1      23.160   1.808  51.896  0.00  0.00    +0.000 A 
ATOM     22  C   UNL     1      22.706   1.729  50.555  0.00  0.00    +0.000 A 
ATOM     23  C   UNL     1      21.820   0.862  49.881  0.00  0.00    +0.000 A 
ATOM     24  C   UNL     1      21.561   1.056  48.525  0.00  0.00    +0.000 A 
ATOM     25  C   UNL     1      22.202   2.075  47.830  0.00  0.00    +0.000 A 
ATOM     26  C   UNL     1      23.090   2.951  48.475  0.00  0.00    +0.000 A 
ATOM     27  C   UNL     1      23.310   2.783  49.855  0.00  0.00    +0.000 A 
BRANCH  19  28
ATOM     28  C   UNL     1      24.634   4.831  50.588  0.00  0.00    +0.000 C 
BRANCH  28  29
ATOM     29  C   UNL     1      25.564   4.942  49.370  0.00  0.00    +0.000 C 
BRANCH  29  30
ATOM     30  C   UNL     1      26.813   4.082  49.549  0.00  0.00    +0.000 C 
BRANCH  30  32
ATOM     31  C   UNL     1      27.649   6.019  48.422  0.00  0.00    +0.000 C 
ATOM     32  N   UNL     1      28.022   4.806  49.147  0.00  0.00    +0.000 N 
ATOM     33  H   UNL     1      28.557   5.059  49.978  0.00  0.00    +0.000 HD
ATOM     34  H   UNL     1      28.589   4.211  48.544  0.00  0.00    +0.000 HD
ENDBRANCH  30  32
ENDBRANCH  29  30
ENDBRANCH  28  29
ENDBRANCH  19  28
ENDBRANCH   1  21
TORSDOF 6
ENDMDL
MODEL 2
REMARK VINA RESULT:    -9.015      1.862      3.500
REMARK INTER + INTRA:         -13.341
REMARK INTER:                 -12.959
REMARK INTRA:                  -0.382
REMARK UNBOUND:                -1.163
REMARK  Name = 
REMARK  8 active torsions:
REMARK  status: ('A' for Active; 'I' for Inactive)
REMARK    1  A    between atoms: C_1  and  N_2
REMARK    2  A    between atoms: N_2  and  C_3
REMARK    3  A    between atoms: C_3  and  C_4
REMARK    4  A    between atoms: C_4  and  C_5
REMARK    5  A    between atoms: C_5  and  N_6
REMARK    6  A    between atoms: C_8  and  C_9
REMARK    7  A    between atoms: C_10  and  C_11
REMARK    8  A    between atoms: N_13  and  C_14
REMARK                            x       y       z     vdW  Elec       q    Type
REMARK                         _______ _______ _______ _____ _____    ______ ____
ROOT
ATOM      1  C   UNL     1      24.290   1.914  51.576  0.00  0.00    +0.000 C 
ATOM      2  C   UNL     1      24.810   1.030  52.438  0.00  0.00    +0.000 C 
ATOM      3  C   UNL     1      23.702   0.153  52.871  0.00  0.00    +0.000 C 
ATOM      4  O   UNL     1      23.770  -0.774  53.662  0.00  0.00    +0.000 OA
ATOM      5  N   UNL     1      22.587   0.558  52.225  0.00  0.00    +0.000 N 
ATOM      6  C   UNL     1      22.855   1.610  51.427  0.00  0.00    +0.000 C 
ATOM      7  O   UNL     1      22.050   2.198  50.723  0.00  0.00    +0.000 OA
ATOM      8  H   UNL     1      21.700   0.142  52.323  0.00  0.00    +0.000 HD
ENDROOT
BRANCH   2   9
ATOM      9  C   UNL     1      26.140   0.912  52.914  0.00  0.00    +0.000 A 
ATOM     10  C   UNL     1      26.882   1.943  53.446  0.00  0.00    +0.000 A 
ATOM     11  N   UNL     1      28.125   1.447  53.749  0.00  0.00    +0.000 N 
ATOM     12  C   UNL     1      29.216   2.230  54.289  0.00  0.00    +0.000 C 
ATOM     13  C   UNL     1      28.195   0.102  53.443  0.00  0.00    +0.000 A 
ATOM     14  C   UNL     1      29.246  -0.820  53.574  0.00  0.00    +0.000 A 
ATOM     15  C   UNL     1      29.020  -2.137  53.165  0.00  0.00    +0.000 A 
ATOM     16  C   UNL     1      27.787  -2.525  52.649  0.00  0.00    +0.000 A 
ATOM     17  C   UNL     1      26.746  -1.599  52.523  0.00  0.00    +0.000 A 
ATOM     18  C   UNL     1      26.949  -0.261  52.920  0.00  0.00    +0.000 A 
ENDBRANCH   2   9
BRANCH   1  21
ATOM     19  N   UNL     1      26.373   4.040  49.581  0.00  0.00    +0.000 N 
ATOM     20  C   UNL     1      25.995   2.797  50.029  0.00  0.00    +0.000 A 
ATOM     21  C   UNL     1      24.933   2.962  50.882  0.00  0.00    +0.000 A 
ATOM     22  C   UNL     1      24.645   4.348  50.972  0.00  0.00    +0.000 A 
ATOM     23  C   UNL     1      23.723   5.099  51.730  0.00  0.00    +0.000 A 
ATOM     24  C   UNL     1      23.689   6.487  51.602  0.00  0.00    +0.000 A 
ATOM     25  C   UNL     1      24.535   7.125  50.702  0.00  0.00    +0.000 A 
ATOM     26  C   UNL     1      25.460   6.402  49.932  0.00  0.00    +0.000 A 
ATOM     27  C   UNL     1      25.526   5.007  50.102  0.00  0.00    +0.000 A 
BRANCH  19  28
ATOM     28  C   UNL     1      27.595   4.260  48.820  0.00  0.00    +0.000 C 
BRANCH  28  29
ATOM     29  C   UNL     1      27.854   5.719  48.416  0.00  0.00    +0.000 C 
BRANCH  29  30
ATOM     30  C   UNL     1      29.321   5.939  48.054  0.00  0.00    +0.000 C 
BRANCH  30  32
ATOM     31  C   UNL     1      31.563   5.576  48.803  0.00  0.00    +0.000 C 
ATOM     32  N   UNL     1      30.186   5.813  49.230  0.00  0.00    +0.000 N 
ATOM     33  H   UNL     1      30.144   6.676  49.775  0.00  0.00    +0.000 HD
ATOM     34  H   UNL     1      29.868   5.032  49.804  0.00  0.00    +0.000 HD
ENDBRANCH  30  32
ENDBRANCH  29  30
ENDBRANCH  28  29
ENDBRANCH  19  28
ENDBRANCH   1  21
TORSDOF 6
ENDMDL
MODEL 3
REMARK VINA RESULT:    -8.986      0.873      1.948
REMARK INTER + INTRA:         -13.302
REMARK INTER:                 -12.786
REMARK INTRA:                  -0.516
REMARK UNBOUND:                -1.163
REMARK  Name = 
REMARK  8 active torsions:
REMARK  status: ('A' for Active; 'I' for Inactive)
REMARK    1  A    between atoms: C_1  and  N_2
REMARK    2  A    between atoms: N_2  and  C_3
REMARK    3  A    between atoms: C_3  and  C_4
REMARK    4  A    between atoms: C_4  and  C_5
REMARK    5  A    between atoms: C_5  and  N_6
REMARK    6  A    between atoms: C_8  and  C_9
REMARK    7  A    between atoms: C_10  and  C_11
REMARK    8  A    between atoms: N_13  and  C_14
REMARK                            x       y       z     vdW  Elec       q    Type
REMARK                         _______ _______ _______ _____ _____    ______ ____
ROOT
ATOM      1  C   UNL     1      23.337   0.808  52.971  0.00  0.00    +0.000 C 
ATOM      2  C   UNL     1      24.288   0.224  53.713  0.00  0.00    +0.000 C 
ATOM      3  C   UNL     1      23.599  -0.688  54.650  0.00  0.00    +0.000 C 
ATOM      4  O   UNL     1      24.119  -1.395  55.498  0.00  0.00    +0.000 OA
ATOM      5  N   UNL     1      22.275  -0.605  54.398  0.00  0.00    +0.000 N 
ATOM      6  C   UNL     1      22.033   0.271  53.403  0.00  0.00    +0.000 C 
ATOM      7  O   UNL     1      20.936   0.563  52.955  0.00  0.00    +0.000 OA
ATOM      8  H   UNL     1      21.580  -1.114  54.875  0.00  0.00    +0.000 HD
ENDROOT
BRANCH   2   9
ATOM      9  C   UNL     1      25.692   0.412  53.687  0.00  0.00    +0.000 A 
ATOM     10  C   UNL     1      26.334   1.604  53.938  0.00  0.00    +0.000 A 
ATOM     11  N   UNL     1      27.680   1.395  53.775  0.00  0.00    +0.000 N 
ATOM     12  C   UNL     1      28.696   2.416  53.907  0.00  0.00    +0.000 C 
ATOM     13  C   UNL     1      27.926   0.077  53.443  0.00  0.00    +0.000 A 
ATOM     14  C   UNL     1      29.128  -0.600  53.180  0.00  0.00    +0.000 A 
ATOM     15  C   UNL     1      29.062  -1.958  52.857  0.00  0.00    +0.000 A 
ATOM     16  C   UNL     1      27.840  -2.622  52.803  0.00  0.00    +0.000 A 
ATOM     17  C   UNL     1      26.647  -1.940  53.068  0.00  0.00    +0.000 A 
ATOM     18  C   UNL     1      26.684  -0.567  53.388  0.00  0.00    +0.000 A 
ENDBRANCH   2   9
BRANCH   1  21
ATOM     19  N   UNL     1      24.059   3.604  50.850  0.00  0.00    +0.000 N 
ATOM     20  C   UNL     1      24.192   2.924  52.038  0.00  0.00    +0.000 A 
ATOM     21  C   UNL     1      23.476   1.758  51.936  0.00  0.00    +0.000 A 
ATOM     22  C   UNL     1      22.876   1.713  50.652  0.00  0.00    +0.000 A 
ATOM     23  C   UNL     1      21.996   0.807  50.024  0.00  0.00    +0.000 A 
ATOM     24  C   UNL     1      21.564   1.052  48.721  0.00  0.00    +0.000 A 
ATOM     25  C   UNL     1      22.028   2.166  48.030  0.00  0.00    +0.000 A 
ATOM     26  C   UNL     1      22.907   3.082  48.629  0.00  0.00    +0.000 A 
ATOM     27  C   UNL     1      23.300   2.858  49.961  0.00  0.00    +0.000 A 
BRANCH  19  28
ATOM     28  C   UNL     1      24.519   4.975  50.678  0.00  0.00    +0.000 C 
BRANCH  28  29
ATOM     29  C   UNL     1      25.550   5.177  49.558  0.00  0.00    +0.000 C 
BRANCH  29  30
ATOM     30  C   UNL     1      26.716   4.201  49.698  0.00  0.00    +0.000 C 
BRANCH  30  32
ATOM     31  C   UNL     1      27.721   5.961  48.429  0.00  0.00    +0.000 C 
ATOM     32  N   UNL     1      27.816   4.550  48.796  0.00  0.00    +0.000 N 
ATOM     33  H   UNL     1      28.706   4.381  49.266  0.00  0.00    +0.000 HD
ATOM     34  H   UNL     1      27.761   3.975  47.955  0.00  0.00    +0.000 HD
ENDBRANCH  30  32
ENDBRANCH  29  30
ENDBRANCH  28  29
ENDBRANCH  19  28
ENDBRANCH   1  21
TORSDOF 6
ENDMDL
MODEL 4
REMARK VINA RESULT:    -8.824      2.497      6.289
REMARK INTER + INTRA:         -13.083
REMARK INTER:                 -11.608
REMARK INTRA:                  -1.474
REMARK UNBOUND:                -1.163
REMARK  Name = 
REMARK  8 active torsions:
REMARK  status: ('A' for Active; 'I' for Inactive)
REMARK    1  A    between atoms: C_1  and  N_2
REMARK    2  A    between atoms: N_2  and  C_3
REMARK    3  A    between atoms: C_3  and  C_4
REMARK    4  A    between atoms: C_4  and  C_5
REMARK    5  A    between atoms: C_5  and  N_6
REMARK    6  A    between atoms: C_8  and  C_9
REMARK    7  A    between atoms: C_10  and  C_11
REMARK    8  A    between atoms: N_13  and  C_14
REMARK                            x       y       z     vdW  Elec       q    Type
REMARK                         _______ _______ _______ _____ _____    ______ ____
ROOT
ATOM      1  C   UNL     1      23.271   1.503  52.327  0.00  0.00    +0.000 C 
ATOM      2  C   UNL     1      24.286   2.379  52.341  0.00  0.00    +0.000 C 
ATOM      3  C   UNL     1      25.358   1.777  53.161  0.00  0.00    +0.000 C 
ATOM      4  O   UNL     1      26.443   2.272  53.422  0.00  0.00    +0.000 OA
ATOM      5  N   UNL     1      24.924   0.567  53.575  0.00  0.00    +0.000 N 
ATOM      6  C   UNL     1      23.680   0.325  53.116  0.00  0.00    +0.000 C 
ATOM      7  O   UNL     1      23.021  -0.680  53.327  0.00  0.00    +0.000 OA
ATOM      8  H   UNL     1      25.444  -0.054  54.135  0.00  0.00    +0.000 HD
ENDROOT
BRANCH   2   9
ATOM      9  C   UNL     1      24.378   3.658  51.739  0.00  0.00    +0.000 A 
ATOM     10  C   UNL     1      23.571   4.733  52.043  0.00  0.00    +0.000 A 
ATOM     11  N   UNL     1      23.938   5.772  51.225  0.00  0.00    +0.000 N 
ATOM     12  C   UNL     1      23.298   7.069  51.204  0.00  0.00    +0.000 C 
ATOM     13  C   UNL     1      24.987   5.396  50.410  0.00  0.00    +0.000 A 
ATOM     14  C   UNL     1      25.689   6.107  49.423  0.00  0.00    +0.000 A 
ATOM     15  C   UNL     1      26.718   5.449  48.744  0.00  0.00    +0.000 A 
ATOM     16  C   UNL     1      27.041   4.128  49.041  0.00  0.00    +0.000 A 
ATOM     17  C   UNL     1      26.336   3.428  50.026  0.00  0.00    +0.000 A 
ATOM     18  C   UNL     1      25.288   4.065  50.721  0.00  0.00    +0.000 A 
ENDBRANCH   2   9
BRANCH   1  21
ATOM     19  N   UNL     1      19.824   1.546  51.351  0.00  0.00    +0.000 N 
ATOM     20  C   UNL     1      20.808   1.407  52.301  0.00  0.00    +0.000 A 
ATOM     21  C   UNL     1      22.018   1.604  51.685  0.00  0.00    +0.000 A 
ATOM     22  C   UNL     1      21.782   1.867  50.312  0.00  0.00    +0.000 A 
ATOM     23  C   UNL     1      22.631   2.078  49.206  0.00  0.00    +0.000 A 
ATOM     24  C   UNL     1      22.081   2.308  47.945  0.00  0.00    +0.000 A 
ATOM     25  C   UNL     1      20.701   2.368  47.787  0.00  0.00    +0.000 A 
ATOM     26  C   UNL     1      19.833   2.166  48.871  0.00  0.00    +0.000 A 
ATOM     27  C   UNL     1      20.391   1.883  50.131  0.00  0.00    +0.000 A 
BRANCH  19  28
ATOM     28  C   UNL     1      18.432   1.203  51.609  0.00  0.00    +0.000 C 
BRANCH  28  29
ATOM     29  C   UNL     1      18.129  -0.302  51.632  0.00  0.00    +0.000 C 
BRANCH  29  30
ATOM     30  C   UNL     1      16.873  -0.599  52.447  0.00  0.00    +0.000 C 
BRANCH  30  32
ATOM     31  C   UNL     1      18.163  -2.224  53.637  0.00  0.00    +0.000 C 
ATOM     32  N   UNL     1      17.209  -1.125  53.773  0.00  0.00    +0.000 N 
ATOM     33  H   UNL     1      17.626  -0.383  54.337  0.00  0.00    +0.000 HD
ATOM     34  H   UNL     1      16.362  -1.465  54.228  0.00  0.00    +0.000 HD
ENDBRANCH  30  32
ENDBRANCH  29  30
ENDBRANCH  28  29
ENDBRANCH  19  28
ENDBRANCH   1  21
TORSDOF 6
ENDMDL
MODEL 5
REMARK VINA RESULT:    -8.499      1.522      2.796
REMARK INTER + INTRA:         -12.644
REMARK INTER:                 -12.014
REMARK INTRA:                  -0.629
REMARK UNBOUND:                -1.163
REMARK  Name = 
REMARK  8 active torsions:
REMARK  status: ('A' for Active; 'I' for Inactive)
REMARK    1  A    between atoms: C_1  and  N_2
REMARK    2  A    between atoms: N_2  and  C_3
REMARK    3  A    between atoms: C_3  and  C_4
REMARK    4  A    between atoms: C_4  and  C_5
REMARK    5  A    between atoms: C_5  and  N_6
REMARK    6  A    between atoms: C_8  and  C_9
REMARK    7  A    between atoms: C_10  and  C_11
REMARK    8  A    between atoms: N_13  and  C_14
REMARK                            x       y       z     vdW  Elec       q    Type
REMARK                         _______ _______ _______ _____ _____    ______ ____
ROOT
ATOM      1  C   UNL     1      23.174   1.061  52.744  0.00  0.00    +0.000 C 
ATOM      2  C   UNL     1      24.080   0.436  53.509  0.00  0.00    +0.000 C 
ATOM      3  C   UNL     1      23.330  -0.454  54.419  0.00  0.00    +0.000 C 
ATOM      4  O   UNL     1      23.798  -1.185  55.276  0.00  0.00    +0.000 OA
ATOM      5  N   UNL     1      22.017  -0.318  54.130  0.00  0.00    +0.000 N 
ATOM      6  C   UNL     1      21.839   0.572  53.134  0.00  0.00    +0.000 C 
ATOM      7  O   UNL     1      20.767   0.909  52.658  0.00  0.00    +0.000 OA
ATOM      8  H   UNL     1      21.290  -0.803  54.583  0.00  0.00    +0.000 HD
ENDROOT
BRANCH   2   9
ATOM      9  C   UNL     1      25.491   0.569  53.523  0.00  0.00    +0.000 A 
ATOM     10  C   UNL     1      26.171   1.739  53.781  0.00  0.00    +0.000 A 
ATOM     11  N   UNL     1      27.512   1.475  53.661  0.00  0.00    +0.000 N 
ATOM     12  C   UNL     1      28.562   2.459  53.813  0.00  0.00    +0.000 C 
ATOM     13  C   UNL     1      27.716   0.145  53.352  0.00  0.00    +0.000 A 
ATOM     14  C   UNL     1      28.898  -0.580  53.132  0.00  0.00    +0.000 A 
ATOM     15  C   UNL     1      28.789  -1.939  52.822  0.00  0.00    +0.000 A 
ATOM     16  C   UNL     1      27.544  -2.556  52.738  0.00  0.00    +0.000 A 
ATOM     17  C   UNL     1      26.372  -1.825  52.958  0.00  0.00    +0.000 A 
ATOM     18  C   UNL     1      26.453  -0.451  53.265  0.00  0.00    +0.000 A 
ENDBRANCH   2   9
BRANCH   1  21
ATOM     19  N   UNL     1      24.028   3.859  50.675  0.00  0.00    +0.000 N 
ATOM     20  C   UNL     1      24.083   3.180  51.868  0.00  0.00    +0.000 A 
ATOM     21  C   UNL     1      23.379   2.011  51.720  0.00  0.00    +0.000 A 
ATOM     22  C   UNL     1      22.867   1.964  50.398  0.00  0.00    +0.000 A 
ATOM     23  C   UNL     1      22.034   1.054  49.713  0.00  0.00    +0.000 A 
ATOM     24  C   UNL     1      21.690   1.298  48.384  0.00  0.00    +0.000 A 
ATOM     25  C   UNL     1      22.196   2.412  47.725  0.00  0.00    +0.000 A 
ATOM     26  C   UNL     1      23.029   3.332  48.381  0.00  0.00    +0.000 A 
ATOM     27  C   UNL     1      23.333   3.110  49.737  0.00  0.00    +0.000 A 
BRANCH  19  28
ATOM     28  C   UNL     1      24.494   5.231  50.533  0.00  0.00    +0.000 C 
BRANCH  28  29
ATOM     29  C   UNL     1      24.066   6.181  51.661  0.00  0.00    +0.000 C 
BRANCH  29  30
ATOM     30  C   UNL     1      23.310   7.388  51.108  0.00  0.00    +0.000 C 
BRANCH  30  32
ATOM     31  C   UNL     1      21.248   7.938  50.030  0.00  0.00    +0.000 C 
ATOM     32  N   UNL     1      21.864   7.153  51.097  0.00  0.00    +0.000 N 
ATOM     33  H   UNL     1      21.683   6.161  50.936  0.00  0.00    +0.000 HD
ATOM     34  H   UNL     1      21.468   7.429  51.995  0.00  0.00    +0.000 HD
ENDBRANCH  30  32
ENDBRANCH  29  30
ENDBRANCH  28  29
ENDBRANCH  19  28
ENDBRANCH   1  21
TORSDOF 6
ENDMDL
MODEL 6
REMARK VINA RESULT:    -8.427      2.318      5.417
REMARK INTER + INTRA:         -12.546
REMARK INTER:                 -11.062
REMARK INTRA:                  -1.485
REMARK UNBOUND:                -1.163
REMARK  Name = 
REMARK  8 active torsions:
REMARK  status: ('A' for Active; 'I' for Inactive)
REMARK    1  A    between atoms: C_1  and  N_2
REMARK    2  A    between atoms: N_2  and  C_3
REMARK    3  A    between atoms: C_3  and  C_4
REMARK    4  A    between atoms: C_4  and  C_5
REMARK    5  A    between atoms: C_5  and  N_6
REMARK    6  A    between atoms: C_8  and  C_9
REMARK    7  A    between atoms: C_10  and  C_11
REMARK    8  A    between atoms: N_13  and  C_14
REMARK                            x       y       z     vdW  Elec       q    Type
REMARK                         _______ _______ _______ _____ _____    ______ ____
ROOT
ATOM      1  C   UNL     1      23.525   1.170  52.155  0.00  0.00    +0.000 C 
ATOM      2  C   UNL     1      24.408   2.166  52.313  0.00  0.00    +0.000 C 
ATOM      3  C   UNL     1      25.406   1.700  53.298  0.00  0.00    +0.000 C 
ATOM      4  O   UNL     1      26.367   2.325  53.716  0.00  0.00    +0.000 OA
ATOM      5  N   UNL     1      25.068   0.442  53.657  0.00  0.00    +0.000 N 
ATOM      6  C   UNL     1      23.951   0.049  53.014  0.00  0.00    +0.000 C 
ATOM      7  O   UNL     1      23.398  -1.033  53.135  0.00  0.00    +0.000 OA
ATOM      8  H   UNL     1      25.568  -0.111  54.299  0.00  0.00    +0.000 HD
ENDROOT
BRANCH   2   9
ATOM      9  C   UNL     1      24.431   3.450  51.715  0.00  0.00    +0.000 A 
ATOM     10  C   UNL     1      23.550   4.470  52.000  0.00  0.00    +0.000 A 
ATOM     11  N   UNL     1      23.868   5.533  51.193  0.00  0.00    +0.000 N 
ATOM     12  C   UNL     1      23.147   6.786  51.157  0.00  0.00    +0.000 C 
ATOM     13  C   UNL     1      24.959   5.227  50.402  0.00  0.00    +0.000 A 
ATOM     14  C   UNL     1      25.636   5.984  49.433  0.00  0.00    +0.000 A 
ATOM     15  C   UNL     1      26.721   5.395  48.778  0.00  0.00    +0.000 A 
ATOM     16  C   UNL     1      27.122   4.097  49.081  0.00  0.00    +0.000 A 
ATOM     17  C   UNL     1      26.440   3.350  50.049  0.00  0.00    +0.000 A 
ATOM     18  C   UNL     1      25.337   3.918  50.719  0.00  0.00    +0.000 A 
ENDBRANCH   2   9
BRANCH   1  21
ATOM     19  N   UNL     1      21.064   1.372  49.560  0.00  0.00    +0.000 N 
ATOM     20  C   UNL     1      22.347   1.542  50.022  0.00  0.00    +0.000 A 
ATOM     21  C   UNL     1      22.385   1.116  51.326  0.00  0.00    +0.000 A 
ATOM     22  C   UNL     1      21.087   0.674  51.688  0.00  0.00    +0.000 A 
ATOM     23  C   UNL     1      20.524   0.202  52.892  0.00  0.00    +0.000 A 
ATOM     24  C   UNL     1      19.177  -0.153  52.934  0.00  0.00    +0.000 A 
ATOM     25  C   UNL     1      18.399  -0.079  51.784  0.00  0.00    +0.000 A 
ATOM     26  C   UNL     1      18.933   0.384  50.571  0.00  0.00    +0.000 A 
ATOM     27  C   UNL     1      20.280   0.790  50.546  0.00  0.00    +0.000 A 
BRANCH  19  28
ATOM     28  C   UNL     1      20.614   1.907  48.282  0.00  0.00    +0.000 C 
BRANCH  28  29
ATOM     29  C   UNL     1      20.641   3.439  48.175  0.00  0.00    +0.000 C 
BRANCH  29  30
ATOM     30  C   UNL     1      19.618   4.075  49.114  0.00  0.00    +0.000 C 
BRANCH  30  32
ATOM     31  C   UNL     1      19.841   4.166  51.493  0.00  0.00    +0.000 C 
ATOM     32  N   UNL     1      20.273   4.762  50.230  0.00  0.00    +0.000 N 
ATOM     33  H   UNL     1      21.285   4.667  50.140  0.00  0.00    +0.000 HD
ATOM     34  H   UNL     1      20.020   5.750  50.216  0.00  0.00    +0.000 HD
ENDBRANCH  30  32
ENDBRANCH  29  30
ENDBRANCH  28  29
ENDBRANCH  19  28
ENDBRANCH   1  21
TORSDOF 6
ENDMDL
MODEL 7
REMARK VINA RESULT:    -8.415      2.219      5.398
REMARK INTER + INTRA:         -12.530
REMARK INTER:                 -11.220
REMARK INTRA:                  -1.310
REMARK UNBOUND:                -1.163
REMARK  Name = 
REMARK  8 active torsions:
REMARK  status: ('A' for Active; 'I' for Inactive)
REMARK    1  A    between atoms: C_1  and  N_2
REMARK    2  A    between atoms: N_2  and  C_3
REMARK    3  A    between atoms: C_3  and  C_4
REMARK    4  A    between atoms: C_4  and  C_5
REMARK    5  A    between atoms: C_5  and  N_6
REMARK    6  A    between atoms: C_8  and  C_9
REMARK    7  A    between atoms: C_10  and  C_11
REMARK    8  A    between atoms: N_13  and  C_14
REMARK                            x       y       z     vdW  Elec       q    Type
REMARK                         _______ _______ _______ _____ _____    ______ ____
ROOT
ATOM      1  C   UNL     1      24.923   2.022  52.905  0.00  0.00    +0.000 C 
ATOM      2  C   UNL     1      24.121   0.970  53.124  0.00  0.00    +0.000 C 
ATOM      3  C   UNL     1      24.908  -0.014  53.895  0.00  0.00    +0.000 C 
ATOM      4  O   UNL     1      24.532  -1.109  54.281  0.00  0.00    +0.000 OA
ATOM      5  N   UNL     1      26.131   0.518  54.105  0.00  0.00    +0.000 N 
ATOM      6  C   UNL     1      26.222   1.740  53.544  0.00  0.00    +0.000 C 
ATOM      7  O   UNL     1      27.203   2.465  53.561  0.00  0.00    +0.000 OA
ATOM      8  H   UNL     1      26.858   0.075  54.601  0.00  0.00    +0.000 HD
ENDROOT
BRANCH   2   9
ATOM      9  C   UNL     1      22.784   0.757  52.707  0.00  0.00    +0.000 A 
ATOM     10  C   UNL     1      21.783   0.237  53.499  0.00  0.00    +0.000 A 
ATOM     11  N   UNL     1      20.650   0.144  52.730  0.00  0.00    +0.000 N 
ATOM     12  C   UNL     1      19.388  -0.397  53.185  0.00  0.00    +0.000 C 
ATOM     13  C   UNL     1      20.893   0.619  51.456  0.00  0.00    +0.000 A 
ATOM     14  C   UNL     1      20.053   0.722  50.336  0.00  0.00    +0.000 A 
ATOM     15  C   UNL     1      20.591   1.245  49.156  0.00  0.00    +0.000 A 
ATOM     16  C   UNL     1      21.919   1.656  49.096  0.00  0.00    +0.000 A 
ATOM     17  C   UNL     1      22.748   1.549  50.218  0.00  0.00    +0.000 A 
ATOM     18  C   UNL     1      22.233   1.018  51.419  0.00  0.00    +0.000 A 
ENDBRANCH   2   9
BRANCH   1  21
ATOM     19  N   UNL     1      23.640   5.105  51.609  0.00  0.00    +0.000 N 
ATOM     20  C   UNL     1      23.614   4.075  52.519  0.00  0.00    +0.000 A 
ATOM     21  C   UNL     1      24.647   3.222  52.217  0.00  0.00    +0.000 A 
ATOM     22  C   UNL     1      25.330   3.733  51.084  0.00  0.00    +0.000 A 
ATOM     23  C   UNL     1      26.406   3.258  50.305  0.00  0.00    +0.000 A 
ATOM     24  C   UNL     1      26.855   4.005  49.217  0.00  0.00    +0.000 A 
ATOM     25  C   UNL     1      26.270   5.231  48.923  0.00  0.00    +0.000 A 
ATOM     26  C   UNL     1      25.200   5.730  49.683  0.00  0.00    +0.000 A 
ATOM     27  C   UNL     1      24.716   4.949  50.749  0.00  0.00    +0.000 A 
BRANCH  19  28
ATOM     28  C   UNL     1      22.566   6.084  51.505  0.00  0.00    +0.000 C 
BRANCH  28  29
ATOM     29  C   UNL     1      21.413   5.685  50.573  0.00  0.00    +0.000 C 
BRANCH  29  30
ATOM     30  C   UNL     1      20.580   4.557  51.177  0.00  0.00    +0.000 C 
BRANCH  30  32
ATOM     31  C   UNL     1      19.450   4.962  49.110  0.00  0.00    +0.000 C 
ATOM     32  N   UNL     1      19.334   4.356  50.434  0.00  0.00    +0.000 N 
ATOM     33  H   UNL     1      19.157   3.355  50.334  0.00  0.00    +0.000 HD
ATOM     34  H   UNL     1      18.562   4.790  50.940  0.00  0.00    +0.000 HD
ENDBRANCH  30  32
ENDBRANCH  29  30
ENDBRANCH  28  29
ENDBRANCH  19  28
ENDBRANCH   1  21
TORSDOF 6
ENDMDL
MODEL 8
REMARK VINA RESULT:    -8.272      2.357      5.519
REMARK INTER + INTRA:         -12.336
REMARK INTER:                 -11.120
REMARK INTRA:                  -1.216
REMARK UNBOUND:                -1.163
REMARK  Name = 
REMARK  8 active torsions:
REMARK  status: ('A' for Active; 'I' for Inactive)
REMARK    1  A    between atoms: C_1  and  N_2
REMARK    2  A    between atoms: N_2  and  C_3
REMARK    3  A    between atoms: C_3  and  C_4
REMARK    4  A    between atoms: C_4  and  C_5
REMARK    5  A    between atoms: C_5  and  N_6
REMARK    6  A    between atoms: C_8  and  C_9
REMARK    7  A    between atoms: C_10  and  C_11
REMARK    8  A    between atoms: N_13  and  C_14
REMARK                            x       y       z     vdW  Elec       q    Type
REMARK                         _______ _______ _______ _____ _____    ______ ____
ROOT
ATOM      1  C   UNL     1      24.397   2.150  52.388  0.00  0.00    +0.000 C 
ATOM      2  C   UNL     1      23.503   1.162  52.244  0.00  0.00    +0.000 C 
ATOM      3  C   UNL     1      23.968   0.041  53.088  0.00  0.00    +0.000 C 
ATOM      4  O   UNL     1      23.429  -1.047  53.219  0.00  0.00    +0.000 OA
ATOM      5  N   UNL     1      25.105   0.436  53.699  0.00  0.00    +0.000 N 
ATOM      6  C   UNL     1      25.431   1.691  53.334  0.00  0.00    +0.000 C 
ATOM      7  O   UNL     1      26.406   2.319  53.715  0.00  0.00    +0.000 OA
ATOM      8  H   UNL     1      25.626  -0.117  54.326  0.00  0.00    +0.000 HD
ENDROOT
BRANCH   2   9
ATOM      9  C   UNL     1      22.337   1.112  51.441  0.00  0.00    +0.000 A 
ATOM     10  C   UNL     1      22.253   1.568  50.143  0.00  0.00    +0.000 A 
ATOM     11  N   UNL     1      20.959   1.388  49.722  0.00  0.00    +0.000 N 
ATOM     12  C   UNL     1      20.452   1.781  48.426  0.00  0.00    +0.000 C 
ATOM     13  C   UNL     1      20.207   0.799  50.719  0.00  0.00    +0.000 A 
ATOM     14  C   UNL     1      18.853   0.427  50.754  0.00  0.00    +0.000 A 
ATOM     15  C   UNL     1      18.360  -0.151  51.928  0.00  0.00    +0.000 A 
ATOM     16  C   UNL     1      19.188  -0.358  53.027  0.00  0.00    +0.000 A 
ATOM     17  C   UNL     1      20.536   0.016  52.982  0.00  0.00    +0.000 A 
ATOM     18  C   UNL     1      21.057   0.609  51.813  0.00  0.00    +0.000 A 
ENDBRANCH   2   9
BRANCH   1  21
ATOM     19  N   UNL     1      23.812   5.506  51.276  0.00  0.00    +0.000 N 
ATOM     20  C   UNL     1      23.510   4.430  52.076  0.00  0.00    +0.000 A 
ATOM     21  C   UNL     1      24.408   3.431  51.794  0.00  0.00    +0.000 A 
ATOM     22  C   UNL     1      25.291   3.896  50.786  0.00  0.00    +0.000 A 
ATOM     23  C   UNL     1      26.350   3.297  50.073  0.00  0.00    +0.000 A 
ATOM     24  C   UNL     1      27.038   4.032  49.109  0.00  0.00    +0.000 A 
ATOM     25  C   UNL     1      26.708   5.363  48.879  0.00  0.00    +0.000 A 
ATOM     26  C   UNL     1      25.661   5.986  49.577  0.00  0.00    +0.000 A 
ATOM     27  C   UNL     1      24.936   5.225  50.512  0.00  0.00    +0.000 A 
BRANCH  19  28
ATOM     28  C   UNL     1      22.941   6.667  51.163  0.00  0.00    +0.000 C 
BRANCH  28  29
ATOM     29  C   UNL     1      21.785   6.516  50.163  0.00  0.00    +0.000 C 
BRANCH  29  30
ATOM     30  C   UNL     1      22.064   7.290  48.877  0.00  0.00    +0.000 C 
BRANCH  30  32
ATOM     31  C   UNL     1      22.038   5.088  47.944  0.00  0.00    +0.000 C 
ATOM     32  N   UNL     1      22.630   6.420  47.842  0.00  0.00    +0.000 N 
ATOM     33  H   UNL     1      22.428   6.812  46.922  0.00  0.00    +0.000 HD
ATOM     34  H   UNL     1      23.640   6.354  47.970  0.00  0.00    +0.000 HD
ENDBRANCH  30  32
ENDBRANCH  29  30
ENDBRANCH  28  29
ENDBRANCH  19  28
ENDBRANCH   1  21
TORSDOF 6
ENDMDL
MODEL 9
REMARK VINA RESULT:    -8.167      2.464      5.943
REMARK INTER + INTRA:         -12.195
REMARK INTER:                 -10.996
REMARK INTRA:                  -1.199
REMARK UNBOUND:                -1.163
REMARK  Name = 
REMARK  8 active torsions:
REMARK  status: ('A' for Active; 'I' for Inactive)
REMARK    1  A    between atoms: C_1  and  N_2
REMARK    2  A    between atoms: N_2  and  C_3
REMARK    3  A    between atoms: C_3  and  C_4
REMARK    4  A    between atoms: C_4  and  C_5
REMARK    5  A    between atoms: C_5  and  N_6
REMARK    6  A    between atoms: C_8  and  C_9
REMARK    7  A    between atoms: C_10  and  C_11
REMARK    8  A    between atoms: N_13  and  C_14
REMARK                            x       y       z     vdW  Elec       q    Type
REMARK                         _______ _______ _______ _____ _____    ______ ____
ROOT
ATOM      1  C   UNL     1      21.577   0.272  53.423  0.00  0.00    +0.000 C 
ATOM      2  C   UNL     1      20.374   0.199  52.837  0.00  0.00    +0.000 C 
ATOM      3  C   UNL     1      19.660  -0.931  53.468  0.00  0.00    +0.000 C 
ATOM      4  O   UNL     1      18.537  -1.326  53.200  0.00  0.00    +0.000 OA
ATOM      5  N   UNL     1      20.477  -1.455  54.407  0.00  0.00    +0.000 N 
ATOM      6  C   UNL     1      21.648  -0.789  54.445  0.00  0.00    +0.000 C 
ATOM      7  O   UNL     1      22.587  -1.032  55.185  0.00  0.00    +0.000 OA
ATOM      8  H   UNL     1      20.249  -2.219  54.985  0.00  0.00    +0.000 HD
ENDROOT
BRANCH   2   9
ATOM      9  C   UNL     1      19.831   0.990  51.795  0.00  0.00    +0.000 A 
ATOM     10  C   UNL     1      18.612   1.631  51.843  0.00  0.00    +0.000 A 
ATOM     11  N   UNL     1      18.422   2.255  50.635  0.00  0.00    +0.000 N 
ATOM     12  C   UNL     1      17.239   3.002  50.270  0.00  0.00    +0.000 C 
ATOM     13  C   UNL     1      19.511   2.049  49.811  0.00  0.00    +0.000 A 
ATOM     14  C   UNL     1      19.769   2.482  48.500  0.00  0.00    +0.000 A 
ATOM     15  C   UNL     1      20.977   2.102  47.908  0.00  0.00    +0.000 A 
ATOM     16  C   UNL     1      21.899   1.321  48.600  0.00  0.00    +0.000 A 
ATOM     17  C   UNL     1      21.632   0.895  49.905  0.00  0.00    +0.000 A 
ATOM     18  C   UNL     1      20.418   1.257  50.524  0.00  0.00    +0.000 A 
ENDBRANCH   2   9
BRANCH   1  21
ATOM     19  N   UNL     1      23.718   3.081  52.821  0.00  0.00    +0.000 N 
ATOM     20  C   UNL     1      22.489   2.543  53.119  0.00  0.00    +0.000 A 
ATOM     21  C   UNL     1      22.631   1.179  53.178  0.00  0.00    +0.000 A 
ATOM     22  C   UNL     1      23.985   0.860  52.904  0.00  0.00    +0.000 A 
ATOM     23  C   UNL     1      24.685  -0.358  52.767  0.00  0.00    +0.000 A 
ATOM     24  C   UNL     1      26.048  -0.342  52.476  0.00  0.00    +0.000 A 
ATOM     25  C   UNL     1      26.724   0.867  52.359  0.00  0.00    +0.000 A 
ATOM     26  C   UNL     1      26.053   2.093  52.493  0.00  0.00    +0.000 A 
ATOM     27  C   UNL     1      24.667   2.074  52.736  0.00  0.00    +0.000 A 
BRANCH  19  28
ATOM     28  C   UNL     1      23.895   4.487  52.480  0.00  0.00    +0.000 C 
BRANCH  28  29
ATOM     29  C   UNL     1      23.322   4.901  51.117  0.00  0.00    +0.000 C 
BRANCH  29  30
ATOM     30  C   UNL     1      21.988   5.627  51.278  0.00  0.00    +0.000 C 
BRANCH  30  32
ATOM     31  C   UNL     1      21.164   7.689  50.389  0.00  0.00    +0.000 C 
ATOM     32  N   UNL     1      22.166   7.081  51.262  0.00  0.00    +0.000 N 
ATOM     33  H   UNL     1      22.057   7.446  52.209  0.00  0.00    +0.000 HD
ATOM     34  H   UNL     1      23.099   7.305  50.917  0.00  0.00    +0.000 HD
ENDBRANCH  30  32
ENDBRANCH  29  30
ENDBRANCH  28  29
ENDBRANCH  19  28
ENDBRANCH   1  21
TORSDOF 6
ENDMDL
