MODEL 1
REMARK VINA RESULT:    -9.039      0.000      0.000
REMARK INTER + INTRA:         -10.951
REMARK INTER:                 -10.360
REMARK INTRA:                  -0.591
REMARK UNBOUND:                -0.591
REMARK  Name = 
REMARK  4 active torsions:
REMARK  status: ('A' for Active; 'I' for Inactive)
REMARK    1  A    between atoms: C_1  and  C_2
REMARK    2  A    between atoms: C_10  and  C_11
REMARK    3  A    between atoms: C_14  and  N_15
REMARK    4  A    between atoms: C_20  and  C_22
REMARK                            x       y       z     vdW  Elec       q    Type
REMARK                         _______ _______ _______ _____ _____    ______ ____
ROOT
ATOM      1  C   UNL     1      22.278   5.704  51.359  0.00  0.00    +0.000 C 
ATOM      2  C   UNL     1      23.177   4.469  51.443  0.00  0.00    +0.000 C 
ATOM      3  C   UNL     1      23.382   4.050  52.912  0.00  0.00    +0.000 C 
ATOM      4  C   UNL     1      24.030   2.687  52.982  0.00  0.00    +0.000 A 
ATOM      5  C   UNL     1      25.360   2.536  53.389  0.00  0.00    +0.000 A 
ATOM      6  C   UNL     1      25.913   1.273  53.311  0.00  0.00    +0.000 A 
ATOM      7  C   UNL     1      25.194   0.184  52.874  0.00  0.00    +0.000 A 
ATOM      8  C   UNL     1      23.878   0.284  52.488  0.00  0.00    +0.000 A 
ATOM      9  C   UNL     1      23.297   1.556  52.538  0.00  0.00    +0.000 A 
ATOM     10  C   UNL     1      21.910   1.744  52.017  0.00  0.00    +0.000 C 
ATOM     11  N   UNL     1      21.609   2.616  51.092  0.00  0.00    +0.000 NA
ATOM     12  N   UNL     1      22.638   3.376  50.603  0.00  0.00    +0.000 N 
ATOM     13  C   UNL     1      22.995   3.286  49.252  0.00  0.00    +0.000 C 
ATOM     14  O   UNL     1      23.878   4.023  48.784  0.00  0.00    +0.000 OA
ATOM     15  O   UNL     1      25.940  -0.952  52.846  0.00  0.00    +0.000 OA
ATOM     16  C   UNL     1      27.239  -0.426  53.186  0.00  0.00    +0.000 C 
ATOM     17  O   UNL     1      27.201   0.954  53.607  0.00  0.00    +0.000 OA
ENDROOT
BRANCH  10  18
ATOM     18  C   UNL     1      20.834   0.853  52.545  0.00  0.00    +0.000 A 
ATOM     19  C   UNL     1      20.956   0.251  53.802  0.00  0.00    +0.000 A 
ATOM     20  C   UNL     1      19.978  -0.643  54.245  0.00  0.00    +0.000 A 
ATOM     21  C   UNL     1      18.891  -0.971  53.433  0.00  0.00    +0.000 A 
ATOM     22  C   UNL     1      18.724  -0.290  52.226  0.00  0.00    +0.000 A 
ATOM     23  C   UNL     1      19.697   0.606  51.772  0.00  0.00    +0.000 A 
BRANCH  21  24
ATOM     24  N   UNL     1      17.875  -1.800  53.923  0.00  0.00    +0.000 N 
ATOM     25  H   UNL     1      18.102  -2.657  54.351  0.00  0.00    +0.000 HD
ATOM     26  H   UNL     1      16.933  -1.526  53.839  0.00  0.00    +0.000 HD
ENDBRANCH  21  24
ENDBRANCH  10  18
BRANCH  13  27
ATOM     27  C   UNL     1      22.329   2.205  48.374  0.00  0.00    +0.000 C 
ATOM     28  F   UNL     1      22.145   0.971  48.923  0.00  0.00    +0.000 F 
ATOM     29  F   UNL     1      21.088   2.601  47.959  0.00  0.00    +0.000 F 
ATOM     30  F   UNL     1      23.044   1.985  47.228  0.00  0.00    +0.000 F 
ENDBRANCH  13  27
TORSDOF 3
ENDMDL
MODEL 2
REMARK VINA RESULT:    -8.087      3.414      4.881
REMARK INTER + INTRA:          -9.860
REMARK INTER:                  -9.706
REMARK INTRA:                  -0.154
REMARK UNBOUND:                -0.591
REMARK  Name = 
REMARK  4 active torsions:
REMARK  status: ('A' for Active; 'I' for Inactive)
REMARK    1  A    between atoms: C_1  and  C_2
REMARK    2  A    between atoms: C_10  and  C_11
REMARK    3  A    between atoms: C_14  and  N_15
REMARK    4  A    between atoms: C_20  and  C_22
REMARK                            x       y       z     vdW  Elec       q    Type
REMARK                         _______ _______ _______ _____ _____    ______ ____
ROOT
ATOM      1  C   UNL     1      20.840   5.002  51.509  0.00  0.00    +0.000 C 
ATOM      2  C   UNL     1      22.108   5.062  50.654  0.00  0.00    +0.000 C 
ATOM      3  C   UNL     1      23.308   5.527  51.500  0.00  0.00    +0.000 C 
ATOM      4  C   UNL     1      24.596   5.322  50.739  0.00  0.00    +0.000 A 
ATOM      5  C   UNL     1      25.316   6.406  50.225  0.00  0.00    +0.000 A 
ATOM      6  C   UNL     1      26.417   6.128  49.439  0.00  0.00    +0.000 A 
ATOM      7  C   UNL     1      26.824   4.839  49.178  0.00  0.00    +0.000 A 
ATOM      8  C   UNL     1      26.159   3.746  49.682  0.00  0.00    +0.000 A 
ATOM      9  C   UNL     1      25.028   3.998  50.466  0.00  0.00    +0.000 A 
ATOM     10  C   UNL     1      24.200   2.849  50.939  0.00  0.00    +0.000 C 
ATOM     11  N   UNL     1      22.919   2.748  50.702  0.00  0.00    +0.000 NA
ATOM     12  N   UNL     1      22.344   3.763  49.984  0.00  0.00    +0.000 N 
ATOM     13  C   UNL     1      21.766   3.500  48.737  0.00  0.00    +0.000 C 
ATOM     14  O   UNL     1      21.179   4.398  48.113  0.00  0.00    +0.000 OA
ATOM     15  O   UNL     1      27.908   4.794  48.358  0.00  0.00    +0.000 OA
ATOM     16  C   UNL     1      28.053   6.191  48.031  0.00  0.00    +0.000 C 
ATOM     17  O   UNL     1      27.195   7.050  48.813  0.00  0.00    +0.000 OA
ENDROOT
BRANCH  10  18
ATOM     18  C   UNL     1      24.887   1.742  51.670  0.00  0.00    +0.000 A 
ATOM     19  C   UNL     1      26.248   1.491  51.475  0.00  0.00    +0.000 A 
ATOM     20  C   UNL     1      26.856   0.403  52.106  0.00  0.00    +0.000 A 
ATOM     21  C   UNL     1      26.109  -0.464  52.907  0.00  0.00    +0.000 A 
ATOM     22  C   UNL     1      24.777  -0.149  53.178  0.00  0.00    +0.000 A 
ATOM     23  C   UNL     1      24.159   0.938  52.551  0.00  0.00    +0.000 A 
BRANCH  21  24
ATOM     24  N   UNL     1      26.746  -1.499  53.602  0.00  0.00    +0.000 N 
ATOM     25  H   UNL     1      27.693  -1.701  53.424  0.00  0.00    +0.000 HD
ATOM     26  H   UNL     1      26.247  -2.026  54.266  0.00  0.00    +0.000 HD
ENDBRANCH  21  24
ENDBRANCH  10  18
BRANCH  13  27
ATOM     27  C   UNL     1      21.935   2.097  48.117  0.00  0.00    +0.000 C 
ATOM     28  F   UNL     1      21.675   1.020  48.911  0.00  0.00    +0.000 F 
ATOM     29  F   UNL     1      21.130   1.938  47.024  0.00  0.00    +0.000 F 
ATOM     30  F   UNL     1      23.211   1.905  47.660  0.00  0.00    +0.000 F 
ENDBRANCH  13  27
TORSDOF 3
ENDMDL
MODEL 3
REMARK VINA RESULT:    -8.035      3.306      5.677
REMARK INTER + INTRA:          -9.800
REMARK INTER:                  -8.955
REMARK INTRA:                  -0.845
REMARK UNBOUND:                -0.591
REMARK  Name = 
REMARK  4 active torsions:
REMARK  status: ('A' for Active; 'I' for Inactive)
REMARK    1  A    between atoms: C_1  and  C_2
REMARK    2  A    between atoms: C_10  and  C_11
REMARK    3  A    between atoms: C_14  and  N_15
REMARK    4  A    between atoms: C_20  and  C_22
REMARK                            x       y       z     vdW  Elec       q    Type
REMARK                         _______ _______ _______ _____ _____    ______ ____
ROOT
ATOM      1  C   UNL     1      22.651   3.677  47.435  0.00  0.00    +0.000 C 
ATOM      2  C   UNL     1      21.901   3.155  48.663  0.00  0.00    +0.000 C 
ATOM      3  C   UNL     1      22.131   1.642  48.833  0.00  0.00    +0.000 C 
ATOM      4  C   UNL     1      21.628   1.184  50.182  0.00  0.00    +0.000 A 
ATOM      5  C   UNL     1      20.472   0.405  50.299  0.00  0.00    +0.000 A 
ATOM      6  C   UNL     1      20.013   0.130  51.573  0.00  0.00    +0.000 A 
ATOM      7  C   UNL     1      20.666   0.575  52.699  0.00  0.00    +0.000 A 
ATOM      8  C   UNL     1      21.818   1.323  52.629  0.00  0.00    +0.000 A 
ATOM      9  C   UNL     1      22.296   1.633  51.351  0.00  0.00    +0.000 A 
ATOM     10  C   UNL     1      23.473   2.542  51.215  0.00  0.00    +0.000 C 
ATOM     11  N   UNL     1      23.449   3.637  50.503  0.00  0.00    +0.000 NA
ATOM     12  N   UNL     1      22.273   3.933  49.866  0.00  0.00    +0.000 N 
ATOM     13  C   UNL     1      21.573   5.100  50.194  0.00  0.00    +0.000 C 
ATOM     14  O   UNL     1      20.545   5.412  49.571  0.00  0.00    +0.000 OA
ATOM     15  O   UNL     1      20.026   0.219  53.845  0.00  0.00    +0.000 OA
ATOM     16  C   UNL     1      18.831  -0.383  53.306  0.00  0.00    +0.000 C 
ATOM     17  O   UNL     1      18.879  -0.558  51.873  0.00  0.00    +0.000 OA
ENDROOT
BRANCH  10  18
ATOM     18  C   UNL     1      24.714   2.202  51.973  0.00  0.00    +0.000 A 
ATOM     19  C   UNL     1      25.686   1.365  51.417  0.00  0.00    +0.000 A 
ATOM     20  C   UNL     1      26.802   0.993  52.171  0.00  0.00    +0.000 A 
ATOM     21  C   UNL     1      26.944   1.421  53.493  0.00  0.00    +0.000 A 
ATOM     22  C   UNL     1      26.023   2.337  54.005  0.00  0.00    +0.000 A 
ATOM     23  C   UNL     1      24.903   2.716  53.258  0.00  0.00    +0.000 A 
BRANCH  21  24
ATOM     24  N   UNL     1      28.107   1.113  54.208  0.00  0.00    +0.000 N 
ATOM     25  H   UNL     1      28.387   0.175  54.311  0.00  0.00    +0.000 HD
ATOM     26  H   UNL     1      28.644   1.834  54.607  0.00  0.00    +0.000 HD
ENDBRANCH  21  24
ENDBRANCH  10  18
BRANCH  13  27
ATOM     27  C   UNL     1      22.056   5.951  51.388  0.00  0.00    +0.000 C 
ATOM     28  F   UNL     1      23.349   6.379  51.374  0.00  0.00    +0.000 F 
ATOM     29  F   UNL     1      21.304   7.085  51.523  0.00  0.00    +0.000 F 
ATOM     30  F   UNL     1      21.913   5.276  52.570  0.00  0.00    +0.000 F 
ENDBRANCH  13  27
TORSDOF 3
ENDMDL
MODEL 4
REMARK VINA RESULT:    -7.912      3.827      6.844
REMARK INTER + INTRA:          -9.659
REMARK INTER:                  -9.038
REMARK INTRA:                  -0.621
REMARK UNBOUND:                -0.591
REMARK  Name = 
REMARK  4 active torsions:
REMARK  status: ('A' for Active; 'I' for Inactive)
REMARK    1  A    between atoms: C_1  and  C_2
REMARK    2  A    between atoms: C_10  and  C_11
REMARK    3  A    between atoms: C_14  and  N_15
REMARK    4  A    between atoms: C_20  and  C_22
REMARK                            x       y       z     vdW  Elec       q    Type
REMARK                         _______ _______ _______ _____ _____    ______ ____
ROOT
ATOM      1  C   UNL     1      20.935   4.614  46.893  0.00  0.00    +0.000 C 
ATOM      2  C   UNL     1      21.416   4.151  48.270  0.00  0.00    +0.000 C 
ATOM      3  C   UNL     1      22.377   2.956  48.133  0.00  0.00    +0.000 C 
ATOM      4  C   UNL     1      23.061   2.680  49.452  0.00  0.00    +0.000 A 
ATOM      5  C   UNL     1      22.738   1.552  50.214  0.00  0.00    +0.000 A 
ATOM      6  C   UNL     1      23.320   1.436  51.461  0.00  0.00    +0.000 A 
ATOM      7  C   UNL     1      24.206   2.371  51.947  0.00  0.00    +0.000 A 
ATOM      8  C   UNL     1      24.568   3.480  51.220  0.00  0.00    +0.000 A 
ATOM      9  C   UNL     1      23.979   3.634  49.961  0.00  0.00    +0.000 A 
ATOM     10  C   UNL     1      24.243   4.880  49.181  0.00  0.00    +0.000 C 
ATOM     11  N   UNL     1      23.293   5.658  48.738  0.00  0.00    +0.000 NA
ATOM     12  N   UNL     1      22.006   5.282  49.021  0.00  0.00    +0.000 N 
ATOM     13  C   UNL     1      21.193   6.103  49.811  0.00  0.00    +0.000 C 
ATOM     14  O   UNL     1      20.005   5.806  50.012  0.00  0.00    +0.000 OA
ATOM     15  O   UNL     1      24.631   2.077  53.204  0.00  0.00    +0.000 OA
ATOM     16  C   UNL     1      23.812   0.928  53.502  0.00  0.00    +0.000 C 
ATOM     17  O   UNL     1      23.078   0.442  52.357  0.00  0.00    +0.000 OA
ENDROOT
BRANCH  10  18
ATOM     18  C   UNL     1      25.666   5.274  48.947  0.00  0.00    +0.000 A 
ATOM     19  C   UNL     1      26.004   6.602  48.671  0.00  0.00    +0.000 A 
ATOM     20  C   UNL     1      27.328   6.937  48.375  0.00  0.00    +0.000 A 
ATOM     21  C   UNL     1      28.317   5.953  48.317  0.00  0.00    +0.000 A 
ATOM     22  C   UNL     1      27.990   4.650  48.693  0.00  0.00    +0.000 A 
ATOM     23  C   UNL     1      26.669   4.303  48.991  0.00  0.00    +0.000 A 
BRANCH  21  24
ATOM     24  N   UNL     1      29.653   6.315  48.106  0.00  0.00    +0.000 N 
ATOM     25  H   UNL     1      30.377   5.763  48.480  0.00  0.00    +0.000 HD
ATOM     26  H   UNL     1      29.867   7.121  47.584  0.00  0.00    +0.000 HD
ENDBRANCH  21  24
ENDBRANCH  10  18
BRANCH  13  27
ATOM     27  C   UNL     1      21.817   7.342  50.489  0.00  0.00    +0.000 C 
ATOM     28  F   UNL     1      22.958   7.157  51.212  0.00  0.00    +0.000 F 
ATOM     29  F   UNL     1      22.127   8.306  49.570  0.00  0.00    +0.000 F 
ATOM     30  F   UNL     1      20.936   7.932  51.354  0.00  0.00    +0.000 F 
ENDBRANCH  13  27
TORSDOF 3
ENDMDL
MODEL 5
REMARK VINA RESULT:    -7.238      3.475      5.833
REMARK INTER + INTRA:          -8.886
REMARK INTER:                  -8.415
REMARK INTRA:                  -0.472
REMARK UNBOUND:                -0.591
REMARK  Name = 
REMARK  4 active torsions:
REMARK  status: ('A' for Active; 'I' for Inactive)
REMARK    1  A    between atoms: C_1  and  C_2
REMARK    2  A    between atoms: C_10  and  C_11
REMARK    3  A    between atoms: C_14  and  N_15
REMARK    4  A    between atoms: C_20  and  C_22
REMARK                            x       y       z     vdW  Elec       q    Type
REMARK                         _______ _______ _______ _____ _____    ______ ____
ROOT
ATOM      1  C   UNL     1      22.857   2.613  47.547  0.00  0.00    +0.000 C 
ATOM      2  C   UNL     1      21.663   3.103  48.368  0.00  0.00    +0.000 C 
ATOM      3  C   UNL     1      20.557   2.031  48.405  0.00  0.00    +0.000 C 
ATOM      4  C   UNL     1      19.510   2.395  49.431  0.00  0.00    +0.000 A 
ATOM      5  C   UNL     1      18.235   2.825  49.045  0.00  0.00    +0.000 A 
ATOM      6  C   UNL     1      17.377   3.253  50.039  0.00  0.00    +0.000 A 
ATOM      7  C   UNL     1      17.733   3.242  51.369  0.00  0.00    +0.000 A 
ATOM      8  C   UNL     1      18.965   2.805  51.792  0.00  0.00    +0.000 A 
ATOM      9  C   UNL     1      19.863   2.384  50.805  0.00  0.00    +0.000 A 
ATOM     10  C   UNL     1      21.255   2.014  51.197  0.00  0.00    +0.000 C 
ATOM     11  N   UNL     1      22.315   2.567  50.670  0.00  0.00    +0.000 NA
ATOM     12  N   UNL     1      22.099   3.527  49.717  0.00  0.00    +0.000 N 
ATOM     13  C   UNL     1      22.525   4.842  49.938  0.00  0.00    +0.000 C 
ATOM     14  O   UNL     1      22.399   5.701  49.051  0.00  0.00    +0.000 OA
ATOM     15  O   UNL     1      16.752   3.735  52.172  0.00  0.00    +0.000 OA
ATOM     16  C   UNL     1      15.797   4.176  51.185  0.00  0.00    +0.000 C 
ATOM     17  O   UNL     1      16.129   3.757  49.845  0.00  0.00    +0.000 OA
ENDROOT
BRANCH  10  18
ATOM     18  C   UNL     1      21.434   1.000  52.280  0.00  0.00    +0.000 A 
ATOM     19  C   UNL     1      22.694   0.766  52.840  0.00  0.00    +0.000 A 
ATOM     20  C   UNL     1      22.857  -0.242  53.795  0.00  0.00    +0.000 A 
ATOM     21  C   UNL     1      21.780  -1.046  54.174  0.00  0.00    +0.000 A 
ATOM     22  C   UNL     1      20.508  -0.739  53.687  0.00  0.00    +0.000 A 
ATOM     23  C   UNL     1      20.334   0.267  52.731  0.00  0.00    +0.000 A 
BRANCH  21  24
ATOM     24  N   UNL     1      21.937  -1.993  55.193  0.00  0.00    +0.000 N 
ATOM     25  H   UNL     1      22.644  -2.674  55.126  0.00  0.00    +0.000 HD
ATOM     26  H   UNL     1      21.341  -1.977  55.975  0.00  0.00    +0.000 HD
ENDBRANCH  21  24
ENDBRANCH  10  18
BRANCH  13  27
ATOM     27  C   UNL     1      23.082   5.224  51.326  0.00  0.00    +0.000 C 
ATOM     28  F   UNL     1      24.195   4.568  51.761  0.00  0.00    +0.000 F 
ATOM     29  F   UNL     1      23.404   6.551  51.382  0.00  0.00    +0.000 F 
ATOM     30  F   UNL     1      22.147   5.033  52.307  0.00  0.00    +0.000 F 
ENDBRANCH  13  27
TORSDOF 3
ENDMDL
MODEL 6
REMARK VINA RESULT:    -6.513      4.799      7.493
REMARK INTER + INTRA:          -8.055
REMARK INTER:                  -7.079
REMARK INTRA:                  -0.976
REMARK UNBOUND:                -0.591
REMARK  Name = 
REMARK  4 active torsions:
REMARK  status: ('A' for Active; 'I' for Inactive)
REMARK    1  A    between atoms: C_1  and  C_2
REMARK    2  A    between atoms: C_10  and  C_11
REMARK    3  A    between atoms: C_14  and  N_15
REMARK    4  A    between atoms: C_20  and  C_22
REMARK                            x       y       z     vdW  Elec       q    Type
REMARK                         _______ _______ _______ _____ _____    ______ ____
ROOT
ATOM      1  C   UNL     1      14.279   0.128  50.098  0.00  0.00    +0.000 C 
ATOM      2  C   UNL     1      15.457   0.331  51.054  0.00  0.00    +0.000 C 
ATOM      3  C   UNL     1      16.728  -0.335  50.495  0.00  0.00    +0.000 C 
ATOM      4  C   UNL     1      17.938   0.097  51.289  0.00  0.00    +0.000 A 
ATOM      5  C   UNL     1      18.591  -0.788  52.155  0.00  0.00    +0.000 A 
ATOM      6  C   UNL     1      19.613  -0.282  52.934  0.00  0.00    +0.000 A 
ATOM      7  C   UNL     1      20.009   1.035  52.858  0.00  0.00    +0.000 A 
ATOM      8  C   UNL     1      19.411   1.930  52.003  0.00  0.00    +0.000 A 
ATOM      9  C   UNL     1      18.358   1.450  51.216  0.00  0.00    +0.000 A 
ATOM     10  C   UNL     1      17.595   2.406  50.360  0.00  0.00    +0.000 C 
ATOM     11  N   UNL     1      16.299   2.549  50.433  0.00  0.00    +0.000 NA
ATOM     12  N   UNL     1      15.643   1.770  51.349  0.00  0.00    +0.000 N 
ATOM     13  C   UNL     1      14.949   2.366  52.409  0.00  0.00    +0.000 C 
ATOM     14  O   UNL     1      14.293   1.671  53.201  0.00  0.00    +0.000 OA
ATOM     15  O   UNL     1      21.008   1.326  53.733  0.00  0.00    +0.000 OA
ATOM     16  C   UNL     1      21.103   0.080  54.455  0.00  0.00    +0.000 C 
ATOM     17  O   UNL     1      20.315  -0.977  53.868  0.00  0.00    +0.000 OA
ENDROOT
BRANCH  10  18
ATOM     18  C   UNL     1      18.364   3.272  49.416  0.00  0.00    +0.000 A 
ATOM     19  C   UNL     1      19.129   2.708  48.390  0.00  0.00    +0.000 A 
ATOM     20  C   UNL     1      19.905   3.529  47.567  0.00  0.00    +0.000 A 
ATOM     21  C   UNL     1      19.954   4.908  47.778  0.00  0.00    +0.000 A 
ATOM     22  C   UNL     1      19.110   5.472  48.736  0.00  0.00    +0.000 A 
ATOM     23  C   UNL     1      18.329   4.660  49.566  0.00  0.00    +0.000 A 
BRANCH  21  24
ATOM     24  N   UNL     1      20.666   5.726  46.893  0.00  0.00    +0.000 N 
ATOM     25  H   UNL     1      21.537   6.099  47.160  0.00  0.00    +0.000 HD
ATOM     26  H   UNL     1      20.295   5.930  46.005  0.00  0.00    +0.000 HD
ENDBRANCH  21  24
ENDBRANCH  10  18
BRANCH  13  27
ATOM     27  C   UNL     1      15.076   3.890  52.621  0.00  0.00    +0.000 C 
ATOM     28  F   UNL     1      16.329   4.425  52.621  0.00  0.00    +0.000 F 
ATOM     29  F   UNL     1      14.391   4.581  51.661  0.00  0.00    +0.000 F 
ATOM     30  F   UNL     1      14.521   4.274  53.812  0.00  0.00    +0.000 F 
ENDBRANCH  13  27
TORSDOF 3
ENDMDL
MODEL 7
REMARK VINA RESULT:    -6.041      5.801      8.542
REMARK INTER + INTRA:          -7.515
REMARK INTER:                  -7.151
REMARK INTRA:                  -0.364
REMARK UNBOUND:                -0.591
REMARK  Name = 
REMARK  4 active torsions:
REMARK  status: ('A' for Active; 'I' for Inactive)
REMARK    1  A    between atoms: C_1  and  C_2
REMARK    2  A    between atoms: C_10  and  C_11
REMARK    3  A    between atoms: C_14  and  N_15
REMARK    4  A    between atoms: C_20  and  C_22
REMARK                            x       y       z     vdW  Elec       q    Type
REMARK                         _______ _______ _______ _____ _____    ______ ____
ROOT
ATOM      1  C   UNL     1      15.915   2.323  47.874  0.00  0.00    +0.000 C 
ATOM      2  C   UNL     1      15.389   1.299  48.882  0.00  0.00    +0.000 C 
ATOM      3  C   UNL     1      15.954  -0.101  48.574  0.00  0.00    +0.000 C 
ATOM      4  C   UNL     1      15.663  -1.046  49.715  0.00  0.00    +0.000 A 
ATOM      5  C   UNL     1      14.715  -2.068  49.589  0.00  0.00    +0.000 A 
ATOM      6  C   UNL     1      14.421  -2.811  50.715  0.00  0.00    +0.000 A 
ATOM      7  C   UNL     1      15.044  -2.588  51.923  0.00  0.00    +0.000 A 
ATOM      8  C   UNL     1      15.998  -1.611  52.084  0.00  0.00    +0.000 A 
ATOM      9  C   UNL     1      16.301  -0.829  50.964  0.00  0.00    +0.000 A 
ATOM     10  C   UNL     1      17.239   0.323  51.113  0.00  0.00    +0.000 C 
ATOM     11  N   UNL     1      16.926   1.545  50.776  0.00  0.00    +0.000 NA
ATOM     12  N   UNL     1      15.670   1.741  50.266  0.00  0.00    +0.000 N 
ATOM     13  C   UNL     1      14.759   2.562  50.941  0.00  0.00    +0.000 C 
ATOM     14  O   UNL     1      13.645   2.803  50.449  0.00  0.00    +0.000 OA
ATOM     15  O   UNL     1      14.582  -3.410  52.903  0.00  0.00    +0.000 OA
ATOM     16  C   UNL     1      13.511  -4.079  52.207  0.00  0.00    +0.000 C 
ATOM     17  O   UNL     1      13.490  -3.798  50.791  0.00  0.00    +0.000 OA
ENDROOT
BRANCH  10  18
ATOM     18  C   UNL     1      18.578   0.064  51.726  0.00  0.00    +0.000 A 
ATOM     19  C   UNL     1      18.685  -0.550  52.977  0.00  0.00    +0.000 A 
ATOM     20  C   UNL     1      19.941  -0.711  53.570  0.00  0.00    +0.000 A 
ATOM     21  C   UNL     1      21.092  -0.233  52.941  0.00  0.00    +0.000 A 
ATOM     22  C   UNL     1      20.987   0.285  51.649  0.00  0.00    +0.000 A 
ATOM     23  C   UNL     1      19.735   0.450  51.047  0.00  0.00    +0.000 A 
BRANCH  21  24
ATOM     24  N   UNL     1      22.350  -0.478  53.504  0.00  0.00    +0.000 N 
ATOM     25  H   UNL     1      23.166  -0.313  52.978  0.00  0.00    +0.000 HD
ATOM     26  H   UNL     1      22.419  -0.817  54.426  0.00  0.00    +0.000 HD
ENDBRANCH  21  24
ENDBRANCH  10  18
BRANCH  13  27
ATOM     27  C   UNL     1      15.132   3.101  52.338  0.00  0.00    +0.000 C 
ATOM     28  F   UNL     1      16.329   3.740  52.469  0.00  0.00    +0.000 F 
ATOM     29  F   UNL     1      14.199   3.992  52.791  0.00  0.00    +0.000 F 
ATOM     30  F   UNL     1      15.159   2.097  53.268  0.00  0.00    +0.000 F 
ENDBRANCH  13  27
TORSDOF 3
ENDMDL
