MODEL 1
REMARK VINA RESULT:    -8.870      0.000      0.000
REMARK INTER + INTRA:         -10.548
REMARK INTER:                 -10.166
REMARK INTRA:                  -0.382
REMARK UNBOUND:                -0.382
REMARK  Name = 
REMARK  8 active torsions:
REMARK  status: ('A' for Active; 'I' for Inactive)
REMARK    1  A    between atoms: C_1  and  C_2
REMARK    2  A    between atoms: C_2  and  C_3
REMARK    3  A    between atoms: C_3  and  C_4
REMARK    4  A    between atoms: C_16  and  C_17
REMARK    5  A    between atoms: C_16  and  C_18
REMARK    6  A    between atoms: C_22  and  C_23
REMARK    7  A    between atoms: C_24  and  C_25
REMARK    8  A    between atoms: C_26  and  O_27
REMARK                            x       y       z     vdW  Elec       q    Type
REMARK                         _______ _______ _______ _____ _____    ______ ____
ROOT
ATOM      1  C   UNL     1      25.903   2.072  51.786  0.00  0.00    +0.000 A 
ATOM      2  C   UNL     1      26.077   0.723  51.736  0.00  0.00    +0.000 A 
ATOM      3  C   UNL     1      25.880   0.136  53.085  0.00  0.00    +0.000 A 
ATOM      4  O   UNL     1      26.617  -0.719  53.551  0.00  0.00    +0.000 OA
ATOM      5  O   UNL     1      24.749   0.595  53.718  0.00  0.00    +0.000 OA
ATOM      6  C   UNL     1      23.968   1.518  53.002  0.00  0.00    +0.000 A 
ATOM      7  C   UNL     1      22.621   1.263  52.909  0.00  0.00    +0.000 A 
ATOM      8  C   UNL     1      21.798   2.299  52.483  0.00  0.00    +0.000 A 
ATOM      9  C   UNL     1      22.357   3.537  52.102  0.00  0.00    +0.000 A 
ATOM     10  C   UNL     1      23.750   3.620  51.877  0.00  0.00    +0.000 A 
ATOM     11  C   UNL     1      24.563   2.527  52.242  0.00  0.00    +0.000 A 
ATOM     12  O   UNL     1      24.308   4.752  51.323  0.00  0.00    +0.000 OA
ATOM     13  C   UNL     1      23.434   5.798  50.799  0.00  0.00    +0.000 C 
ATOM     14  C   UNL     1      24.013   7.165  51.200  0.00  0.00    +0.000 C 
ATOM     15  C   UNL     1      23.432   5.687  49.270  0.00  0.00    +0.000 C 
ATOM     16  C   UNL     1      22.008   5.754  51.265  0.00  0.00    +0.000 C 
ATOM     17  C   UNL     1      21.486   4.677  51.872  0.00  0.00    +0.000 C 
ATOM     18  O   UNL     1      20.436   2.147  52.445  0.00  0.00    +0.000 OA
ATOM     19  C   UNL     1      19.928   0.800  52.357  0.00  0.00    +0.000 C 
ATOM     20  C   UNL     1      19.905   0.364  50.885  0.00  0.00    +0.000 C 
ATOM     21  C   UNL     1      20.663  -0.197  53.268  0.00  0.00    +0.000 C 
ATOM     22  C   UNL     1      20.477   0.108  54.761  0.00  0.00    +0.000 C 
ATOM     23  C   UNL     1      22.129  -0.163  52.908  0.00  0.00    +0.000 C 
ENDROOT
BRANCH  23  24
ATOM     24  O   UNL     1      22.833  -1.100  53.716  0.00  0.00    +0.000 OA
ATOM     25  H   UNL     1      23.029  -0.700  54.577  0.00  0.00    +0.000 HD
ENDBRANCH  23  24
BRANCH   1  26
ATOM     26  C   UNL     1      26.921   2.844  51.028  0.00  0.00    +0.000 C 
BRANCH  26  28
ATOM     27  C   UNL     1      27.018   4.393  49.067  0.00  0.00    +0.000 C 
ATOM     28  C   UNL     1      26.493   3.057  49.578  0.00  0.00    +0.000 C 
ENDBRANCH  26  28
ENDBRANCH   1  26
TORSDOF 3
ENDMDL
MODEL 2
REMARK VINA RESULT:    -8.797      1.653      5.133
REMARK INTER + INTRA:         -10.465
REMARK INTER:                 -10.117
REMARK INTRA:                  -0.347
REMARK UNBOUND:                -0.382
REMARK  Name = 
REMARK  8 active torsions:
REMARK  status: ('A' for Active; 'I' for Inactive)
REMARK    1  A    between atoms: C_1  and  C_2
REMARK    2  A    between atoms: C_2  and  C_3
REMARK    3  A    between atoms: C_3  and  C_4
REMARK    4  A    between atoms: C_16  and  C_17
REMARK    5  A    between atoms: C_16  and  C_18
REMARK    6  A    between atoms: C_22  and  C_23
REMARK    7  A    between atoms: C_24  and  C_25
REMARK    8  A    between atoms: C_26  and  O_27
REMARK                            x       y       z     vdW  Elec       q    Type
REMARK                         _______ _______ _______ _____ _____    ______ ____
ROOT
ATOM      1  C   UNL     1      21.781   1.026  52.892  0.00  0.00    +0.000 A 
ATOM      2  C   UNL     1      21.837   0.487  54.140  0.00  0.00    +0.000 A 
ATOM      3  C   UNL     1      22.337  -0.909  54.067  0.00  0.00    +0.000 A 
ATOM      4  O   UNL     1      21.840  -1.827  54.701  0.00  0.00    +0.000 OA
ATOM      5  O   UNL     1      23.456  -1.044  53.279  0.00  0.00    +0.000 OA
ATOM      6  C   UNL     1      23.946   0.132  52.688  0.00  0.00    +0.000 A 
ATOM      7  C   UNL     1      25.287   0.398  52.834  0.00  0.00    +0.000 A 
ATOM      8  C   UNL     1      25.843   1.372  52.014  0.00  0.00    +0.000 A 
ATOM      9  C   UNL     1      25.026   2.094  51.118  0.00  0.00    +0.000 A 
ATOM     10  C   UNL     1      23.623   2.032  51.267  0.00  0.00    +0.000 A 
ATOM     11  C   UNL     1      23.076   1.090  52.164  0.00  0.00    +0.000 A 
ATOM     12  O   UNL     1      22.799   2.865  50.541  0.00  0.00    +0.000 OA
ATOM     13  C   UNL     1      23.388   3.941  49.749  0.00  0.00    +0.000 C 
ATOM     14  C   UNL     1      22.650   4.016  48.402  0.00  0.00    +0.000 C 
ATOM     15  C   UNL     1      23.175   5.255  50.509  0.00  0.00    +0.000 C 
ATOM     16  C   UNL     1      24.855   3.812  49.458  0.00  0.00    +0.000 C 
ATOM     17  C   UNL     1      25.641   2.946  50.115  0.00  0.00    +0.000 C 
ATOM     18  O   UNL     1      27.188   1.633  52.043  0.00  0.00    +0.000 OA
ATOM     19  C   UNL     1      27.902   1.273  53.244  0.00  0.00    +0.000 C 
ATOM     20  C   UNL     1      27.773   2.409  54.267  0.00  0.00    +0.000 C 
ATOM     21  C   UNL     1      27.498  -0.098  53.811  0.00  0.00    +0.000 C 
ATOM     22  C   UNL     1      27.856  -1.262  52.876  0.00  0.00    +0.000 C 
ATOM     23  C   UNL     1      26.011  -0.076  54.070  0.00  0.00    +0.000 C 
ENDROOT
BRANCH  23  24
ATOM     24  O   UNL     1      25.613  -1.323  54.626  0.00  0.00    +0.000 OA
ATOM     25  H   UNL     1      25.327  -1.918  53.915  0.00  0.00    +0.000 HD
ENDBRANCH  23  24
BRANCH   1  26
ATOM     26  C   UNL     1      20.540   1.797  52.619  0.00  0.00    +0.000 C 
BRANCH  26  28
ATOM     27  C   UNL     1      18.979  -0.003  51.861  0.00  0.00    +0.000 C 
ATOM     28  C   UNL     1      19.776   1.221  51.430  0.00  0.00    +0.000 C 
ENDBRANCH  26  28
ENDBRANCH   1  26
TORSDOF 3
ENDMDL
MODEL 3
REMARK VINA RESULT:    -8.252      1.428      5.948
REMARK INTER + INTRA:          -9.840
REMARK INTER:                  -9.539
REMARK INTRA:                  -0.302
REMARK UNBOUND:                -0.382
REMARK  Name = 
REMARK  8 active torsions:
REMARK  status: ('A' for Active; 'I' for Inactive)
REMARK    1  A    between atoms: C_1  and  C_2
REMARK    2  A    between atoms: C_2  and  C_3
REMARK    3  A    between atoms: C_3  and  C_4
REMARK    4  A    between atoms: C_16  and  C_17
REMARK    5  A    between atoms: C_16  and  C_18
REMARK    6  A    between atoms: C_22  and  C_23
REMARK    7  A    between atoms: C_24  and  C_25
REMARK    8  A    between atoms: C_26  and  O_27
REMARK                            x       y       z     vdW  Elec       q    Type
REMARK                         _______ _______ _______ _____ _____    ______ ____
ROOT
ATOM      1  C   UNL     1      21.716  -0.046  52.657  0.00  0.00    +0.000 A 
ATOM      2  C   UNL     1      20.693   0.049  51.763  0.00  0.00    +0.000 A 
ATOM      3  C   UNL     1      19.769   1.140  52.164  0.00  0.00    +0.000 A 
ATOM      4  O   UNL     1      18.554   1.025  52.133  0.00  0.00    +0.000 OA
ATOM      5  O   UNL     1      20.418   2.306  52.495  0.00  0.00    +0.000 OA
ATOM      6  C   UNL     1      21.819   2.289  52.395  0.00  0.00    +0.000 A 
ATOM      7  C   UNL     1      22.412   3.313  51.696  0.00  0.00    +0.000 A 
ATOM      8  C   UNL     1      23.783   3.483  51.845  0.00  0.00    +0.000 A 
ATOM      9  C   UNL     1      24.527   2.583  52.638  0.00  0.00    +0.000 A 
ATOM     10  C   UNL     1      23.933   1.362  53.030  0.00  0.00    +0.000 A 
ATOM     11  C   UNL     1      22.554   1.173  52.799  0.00  0.00    +0.000 A 
ATOM     12  O   UNL     1      24.682   0.378  53.638  0.00  0.00    +0.000 OA
ATOM     13  C   UNL     1      26.132   0.525  53.713  0.00  0.00    +0.000 C 
ATOM     14  C   UNL     1      26.599   0.065  55.105  0.00  0.00    +0.000 C 
ATOM     15  C   UNL     1      26.754  -0.390  52.651  0.00  0.00    +0.000 C 
ATOM     16  C   UNL     1      26.662   1.912  53.492  0.00  0.00    +0.000 C 
ATOM     17  C   UNL     1      25.908   2.890  52.968  0.00  0.00    +0.000 C 
ATOM     18  O   UNL     1      24.432   4.532  51.248  0.00  0.00    +0.000 OA
ATOM     19  C   UNL     1      23.799   5.126  50.096  0.00  0.00    +0.000 C 
ATOM     20  C   UNL     1      24.177   4.325  48.843  0.00  0.00    +0.000 C 
ATOM     21  C   UNL     1      22.281   5.313  50.256  0.00  0.00    +0.000 C 
ATOM     22  C   UNL     1      21.914   6.313  51.362  0.00  0.00    +0.000 C 
ATOM     23  C   UNL     1      21.674   3.963  50.553  0.00  0.00    +0.000 C 
ENDROOT
BRANCH  23  24
ATOM     24  O   UNL     1      20.263   4.099  50.676  0.00  0.00    +0.000 OA
ATOM     25  H   UNL     1      20.061   4.793  51.322  0.00  0.00    +0.000 HD
ENDBRANCH  23  24
BRANCH   1  26
ATOM     26  C   UNL     1      22.053  -1.439  53.046  0.00  0.00    +0.000 C 
BRANCH  26  28
ATOM     27  C   UNL     1      22.773  -1.476  55.441  0.00  0.00    +0.000 C 
ATOM     28  C   UNL     1      21.621  -1.738  54.479  0.00  0.00    +0.000 C 
ENDBRANCH  26  28
ENDBRANCH   1  26
TORSDOF 3
ENDMDL
MODEL 4
REMARK VINA RESULT:    -7.742      1.635      2.167
REMARK INTER + INTRA:          -9.256
REMARK INTER:                  -9.025
REMARK INTRA:                  -0.231
REMARK UNBOUND:                -0.382
REMARK  Name = 
REMARK  8 active torsions:
REMARK  status: ('A' for Active; 'I' for Inactive)
REMARK    1  A    between atoms: C_1  and  C_2
REMARK    2  A    between atoms: C_2  and  C_3
REMARK    3  A    between atoms: C_3  and  C_4
REMARK    4  A    between atoms: C_16  and  C_17
REMARK    5  A    between atoms: C_16  and  C_18
REMARK    6  A    between atoms: C_22  and  C_23
REMARK    7  A    between atoms: C_24  and  C_25
REMARK    8  A    between atoms: C_26  and  O_27
REMARK                            x       y       z     vdW  Elec       q    Type
REMARK                         _______ _______ _______ _____ _____    ______ ____
ROOT
ATOM      1  C   UNL     1      25.621   4.217  50.191  0.00  0.00    +0.000 A 
ATOM      2  C   UNL     1      26.213   2.991  50.164  0.00  0.00    +0.000 A 
ATOM      3  C   UNL     1      26.327   2.453  51.543  0.00  0.00    +0.000 A 
ATOM      4  O   UNL     1      27.334   1.903  51.960  0.00  0.00    +0.000 OA
ATOM      5  O   UNL     1      25.164   2.567  52.268  0.00  0.00    +0.000 OA
ATOM      6  C   UNL     1      24.072   3.152  51.605  0.00  0.00    +0.000 A 
ATOM      7  C   UNL     1      22.875   2.479  51.649  0.00  0.00    +0.000 A 
ATOM      8  C   UNL     1      21.732   3.174  51.274  0.00  0.00    +0.000 A 
ATOM      9  C   UNL     1      21.832   4.501  50.805  0.00  0.00    +0.000 A 
ATOM     10  C   UNL     1      23.101   5.007  50.443  0.00  0.00    +0.000 A 
ATOM     11  C   UNL     1      24.249   4.251  50.761  0.00  0.00    +0.000 A 
ATOM     12  O   UNL     1      23.219   6.222  49.804  0.00  0.00    +0.000 OA
ATOM     13  C   UNL     1      22.017   6.905  49.337  0.00  0.00    +0.000 C 
ATOM     14  C   UNL     1      22.158   8.407  49.639  0.00  0.00    +0.000 C 
ATOM     15  C   UNL     1      21.924   6.708  47.819  0.00  0.00    +0.000 C 
ATOM     16  C   UNL     1      20.723   6.440  49.939  0.00  0.00    +0.000 C 
ATOM     17  C   UNL     1      20.626   5.291  50.626  0.00  0.00    +0.000 C 
ATOM     18  O   UNL     1      20.492   2.597  51.373  0.00  0.00    +0.000 OA
ATOM     19  C   UNL     1      20.437   1.156  51.374  0.00  0.00    +0.000 C 
ATOM     20  C   UNL     1      20.434   0.649  49.926  0.00  0.00    +0.000 C 
ATOM     21  C   UNL     1      21.525   0.499  52.239  0.00  0.00    +0.000 C 
ATOM     22  C   UNL     1      21.375   0.817  53.734  0.00  0.00    +0.000 C 
ATOM     23  C   UNL     1      22.868   0.973  51.739  0.00  0.00    +0.000 C 
ENDROOT
BRANCH  23  24
ATOM     24  O   UNL     1      23.899   0.356  52.502  0.00  0.00    +0.000 OA
ATOM     25  H   UNL     1      23.502  -0.175  53.210  0.00  0.00    +0.000 HD
ENDBRANCH  23  24
BRANCH   1  26
ATOM     26  C   UNL     1      26.273   5.224  49.315  0.00  0.00    +0.000 C 
BRANCH  26  28
ATOM     27  C   UNL     1      28.468   5.832  48.283  0.00  0.00    +0.000 C 
ATOM     28  C   UNL     1      27.565   4.682  48.707  0.00  0.00    +0.000 C 
ENDBRANCH  26  28
ENDBRANCH   1  26
TORSDOF 3
ENDMDL
MODEL 5
REMARK VINA RESULT:    -7.497      2.287      5.325
REMARK INTER + INTRA:          -8.975
REMARK INTER:                  -8.667
REMARK INTRA:                  -0.308
REMARK UNBOUND:                -0.382
REMARK  Name = 
REMARK  8 active torsions:
REMARK  status: ('A' for Active; 'I' for Inactive)
REMARK    1  A    between atoms: C_1  and  C_2
REMARK    2  A    between atoms: C_2  and  C_3
REMARK    3  A    between atoms: C_3  and  C_4
REMARK    4  A    between atoms: C_16  and  C_17
REMARK    5  A    between atoms: C_16  and  C_18
REMARK    6  A    between atoms: C_22  and  C_23
REMARK    7  A    between atoms: C_24  and  C_25
REMARK    8  A    between atoms: C_26  and  O_27
REMARK                            x       y       z     vdW  Elec       q    Type
REMARK                         _______ _______ _______ _____ _____    ______ ____
ROOT
ATOM      1  C   UNL     1      24.424   2.224  51.907  0.00  0.00    +0.000 A 
ATOM      2  C   UNL     1      24.831   3.428  51.418  0.00  0.00    +0.000 A 
ATOM      3  C   UNL     1      25.025   3.337  49.948  0.00  0.00    +0.000 A 
ATOM      4  O   UNL     1      25.986   3.825  49.374  0.00  0.00    +0.000 OA
ATOM      5  O   UNL     1      23.981   2.721  49.300  0.00  0.00    +0.000 OA
ATOM      6  C   UNL     1      22.913   2.292  50.106  0.00  0.00    +0.000 A 
ATOM      7  C   UNL     1      21.646   2.659  49.720  0.00  0.00    +0.000 A 
ATOM      8  C   UNL     1      20.577   2.000  50.314  0.00  0.00    +0.000 A 
ATOM      9  C   UNL     1      20.808   1.041  51.323  0.00  0.00    +0.000 A 
ATOM     10  C   UNL     1      22.085   0.970  51.923  0.00  0.00    +0.000 A 
ATOM     11  C   UNL     1      23.144   1.709  51.354  0.00  0.00    +0.000 A 
ATOM     12  O   UNL     1      22.300   0.185  53.035  0.00  0.00    +0.000 OA
ATOM     13  C   UNL     1      21.160  -0.433  53.705  0.00  0.00    +0.000 C 
ATOM     14  C   UNL     1      21.545  -1.870  54.099  0.00  0.00    +0.000 C 
ATOM     15  C   UNL     1      20.867   0.372  54.976  0.00  0.00    +0.000 C 
ATOM     16  C   UNL     1      19.891  -0.507  52.905  0.00  0.00    +0.000 C 
ATOM     17  C   UNL     1      19.713   0.203  51.780  0.00  0.00    +0.000 C 
ATOM     18  O   UNL     1      19.288   2.251  49.920  0.00  0.00    +0.000 OA
ATOM     19  C   UNL     1      19.031   3.519  49.283  0.00  0.00    +0.000 C 
ATOM     20  C   UNL     1      18.790   4.585  50.360  0.00  0.00    +0.000 C 
ATOM     21  C   UNL     1      20.107   3.925  48.264  0.00  0.00    +0.000 C 
ATOM     22  C   UNL     1      20.176   2.979  47.056  0.00  0.00    +0.000 C 
ATOM     23  C   UNL     1      21.438   3.955  48.978  0.00  0.00    +0.000 C 
ENDROOT
BRANCH  23  24
ATOM     24  O   UNL     1      22.452   4.359  48.065  0.00  0.00    +0.000 OA
ATOM     25  H   UNL     1      22.750   5.254  48.289  0.00  0.00    +0.000 HD
ENDBRANCH  23  24
BRANCH   1  26
ATOM     26  C   UNL     1      25.106   1.819  53.163  0.00  0.00    +0.000 C 
BRANCH  26  28
ATOM     27  C   UNL     1      26.648   0.215  52.022  0.00  0.00    +0.000 C 
ATOM     28  C   UNL     1      25.581   0.369  53.097  0.00  0.00    +0.000 C 
ENDBRANCH  26  28
ENDBRANCH   1  26
TORSDOF 3
ENDMDL
MODEL 6
REMARK VINA RESULT:    -7.037      1.885      2.761
REMARK INTER + INTRA:          -8.448
REMARK INTER:                  -8.203
REMARK INTRA:                  -0.245
REMARK UNBOUND:                -0.382
REMARK  Name = 
REMARK  8 active torsions:
REMARK  status: ('A' for Active; 'I' for Inactive)
REMARK    1  A    between atoms: C_1  and  C_2
REMARK    2  A    between atoms: C_2  and  C_3
REMARK    3  A    between atoms: C_3  and  C_4
REMARK    4  A    between atoms: C_16  and  C_17
REMARK    5  A    between atoms: C_16  and  C_18
REMARK    6  A    between atoms: C_22  and  C_23
REMARK    7  A    between atoms: C_24  and  C_25
REMARK    8  A    between atoms: C_26  and  O_27
REMARK                            x       y       z     vdW  Elec       q    Type
REMARK                         _______ _______ _______ _____ _____    ______ ____
ROOT
ATOM      1  C   UNL     1      25.171   2.361  51.879  0.00  0.00    +0.000 A 
ATOM      2  C   UNL     1      24.855   1.037  51.909  0.00  0.00    +0.000 A 
ATOM      3  C   UNL     1      23.847   0.781  52.969  0.00  0.00    +0.000 A 
ATOM      4  O   UNL     1      23.914  -0.168  53.734  0.00  0.00    +0.000 OA
ATOM      5  O   UNL     1      22.800   1.672  52.950  0.00  0.00    +0.000 OA
ATOM      6  C   UNL     1      22.839   2.656  51.947  0.00  0.00    +0.000 A 
ATOM      7  C   UNL     1      21.708   2.822  51.185  0.00  0.00    +0.000 A 
ATOM      8  C   UNL     1      21.616   3.974  50.412  0.00  0.00    +0.000 A 
ATOM      9  C   UNL     1      22.689   4.891  50.378  0.00  0.00    +0.000 A 
ATOM     10  C   UNL     1      23.946   4.495  50.886  0.00  0.00    +0.000 A 
ATOM     11  C   UNL     1      24.038   3.282  51.601  0.00  0.00    +0.000 A 
ATOM     12  O   UNL     1      25.061   5.283  50.701  0.00  0.00    +0.000 OA
ATOM     13  C   UNL     1      24.979   6.443  49.819  0.00  0.00    +0.000 C 
ATOM     14  C   UNL     1      25.742   7.609  50.471  0.00  0.00    +0.000 C 
ATOM     15  C   UNL     1      25.662   6.078  48.496  0.00  0.00    +0.000 C 
ATOM     16  C   UNL     1      23.594   6.928  49.501  0.00  0.00    +0.000 C 
ATOM     17  C   UNL     1      22.503   6.188  49.751  0.00  0.00    +0.000 C 
ATOM     18  O   UNL     1      20.484   4.251  49.691  0.00  0.00    +0.000 OA
ATOM     19  C   UNL     1      19.637   3.135  49.345  0.00  0.00    +0.000 C 
ATOM     20  C   UNL     1      20.161   2.484  48.059  0.00  0.00    +0.000 C 
ATOM     21  C   UNL     1      19.442   2.131  50.493  0.00  0.00    +0.000 C 
ATOM     22  C   UNL     1      18.692   2.731  51.692  0.00  0.00    +0.000 C 
ATOM     23  C   UNL     1      20.805   1.643  50.922  0.00  0.00    +0.000 C 
ENDROOT
BRANCH  23  24
ATOM     24  O   UNL     1      20.654   0.687  51.965  0.00  0.00    +0.000 OA
ATOM     25  H   UNL     1      21.232   0.924  52.706  0.00  0.00    +0.000 HD
ENDBRANCH  23  24
BRANCH   1  26
ATOM     26  C   UNL     1      26.625   2.633  51.745  0.00  0.00    +0.000 C 
BRANCH  26  28
ATOM     27  C   UNL     1      28.351   2.338  53.532  0.00  0.00    +0.000 C 
ATOM     28  C   UNL     1      27.456   1.620  52.529  0.00  0.00    +0.000 C 
ENDBRANCH  26  28
ENDBRANCH   1  26
TORSDOF 3
ENDMDL
MODEL 7
REMARK VINA RESULT:    -7.031      2.446      4.030
REMARK INTER + INTRA:          -8.441
REMARK INTER:                  -8.195
REMARK INTRA:                  -0.246
REMARK UNBOUND:                -0.382
REMARK  Name = 
REMARK  8 active torsions:
REMARK  status: ('A' for Active; 'I' for Inactive)
REMARK    1  A    between atoms: C_1  and  C_2
REMARK    2  A    between atoms: C_2  and  C_3
REMARK    3  A    between atoms: C_3  and  C_4
REMARK    4  A    between atoms: C_16  and  C_17
REMARK    5  A    between atoms: C_16  and  C_18
REMARK    6  A    between atoms: C_22  and  C_23
REMARK    7  A    between atoms: C_24  and  C_25
REMARK    8  A    between atoms: C_26  and  O_27
REMARK                            x       y       z     vdW  Elec       q    Type
REMARK                         _______ _______ _______ _____ _____    ______ ____
ROOT
ATOM      1  C   UNL     1      22.177   0.760  52.694  0.00  0.00    +0.000 A 
ATOM      2  C   UNL     1      22.131  -0.598  52.773  0.00  0.00    +0.000 A 
ATOM      3  C   UNL     1      21.269  -1.011  53.908  0.00  0.00    +0.000 A 
ATOM      4  O   UNL     1      21.574  -1.904  54.684  0.00  0.00    +0.000 OA
ATOM      5  O   UNL     1      20.067  -0.344  53.948  0.00  0.00    +0.000 OA
ATOM      6  C   UNL     1      19.843   0.595  52.927  0.00  0.00    +0.000 A 
ATOM      7  C   UNL     1      18.652   0.511  52.246  0.00  0.00    +0.000 A 
ATOM      8  C   UNL     1      18.282   1.596  51.461  0.00  0.00    +0.000 A 
ATOM      9  C   UNL     1      19.147   2.704  51.331  0.00  0.00    +0.000 A 
ATOM     10  C   UNL     1      20.489   2.579  51.754  0.00  0.00    +0.000 A 
ATOM     11  C   UNL     1      20.868   1.432  52.483  0.00  0.00    +0.000 A 
ATOM     12  O   UNL     1      21.411   3.564  51.473  0.00  0.00    +0.000 OA
ATOM     13  C   UNL     1      21.041   4.656  50.577  0.00  0.00    +0.000 C 
ATOM     14  C   UNL     1      21.601   5.970  51.150  0.00  0.00    +0.000 C 
ATOM     15  C   UNL     1      21.692   4.389  49.215  0.00  0.00    +0.000 C 
ATOM     16  C   UNL     1      19.570   4.849  50.353  0.00  0.00    +0.000 C 
ATOM     17  C   UNL     1      18.666   3.919  50.696  0.00  0.00    +0.000 C 
ATOM     18  O   UNL     1      17.071   1.622  50.820  0.00  0.00    +0.000 OA
ATOM     19  C   UNL     1      16.440   0.351  50.557  0.00  0.00    +0.000 C 
ATOM     20  C   UNL     1      16.994  -0.227  49.248  0.00  0.00    +0.000 C 
ATOM     21  C   UNL     1      16.526  -0.633  51.735  0.00  0.00    +0.000 C 
ATOM     22  C   UNL     1      15.756  -0.154  52.974  0.00  0.00    +0.000 C 
ATOM     23  C   UNL     1      17.984  -0.831  52.072  0.00  0.00    +0.000 C 
ENDROOT
BRANCH  23  24
ATOM     24  O   UNL     1      18.097  -1.763  53.141  0.00  0.00    +0.000 OA
ATOM     25  H   UNL     1      17.874  -1.325  53.977  0.00  0.00    +0.000 HD
ENDBRANCH  23  24
BRANCH   1  26
ATOM     26  C   UNL     1      23.536   1.308  52.450  0.00  0.00    +0.000 C 
BRANCH  26  28
ATOM     27  C   UNL     1      25.831   0.317  52.382  0.00  0.00    +0.000 C 
ATOM     28  C   UNL     1      24.595   0.544  53.242  0.00  0.00    +0.000 C 
ENDBRANCH  26  28
ENDBRANCH   1  26
TORSDOF 3
ENDMDL
MODEL 8
REMARK VINA RESULT:    -6.995      2.038      3.659
REMARK INTER + INTRA:          -8.400
REMARK INTER:                  -8.155
REMARK INTRA:                  -0.244
REMARK UNBOUND:                -0.382
REMARK  Name = 
REMARK  8 active torsions:
REMARK  status: ('A' for Active; 'I' for Inactive)
REMARK    1  A    between atoms: C_1  and  C_2
REMARK    2  A    between atoms: C_2  and  C_3
REMARK    3  A    between atoms: C_3  and  C_4
REMARK    4  A    between atoms: C_16  and  C_17
REMARK    5  A    between atoms: C_16  and  C_18
REMARK    6  A    between atoms: C_22  and  C_23
REMARK    7  A    between atoms: C_24  and  C_25
REMARK    8  A    between atoms: C_26  and  O_27
REMARK                            x       y       z     vdW  Elec       q    Type
REMARK                         _______ _______ _______ _____ _____    ______ ____
ROOT
ATOM      1  C   UNL     1      22.941   1.781  52.444  0.00  0.00    +0.000 A 
ATOM      2  C   UNL     1      22.405   0.531  52.389  0.00  0.00    +0.000 A 
ATOM      3  C   UNL     1      21.300   0.409  53.373  0.00  0.00    +0.000 A 
ATOM      4  O   UNL     1      21.156  -0.567  54.092  0.00  0.00    +0.000 OA
ATOM      5  O   UNL     1      20.422   1.466  53.337  0.00  0.00    +0.000 OA
ATOM      6  C   UNL     1      20.693   2.468  52.390  0.00  0.00    +0.000 A 
ATOM      7  C   UNL     1      19.660   2.856  51.571  0.00  0.00    +0.000 A 
ATOM      8  C   UNL     1      19.815   4.036  50.854  0.00  0.00    +0.000 A 
ATOM      9  C   UNL     1      21.026   4.757  50.930  0.00  0.00    +0.000 A 
ATOM     10  C   UNL     1      22.162   4.131  51.491  0.00  0.00    +0.000 A 
ATOM     11  C   UNL     1      22.001   2.893  52.148  0.00  0.00    +0.000 A 
ATOM     12  O   UNL     1      23.404   4.724  51.412  0.00  0.00    +0.000 OA
ATOM     13  C   UNL     1      23.577   5.915  50.586  0.00  0.00    +0.000 C 
ATOM     14  C   UNL     1      24.480   6.906  51.341  0.00  0.00    +0.000 C 
ATOM     15  C   UNL     1      24.277   5.491  49.289  0.00  0.00    +0.000 C 
ATOM     16  C   UNL     1      22.318   6.642  50.212  0.00  0.00    +0.000 C 
ATOM     17  C   UNL     1      21.103   6.091  50.360  0.00  0.00    +0.000 C 
ATOM     18  O   UNL     1      18.796   4.531  50.082  0.00  0.00    +0.000 OA
ATOM     19  C   UNL     1      17.798   3.592  49.630  0.00  0.00    +0.000 C 
ATOM     20  C   UNL     1      18.290   2.912  48.346  0.00  0.00    +0.000 C 
ATOM     21  C   UNL     1      17.361   2.591  50.712  0.00  0.00    +0.000 C 
ATOM     22  C   UNL     1      16.645   3.261  51.893  0.00  0.00    +0.000 C 
ATOM     23  C   UNL     1      18.590   1.860  51.196  0.00  0.00    +0.000 C 
ENDROOT
BRANCH  23  24
ATOM     24  O   UNL     1      18.212   0.903  52.178  0.00  0.00    +0.000 OA
ATOM     25  H   UNL     1      18.076   0.041  51.753  0.00  0.00    +0.000 HD
ENDBRANCH  23  24
BRANCH   1  26
ATOM     26  C   UNL     1      24.426   1.805  52.411  0.00  0.00    +0.000 C 
BRANCH  26  28
ATOM     27  C   UNL     1      26.344   0.234  52.081  0.00  0.00    +0.000 C 
ATOM     28  C   UNL     1      25.015   0.449  52.793  0.00  0.00    +0.000 C 
ENDBRANCH  26  28
ENDBRANCH   1  26
TORSDOF 3
ENDMDL
MODEL 9
REMARK VINA RESULT:    -6.719      2.077      6.778
REMARK INTER + INTRA:          -8.083
REMARK INTER:                  -7.713
REMARK INTRA:                  -0.370
REMARK UNBOUND:                -0.382
REMARK  Name = 
REMARK  8 active torsions:
REMARK  status: ('A' for Active; 'I' for Inactive)
REMARK    1  A    between atoms: C_1  and  C_2
REMARK    2  A    between atoms: C_2  and  C_3
REMARK    3  A    between atoms: C_3  and  C_4
REMARK    4  A    between atoms: C_16  and  C_17
REMARK    5  A    between atoms: C_16  and  C_18
REMARK    6  A    between atoms: C_22  and  C_23
REMARK    7  A    between atoms: C_24  and  C_25
REMARK    8  A    between atoms: C_26  and  O_27
REMARK                            x       y       z     vdW  Elec       q    Type
REMARK                         _______ _______ _______ _____ _____    ______ ____
ROOT
ATOM      1  C   UNL     1      20.260   1.832  49.955  0.00  0.00    +0.000 A 
ATOM      2  C   UNL     1      20.286   2.292  48.674  0.00  0.00    +0.000 A 
ATOM      3  C   UNL     1      20.207   3.775  48.667  0.00  0.00    +0.000 A 
ATOM      4  O   UNL     1      19.497   4.399  47.894  0.00  0.00    +0.000 OA
ATOM      5  O   UNL     1      21.068   4.369  49.560  0.00  0.00    +0.000 OA
ATOM      6  C   UNL     1      21.876   3.502  50.316  0.00  0.00    +0.000 A 
ATOM      7  C   UNL     1      23.223   3.768  50.349  0.00  0.00    +0.000 A 
ATOM      8  C   UNL     1      23.982   3.124  51.319  0.00  0.00    +0.000 A 
ATOM      9  C   UNL     1      23.378   2.185  52.183  0.00  0.00    +0.000 A 
ATOM     10  C   UNL     1      22.092   1.693  51.869  0.00  0.00    +0.000 A 
ATOM     11  C   UNL     1      21.365   2.307  50.828  0.00  0.00    +0.000 A 
ATOM     12  O   UNL     1      21.548   0.641  52.575  0.00  0.00    +0.000 OA
ATOM     13  C   UNL     1      22.379  -0.085  53.530  0.00  0.00    +0.000 C 
ATOM     14  C   UNL     1      21.539  -0.377  54.786  0.00  0.00    +0.000 C 
ATOM     15  C   UNL     1      22.787  -1.414  52.884  0.00  0.00    +0.000 C 
ATOM     16  C   UNL     1      23.631   0.614  53.973  0.00  0.00    +0.000 C 
ATOM     17  C   UNL     1      24.119   1.684  53.328  0.00  0.00    +0.000 C 
ATOM     18  O   UNL     1      25.316   3.402  51.470  0.00  0.00    +0.000 OA
ATOM     19  C   UNL     1      26.005   3.953  50.329  0.00  0.00    +0.000 C 
ATOM     20  C   UNL     1      26.461   2.809  49.413  0.00  0.00    +0.000 C 
ATOM     21  C   UNL     1      25.201   5.033  49.587  0.00  0.00    +0.000 C 
ATOM     22  C   UNL     1      24.956   6.288  50.439  0.00  0.00    +0.000 C 
ATOM     23  C   UNL     1      23.884   4.427  49.164  0.00  0.00    +0.000 C 
ENDROOT
BRANCH  23  24
ATOM     24  O   UNL     1      23.129   5.396  48.447  0.00  0.00    +0.000 OA
ATOM     25  H   UNL     1      22.616   4.955  47.752  0.00  0.00    +0.000 HD
ENDBRANCH  23  24
BRANCH   1  26
ATOM     26  C   UNL     1      19.375   0.656  50.158  0.00  0.00    +0.000 C 
BRANCH  26  28
ATOM     27  C   UNL     1      18.219  -0.333  52.143  0.00  0.00    +0.000 C 
ATOM     28  C   UNL     1      18.360   0.907  51.270  0.00  0.00    +0.000 C 
ENDBRANCH  26  28
ENDBRANCH   1  26
TORSDOF 3
ENDMDL
