MODEL 1
REMARK VINA RESULT:    -8.480      0.000      0.000
REMARK INTER + INTRA:         -13.463
REMARK INTER:                 -11.951
REMARK INTRA:                  -1.513
REMARK UNBOUND:                -1.513
REMARK  Name = 
REMARK  12 active torsions:
REMARK  status: ('A' for Active; 'I' for Inactive)
REMARK    1  A    between atoms: C_1  and  C_2
REMARK    2  A    between atoms: C_2  and  C_3
REMARK    3  A    between atoms: C_4  and  C_5
REMARK    4  A    between atoms: C_5  and  C_6
REMARK    5  A    between atoms: C_6  and  O_7
REMARK    6  A    between atoms: C_6  and  C_14
REMARK    7  A    between atoms: O_7  and  C_8
REMARK    8  A    between atoms: C_8  and  C_10
REMARK    9  A    between atoms: C_11  and  C_12
REMARK   10  A    between atoms: C_11  and  C_13
REMARK   11  A    between atoms: C_19  and  O_20
REMARK   12  A    between atoms: C_23  and  O_24
REMARK                            x       y       z     vdW  Elec       q    Type
REMARK                         _______ _______ _______ _____ _____    ______ ____
ROOT
ATOM      1  C   UNL     1      24.926   0.387  53.044  0.00  0.00    +0.000 C 
ATOM      2  C   UNL     1      25.218  -0.868  52.681  0.00  0.00    +0.000 C 
ATOM      3  C   UNL     1      26.550  -1.448  52.757  0.00  0.00    +0.000 C 
ATOM      4  O   UNL     1      26.735  -2.624  52.455  0.00  0.00    +0.000 OA
ATOM      5  C   UNL     1      27.653  -0.599  53.210  0.00  0.00    +0.000 A 
ATOM      6  C   UNL     1      28.941  -1.144  53.275  0.00  0.00    +0.000 A 
ATOM      7  C   UNL     1      30.015  -0.363  53.680  0.00  0.00    +0.000 A 
ATOM      8  C   UNL     1      29.803   0.971  54.019  0.00  0.00    +0.000 A 
ATOM      9  C   UNL     1      28.514   1.516  53.963  0.00  0.00    +0.000 A 
ATOM     10  C   UNL     1      27.417   0.736  53.562  0.00  0.00    +0.000 A 
ATOM     11  C   UNL     1      26.027   1.288  53.505  0.00  0.00    +0.000 C 
ATOM     12  O   UNL     1      25.758   2.441  53.819  0.00  0.00    +0.000 OA
ENDROOT
BRANCH   6  13
ATOM     13  O   UNL     1      29.233  -2.444  52.954  0.00  0.00    +0.000 OA
ATOM     14  H   UNL     1      29.908  -2.899  53.416  0.00  0.00    +0.000 HD
ENDBRANCH   6  13
BRANCH   9  15
ATOM     15  O   UNL     1      28.355   2.828  54.303  0.00  0.00    +0.000 OA
ATOM     16  H   UNL     1      27.558   3.274  54.095  0.00  0.00    +0.000 HD
ENDBRANCH   9  15
BRANCH   1  17
ATOM     17  C   UNL     1      23.517   0.970  53.052  0.00  0.00    +0.000 C 
BRANCH  17  18
ATOM     18  C   UNL     1      23.336   2.076  51.986  0.00  0.00    +0.000 C 
BRANCH  18  22
ATOM     19  C   UNL     1      21.941   3.682  49.770  0.00  0.00    +0.000 C 
ATOM     20  C   UNL     1      22.298   2.225  49.658  0.00  0.00    +0.000 C 
ATOM     21  C   UNL     1      21.932   1.529  48.375  0.00  0.00    +0.000 C 
ATOM     22  C   UNL     1      22.925   1.542  50.636  0.00  0.00    +0.000 C 
ENDBRANCH  18  22
ENDBRANCH  17  18
BRANCH  17  23
ATOM     23  O   UNL     1      22.542  -0.116  53.046  0.00  0.00    +0.000 OA
BRANCH  23  24
ATOM     24  C   UNL     1      21.339   0.014  53.652  0.00  0.00    +0.000 C 
ATOM     25  O   UNL     1      21.126   0.437  54.773  0.00  0.00    +0.000 OA
BRANCH  24  26
ATOM     26  C   UNL     1      20.310  -0.199  52.599  0.00  0.00    +0.000 C 
ATOM     27  C   UNL     1      19.620   0.790  51.995  0.00  0.00    +0.000 C 
ATOM     28  C   UNL     1      18.674   0.486  50.866  0.00  0.00    +0.000 C 
ATOM     29  C   UNL     1      19.733   2.248  52.354  0.00  0.00    +0.000 C 
ENDBRANCH  24  26
ENDBRANCH  23  24
ENDBRANCH  17  23
ENDBRANCH   1  17
TORSDOF 8
ENDMDL
MODEL 2
REMARK VINA RESULT:    -8.281      2.030      2.581
REMARK INTER + INTRA:         -13.182
REMARK INTER:                 -12.692
REMARK INTRA:                  -0.490
REMARK UNBOUND:                -1.513
REMARK  Name = 
REMARK  12 active torsions:
REMARK  status: ('A' for Active; 'I' for Inactive)
REMARK    1  A    between atoms: C_1  and  C_2
REMARK    2  A    between atoms: C_2  and  C_3
REMARK    3  A    between atoms: C_4  and  C_5
REMARK    4  A    between atoms: C_5  and  C_6
REMARK    5  A    between atoms: C_6  and  O_7
REMARK    6  A    between atoms: C_6  and  C_14
REMARK    7  A    between atoms: O_7  and  C_8
REMARK    8  A    between atoms: C_8  and  C_10
REMARK    9  A    between atoms: C_11  and  C_12
REMARK   10  A    between atoms: C_11  and  C_13
REMARK   11  A    between atoms: C_19  and  O_20
REMARK   12  A    between atoms: C_23  and  O_24
REMARK                            x       y       z     vdW  Elec       q    Type
REMARK                         _______ _______ _______ _____ _____    ______ ____
ROOT
ATOM      1  C   UNL     1      25.898   0.991  52.467  0.00  0.00    +0.000 C 
ATOM      2  C   UNL     1      25.693  -0.294  52.150  0.00  0.00    +0.000 C 
ATOM      3  C   UNL     1      26.654  -1.356  52.404  0.00  0.00    +0.000 C 
ATOM      4  O   UNL     1      26.379  -2.522  52.134  0.00  0.00    +0.000 OA
ATOM      5  C   UNL     1      27.945  -1.000  52.996  0.00  0.00    +0.000 A 
ATOM      6  C   UNL     1      28.882  -2.014  53.234  0.00  0.00    +0.000 A 
ATOM      7  C   UNL     1      30.123  -1.710  53.774  0.00  0.00    +0.000 A 
ATOM      8  C   UNL     1      30.434  -0.387  54.077  0.00  0.00    +0.000 A 
ATOM      9  C   UNL     1      29.496   0.628  53.848  0.00  0.00    +0.000 A 
ATOM     10  C   UNL     1      28.233   0.335  53.309  0.00  0.00    +0.000 A 
ATOM     11  C   UNL     1      27.206   1.396  53.066  0.00  0.00    +0.000 C 
ATOM     12  O   UNL     1      27.395   2.576  53.337  0.00  0.00    +0.000 OA
ENDROOT
BRANCH   6  13
ATOM     13  O   UNL     1      28.654  -3.336  52.959  0.00  0.00    +0.000 OA
ATOM     14  H   UNL     1      29.375  -3.931  52.891  0.00  0.00    +0.000 HD
ENDBRANCH   6  13
BRANCH   9  15
ATOM     15  O   UNL     1      29.847   1.909  54.159  0.00  0.00    +0.000 OA
ATOM     16  H   UNL     1      30.067   2.134  55.042  0.00  0.00    +0.000 HD
ENDBRANCH   9  15
BRANCH   1  17
ATOM     17  C   UNL     1      24.858   2.092  52.285  0.00  0.00    +0.000 C 
BRANCH  17  18
ATOM     18  C   UNL     1      24.695   2.503  50.803  0.00  0.00    +0.000 C 
BRANCH  18  22
ATOM     19  C   UNL     1      24.931   5.059  49.115  0.00  0.00    +0.000 C 
ATOM     20  C   UNL     1      26.086   4.149  49.434  0.00  0.00    +0.000 C 
ATOM     21  C   UNL     1      27.429   4.529  48.873  0.00  0.00    +0.000 C 
ATOM     22  C   UNL     1      25.965   3.040  50.190  0.00  0.00    +0.000 C 
ENDBRANCH  18  22
ENDBRANCH  17  18
BRANCH  17  23
ATOM     23  O   UNL     1      23.642   1.736  53.008  0.00  0.00    +0.000 OA
BRANCH  23  24
ATOM     24  C   UNL     1      22.583   1.181  52.374  0.00  0.00    +0.000 C 
ATOM     25  O   UNL     1      22.001   1.620  51.400  0.00  0.00    +0.000 OA
BRANCH  24  26
ATOM     26  C   UNL     1      22.435  -0.194  52.923  0.00  0.00    +0.000 C 
ATOM     27  C   UNL     1      21.624  -0.523  53.949  0.00  0.00    +0.000 C 
ATOM     28  C   UNL     1      21.460  -1.959  54.367  0.00  0.00    +0.000 C 
ATOM     29  C   UNL     1      20.808   0.466  54.738  0.00  0.00    +0.000 C 
ENDBRANCH  24  26
ENDBRANCH  23  24
ENDBRANCH  17  23
ENDBRANCH   1  17
TORSDOF 8
ENDMDL
MODEL 3
REMARK VINA RESULT:    -8.221      1.924      4.529
REMARK INTER + INTRA:         -13.098
REMARK INTER:                 -11.864
REMARK INTRA:                  -1.234
REMARK UNBOUND:                -1.513
REMARK  Name = 
REMARK  12 active torsions:
REMARK  status: ('A' for Active; 'I' for Inactive)
REMARK    1  A    between atoms: C_1  and  C_2
REMARK    2  A    between atoms: C_2  and  C_3
REMARK    3  A    between atoms: C_4  and  C_5
REMARK    4  A    between atoms: C_5  and  C_6
REMARK    5  A    between atoms: C_6  and  O_7
REMARK    6  A    between atoms: C_6  and  C_14
REMARK    7  A    between atoms: O_7  and  C_8
REMARK    8  A    between atoms: C_8  and  C_10
REMARK    9  A    between atoms: C_11  and  C_12
REMARK   10  A    between atoms: C_11  and  C_13
REMARK   11  A    between atoms: C_19  and  O_20
REMARK   12  A    between atoms: C_23  and  O_24
REMARK                            x       y       z     vdW  Elec       q    Type
REMARK                         _______ _______ _______ _____ _____    ______ ____
ROOT
ATOM      1  C   UNL     1      25.393   0.930  52.777  0.00  0.00    +0.000 C 
ATOM      2  C   UNL     1      26.153   1.946  53.204  0.00  0.00    +0.000 C 
ATOM      3  C   UNL     1      27.563   1.821  53.540  0.00  0.00    +0.000 C 
ATOM      4  O   UNL     1      28.213   2.807  53.876  0.00  0.00    +0.000 OA
ATOM      5  C   UNL     1      28.183   0.498  53.455  0.00  0.00    +0.000 A 
ATOM      6  C   UNL     1      29.538   0.364  53.788  0.00  0.00    +0.000 A 
ATOM      7  C   UNL     1      30.153  -0.879  53.740  0.00  0.00    +0.000 A 
ATOM      8  C   UNL     1      29.414  -1.996  53.360  0.00  0.00    +0.000 A 
ATOM      9  C   UNL     1      28.062  -1.864  53.020  0.00  0.00    +0.000 A 
ATOM     10  C   UNL     1      27.427  -0.612  53.056  0.00  0.00    +0.000 A 
ATOM     11  C   UNL     1      25.988  -0.439  52.685  0.00  0.00    +0.000 C 
ATOM     12  O   UNL     1      25.283  -1.368  52.311  0.00  0.00    +0.000 OA
ENDROOT
BRANCH   6  13
ATOM     13  O   UNL     1      30.331   1.412  54.174  0.00  0.00    +0.000 OA
ATOM     14  H   UNL     1      30.674   1.443  55.046  0.00  0.00    +0.000 HD
ENDBRANCH   6  13
BRANCH   9  15
ATOM     15  O   UNL     1      27.378  -2.987  52.655  0.00  0.00    +0.000 OA
ATOM     16  H   UNL     1      26.585  -2.914  52.161  0.00  0.00    +0.000 HD
ENDBRANCH   9  15
BRANCH   1  17
ATOM     17  C   UNL     1      23.940   1.075  52.338  0.00  0.00    +0.000 C 
BRANCH  17  18
ATOM     18  C   UNL     1      22.949   0.685  53.459  0.00  0.00    +0.000 C 
BRANCH  18  22
ATOM     19  C   UNL     1      20.990  -1.548  54.244  0.00  0.00    +0.000 C 
ATOM     20  C   UNL     1      20.656  -0.429  53.296  0.00  0.00    +0.000 C 
ATOM     21  C   UNL     1      19.275  -0.428  52.699  0.00  0.00    +0.000 C 
ATOM     22  C   UNL     1      21.525   0.551  52.976  0.00  0.00    +0.000 C 
ENDBRANCH  18  22
ENDBRANCH  17  18
BRANCH  17  23
ATOM     23  O   UNL     1      23.749   2.381  51.716  0.00  0.00    +0.000 OA
BRANCH  23  24
ATOM     24  C   UNL     1      23.524   2.501  50.386  0.00  0.00    +0.000 C 
ATOM     25  O   UNL     1      22.788   1.814  49.703  0.00  0.00    +0.000 OA
BRANCH  24  26
ATOM     26  C   UNL     1      24.131   3.793  49.970  0.00  0.00    +0.000 C 
ATOM     27  C   UNL     1      25.425   3.952  49.624  0.00  0.00    +0.000 C 
ATOM     28  C   UNL     1      25.926   5.276  49.115  0.00  0.00    +0.000 C 
ATOM     29  C   UNL     1      26.461   2.860  49.682  0.00  0.00    +0.000 C 
ENDBRANCH  24  26
ENDBRANCH  23  24
ENDBRANCH  17  23
ENDBRANCH   1  17
TORSDOF 8
ENDMDL
MODEL 4
REMARK VINA RESULT:    -8.188      1.827      3.916
REMARK INTER + INTRA:         -13.051
REMARK INTER:                 -12.212
REMARK INTRA:                  -0.839
REMARK UNBOUND:                -1.513
REMARK  Name = 
REMARK  12 active torsions:
REMARK  status: ('A' for Active; 'I' for Inactive)
REMARK    1  A    between atoms: C_1  and  C_2
REMARK    2  A    between atoms: C_2  and  C_3
REMARK    3  A    between atoms: C_4  and  C_5
REMARK    4  A    between atoms: C_5  and  C_6
REMARK    5  A    between atoms: C_6  and  O_7
REMARK    6  A    between atoms: C_6  and  C_14
REMARK    7  A    between atoms: O_7  and  C_8
REMARK    8  A    between atoms: C_8  and  C_10
REMARK    9  A    between atoms: C_11  and  C_12
REMARK   10  A    between atoms: C_11  and  C_13
REMARK   11  A    between atoms: C_19  and  O_20
REMARK   12  A    between atoms: C_23  and  O_24
REMARK                            x       y       z     vdW  Elec       q    Type
REMARK                         _______ _______ _______ _____ _____    ______ ____
ROOT
ATOM      1  C   UNL     1      24.905   0.483  52.528  0.00  0.00    +0.000 C 
ATOM      2  C   UNL     1      25.217  -0.799  52.295  0.00  0.00    +0.000 C 
ATOM      3  C   UNL     1      26.510  -1.389  52.604  0.00  0.00    +0.000 C 
ATOM      4  O   UNL     1      26.710  -2.585  52.411  0.00  0.00    +0.000 OA
ATOM      5  C   UNL     1      27.554  -0.526  53.158  0.00  0.00    +0.000 A 
ATOM      6  C   UNL     1      28.807  -1.082  53.448  0.00  0.00    +0.000 A 
ATOM      7  C   UNL     1      29.827  -0.289  53.953  0.00  0.00    +0.000 A 
ATOM      8  C   UNL     1      29.599   1.067  54.170  0.00  0.00    +0.000 A 
ATOM      9  C   UNL     1      28.345   1.624  53.888  0.00  0.00    +0.000 A 
ATOM     10  C   UNL     1      27.300   0.833  53.383  0.00  0.00    +0.000 A 
ATOM     11  C   UNL     1      25.947   1.398  53.086  0.00  0.00    +0.000 C 
ATOM     12  O   UNL     1      25.662   2.574  53.280  0.00  0.00    +0.000 OA
ENDROOT
BRANCH   6  13
ATOM     13  O   UNL     1      29.111  -2.404  53.259  0.00  0.00    +0.000 OA
ATOM     14  H   UNL     1      30.007  -2.676  53.215  0.00  0.00    +0.000 HD
ENDBRANCH   6  13
BRANCH   9  15
ATOM     15  O   UNL     1      28.169   2.958  54.115  0.00  0.00    +0.000 OA
ATOM     16  H   UNL     1      28.911   3.530  54.150  0.00  0.00    +0.000 HD
ENDBRANCH   9  15
BRANCH   1  17
ATOM     17  C   UNL     1      23.523   1.083  52.290  0.00  0.00    +0.000 C 
BRANCH  17  18
ATOM     18  C   UNL     1      22.624   0.995  53.545  0.00  0.00    +0.000 C 
BRANCH  18  22
ATOM     19  C   UNL     1      21.191  -1.595  54.369  0.00  0.00    +0.000 C 
ATOM     20  C   UNL     1      20.550  -0.495  53.566  0.00  0.00    +0.000 C 
ATOM     21  C   UNL     1      19.121  -0.702  53.143  0.00  0.00    +0.000 C 
ATOM     22  C   UNL     1      21.191   0.641  53.228  0.00  0.00    +0.000 C 
ENDBRANCH  18  22
ENDBRANCH  17  18
BRANCH  17  23
ATOM     23  O   UNL     1      23.664   2.396  51.671  0.00  0.00    +0.000 OA
BRANCH  23  24
ATOM     24  C   UNL     1      23.539   2.562  50.333  0.00  0.00    +0.000 C 
ATOM     25  O   UNL     1      22.828   1.922  49.581  0.00  0.00    +0.000 OA
BRANCH  24  26
ATOM     26  C   UNL     1      24.221   3.840  50.000  0.00  0.00    +0.000 C 
ATOM     27  C   UNL     1      25.530   3.950  49.694  0.00  0.00    +0.000 C 
ATOM     28  C   UNL     1      26.111   5.270  49.267  0.00  0.00    +0.000 C 
ATOM     29  C   UNL     1      26.507   2.804  49.720  0.00  0.00    +0.000 C 
ENDBRANCH  24  26
ENDBRANCH  23  24
ENDBRANCH  17  23
ENDBRANCH   1  17
TORSDOF 8
ENDMDL
MODEL 5
REMARK VINA RESULT:    -7.924      2.086      7.133
REMARK INTER + INTRA:         -12.679
REMARK INTER:                 -11.620
REMARK INTRA:                  -1.059
REMARK UNBOUND:                -1.513
REMARK  Name = 
REMARK  12 active torsions:
REMARK  status: ('A' for Active; 'I' for Inactive)
REMARK    1  A    between atoms: C_1  and  C_2
REMARK    2  A    between atoms: C_2  and  C_3
REMARK    3  A    between atoms: C_4  and  C_5
REMARK    4  A    between atoms: C_5  and  C_6
REMARK    5  A    between atoms: C_6  and  O_7
REMARK    6  A    between atoms: C_6  and  C_14
REMARK    7  A    between atoms: O_7  and  C_8
REMARK    8  A    between atoms: C_8  and  C_10
REMARK    9  A    between atoms: C_11  and  C_12
REMARK   10  A    between atoms: C_11  and  C_13
REMARK   11  A    between atoms: C_19  and  O_20
REMARK   12  A    between atoms: C_23  and  O_24
REMARK                            x       y       z     vdW  Elec       q    Type
REMARK                         _______ _______ _______ _____ _____    ______ ____
ROOT
ATOM      1  C   UNL     1      23.313   0.225  52.578  0.00  0.00    +0.000 C 
ATOM      2  C   UNL     1      22.837  -0.426  53.648  0.00  0.00    +0.000 C 
ATOM      3  C   UNL     1      21.434  -0.764  53.835  0.00  0.00    +0.000 C 
ATOM      4  O   UNL     1      21.076  -1.409  54.817  0.00  0.00    +0.000 OA
ATOM      5  C   UNL     1      20.472  -0.328  52.821  0.00  0.00    +0.000 A 
ATOM      6  C   UNL     1      19.118  -0.639  52.998  0.00  0.00    +0.000 A 
ATOM      7  C   UNL     1      18.175  -0.222  52.069  0.00  0.00    +0.000 A 
ATOM      8  C   UNL     1      18.584   0.510  50.958  0.00  0.00    +0.000 A 
ATOM      9  C   UNL     1      19.939   0.815  50.774  0.00  0.00    +0.000 A 
ATOM     10  C   UNL     1      20.905   0.394  51.702  0.00  0.00    +0.000 A 
ATOM     11  C   UNL     1      22.361   0.694  51.525  0.00  0.00    +0.000 C 
ATOM     12  O   UNL     1      22.799   1.304  50.558  0.00  0.00    +0.000 OA
ENDROOT
BRANCH   6  13
ATOM     13  O   UNL     1      18.636  -1.350  54.065  0.00  0.00    +0.000 OA
ATOM     14  H   UNL     1      17.799  -1.137  54.430  0.00  0.00    +0.000 HD
ENDBRANCH   6  13
BRANCH   9  15
ATOM     15  O   UNL     1      20.291   1.536  49.671  0.00  0.00    +0.000 OA
ATOM     16  H   UNL     1      21.172   1.841  49.572  0.00  0.00    +0.000 HD
ENDBRANCH   9  15
BRANCH   1  17
ATOM     17  C   UNL     1      24.793   0.501  52.335  0.00  0.00    +0.000 C 
BRANCH  17  18
ATOM     18  C   UNL     1      25.145   1.996  52.518  0.00  0.00    +0.000 C 
BRANCH  18  22
ATOM     19  C   UNL     1      24.442   4.334  50.654  0.00  0.00    +0.000 C 
ATOM     20  C   UNL     1      25.725   3.553  50.578  0.00  0.00    +0.000 C 
ATOM     21  C   UNL     1      26.707   3.953  49.511  0.00  0.00    +0.000 C 
ATOM     22  C   UNL     1      26.023   2.540  51.416  0.00  0.00    +0.000 C 
ENDBRANCH  18  22
ENDBRANCH  17  18
BRANCH  17  23
ATOM     23  O   UNL     1      25.596  -0.461  53.081  0.00  0.00    +0.000 OA
BRANCH  23  24
ATOM     24  C   UNL     1      26.403  -0.069  54.096  0.00  0.00    +0.000 C 
ATOM     25  O   UNL     1      26.057   0.371  55.176  0.00  0.00    +0.000 OA
BRANCH  24  26
ATOM     26  C   UNL     1      27.773  -0.529  53.747  0.00  0.00    +0.000 C 
ATOM     27  C   UNL     1      28.848   0.280  53.651  0.00  0.00    +0.000 C 
ATOM     28  C   UNL     1      30.217  -0.290  53.397  0.00  0.00    +0.000 C 
ATOM     29  C   UNL     1      28.802   1.777  53.805  0.00  0.00    +0.000 C 
ENDBRANCH  24  26
ENDBRANCH  23  24
ENDBRANCH  17  23
ENDBRANCH   1  17
TORSDOF 8
ENDMDL
MODEL 6
REMARK VINA RESULT:    -7.898      2.136      3.439
REMARK INTER + INTRA:         -12.643
REMARK INTER:                 -10.803
REMARK INTRA:                  -1.840
REMARK UNBOUND:                -1.513
REMARK  Name = 
REMARK  12 active torsions:
REMARK  status: ('A' for Active; 'I' for Inactive)
REMARK    1  A    between atoms: C_1  and  C_2
REMARK    2  A    between atoms: C_2  and  C_3
REMARK    3  A    between atoms: C_4  and  C_5
REMARK    4  A    between atoms: C_5  and  C_6
REMARK    5  A    between atoms: C_6  and  O_7
REMARK    6  A    between atoms: C_6  and  C_14
REMARK    7  A    between atoms: O_7  and  C_8
REMARK    8  A    between atoms: C_8  and  C_10
REMARK    9  A    between atoms: C_11  and  C_12
REMARK   10  A    between atoms: C_11  and  C_13
REMARK   11  A    between atoms: C_19  and  O_20
REMARK   12  A    between atoms: C_23  and  O_24
REMARK                            x       y       z     vdW  Elec       q    Type
REMARK                         _______ _______ _______ _____ _____    ______ ____
ROOT
ATOM      1  C   UNL     1      23.418   1.228  52.169  0.00  0.00    +0.000 C 
ATOM      2  C   UNL     1      23.485   0.292  53.125  0.00  0.00    +0.000 C 
ATOM      3  C   UNL     1      24.689  -0.008  53.884  0.00  0.00    +0.000 C 
ATOM      4  O   UNL     1      24.665  -0.845  54.784  0.00  0.00    +0.000 OA
ATOM      5  C   UNL     1      25.918   0.716  53.555  0.00  0.00    +0.000 A 
ATOM      6  C   UNL     1      27.086   0.425  54.272  0.00  0.00    +0.000 A 
ATOM      7  C   UNL     1      28.274   1.076  53.973  0.00  0.00    +0.000 A 
ATOM      8  C   UNL     1      28.299   2.022  52.952  0.00  0.00    +0.000 A 
ATOM      9  C   UNL     1      27.131   2.321  52.239  0.00  0.00    +0.000 A 
ATOM     10  C   UNL     1      25.920   1.675  52.535  0.00  0.00    +0.000 A 
ATOM     11  C   UNL     1      24.654   1.984  51.799  0.00  0.00    +0.000 C 
ATOM     12  O   UNL     1      24.591   2.826  50.911  0.00  0.00    +0.000 OA
ENDROOT
BRANCH   6  13
ATOM     13  O   UNL     1      27.144  -0.494  55.286  0.00  0.00    +0.000 OA
ATOM     14  H   UNL     1      26.495  -0.487  55.962  0.00  0.00    +0.000 HD
ENDBRANCH   6  13
BRANCH   9  15
ATOM     15  O   UNL     1      27.205   3.254  51.246  0.00  0.00    +0.000 OA
ATOM     16  H   UNL     1      26.849   3.067  50.399  0.00  0.00    +0.000 HD
ENDBRANCH   9  15
BRANCH   1  17
ATOM     17  C   UNL     1      22.137   1.609  51.435  0.00  0.00    +0.000 C 
BRANCH  17  18
ATOM     18  C   UNL     1      21.434   0.381  50.810  0.00  0.00    +0.000 C 
BRANCH  18  22
ATOM     19  C   UNL     1      19.788  -0.557  53.228  0.00  0.00    +0.000 C 
ATOM     20  C   UNL     1      19.189   0.011  51.971  0.00  0.00    +0.000 C 
ATOM     21  C   UNL     1      17.689   0.108  51.911  0.00  0.00    +0.000 C 
ATOM     22  C   UNL     1      19.930   0.432  50.926  0.00  0.00    +0.000 C 
ENDBRANCH  18  22
ENDBRANCH  17  18
BRANCH  17  23
ATOM     23  O   UNL     1      21.325   2.469  52.289  0.00  0.00    +0.000 OA
BRANCH  23  24
ATOM     24  C   UNL     1      21.174   3.787  52.021  0.00  0.00    +0.000 C 
ATOM     25  O   UNL     1      22.057   4.618  51.917  0.00  0.00    +0.000 OA
BRANCH  24  26
ATOM     26  C   UNL     1      19.756   3.976  51.614  0.00  0.00    +0.000 C 
ATOM     27  C   UNL     1      19.316   3.931  50.340  0.00  0.00    +0.000 C 
ATOM     28  C   UNL     1      17.847   4.029  50.032  0.00  0.00    +0.000 C 
ATOM     29  C   UNL     1      20.208   3.760  49.138  0.00  0.00    +0.000 C 
ENDBRANCH  24  26
ENDBRANCH  23  24
ENDBRANCH  17  23
ENDBRANCH   1  17
TORSDOF 8
ENDMDL
MODEL 7
REMARK VINA RESULT:    -7.782      2.234      3.693
REMARK INTER + INTRA:         -12.479
REMARK INTER:                 -10.423
REMARK INTRA:                  -2.056
REMARK UNBOUND:                -1.513
REMARK  Name = 
REMARK  12 active torsions:
REMARK  status: ('A' for Active; 'I' for Inactive)
REMARK    1  A    between atoms: C_1  and  C_2
REMARK    2  A    between atoms: C_2  and  C_3
REMARK    3  A    between atoms: C_4  and  C_5
REMARK    4  A    between atoms: C_5  and  C_6
REMARK    5  A    between atoms: C_6  and  O_7
REMARK    6  A    between atoms: C_6  and  C_14
REMARK    7  A    between atoms: O_7  and  C_8
REMARK    8  A    between atoms: C_8  and  C_10
REMARK    9  A    between atoms: C_11  and  C_12
REMARK   10  A    between atoms: C_11  and  C_13
REMARK   11  A    between atoms: C_19  and  O_20
REMARK   12  A    between atoms: C_23  and  O_24
REMARK                            x       y       z     vdW  Elec       q    Type
REMARK                         _______ _______ _______ _____ _____    ______ ____
ROOT
ATOM      1  C   UNL     1      23.344   1.561  51.772  0.00  0.00    +0.000 C 
ATOM      2  C   UNL     1      23.005   0.597  52.637  0.00  0.00    +0.000 C 
ATOM      3  C   UNL     1      23.917   0.027  53.617  0.00  0.00    +0.000 C 
ATOM      4  O   UNL     1      23.523  -0.819  54.415  0.00  0.00    +0.000 OA
ATOM      5  C   UNL     1      25.304   0.495  53.631  0.00  0.00    +0.000 A 
ATOM      6  C   UNL     1      26.193  -0.056  54.562  0.00  0.00    +0.000 A 
ATOM      7  C   UNL     1      27.520   0.348  54.590  0.00  0.00    +0.000 A 
ATOM      8  C   UNL     1      27.965   1.305  53.682  0.00  0.00    +0.000 A 
ATOM      9  C   UNL     1      27.076   1.864  52.755  0.00  0.00    +0.000 A 
ATOM     10  C   UNL     1      25.728   1.471  52.719  0.00  0.00    +0.000 A 
ATOM     11  C   UNL     1      24.753   2.060  51.749  0.00  0.00    +0.000 C 
ATOM     12  O   UNL     1      25.063   2.929  50.943  0.00  0.00    +0.000 OA
ENDROOT
BRANCH   6  13
ATOM     13  O   UNL     1      25.835  -1.004  55.484  0.00  0.00    +0.000 OA
ATOM     14  H   UNL     1      26.424  -1.703  55.689  0.00  0.00    +0.000 HD
ENDBRANCH   6  13
BRANCH   9  15
ATOM     15  O   UNL     1      27.558   2.798  51.884  0.00  0.00    +0.000 OA
ATOM     16  H   UNL     1      27.631   2.595  50.972  0.00  0.00    +0.000 HD
ENDBRANCH   9  15
BRANCH   1  17
ATOM     17  C   UNL     1      22.368   2.224  50.806  0.00  0.00    +0.000 C 
BRANCH  17  18
ATOM     18  C   UNL     1      21.743   1.210  49.818  0.00  0.00    +0.000 C 
BRANCH  18  22
ATOM     19  C   UNL     1      22.192   2.805  47.232  0.00  0.00    +0.000 C 
ATOM     20  C   UNL     1      20.838   2.526  47.825  0.00  0.00    +0.000 C 
ATOM     21  C   UNL     1      19.645   3.080  47.096  0.00  0.00    +0.000 C 
ATOM     22  C   UNL     1      20.661   1.810  48.954  0.00  0.00    +0.000 C 
ENDBRANCH  18  22
ENDBRANCH  17  18
BRANCH  17  23
ATOM     23  O   UNL     1      21.444   3.071  51.553  0.00  0.00    +0.000 OA
BRANCH  23  24
ATOM     24  C   UNL     1      21.713   4.378  51.780  0.00  0.00    +0.000 C 
ATOM     25  O   UNL     1      22.501   4.832  52.588  0.00  0.00    +0.000 OA
BRANCH  24  26
ATOM     26  C   UNL     1      21.071   5.140  50.676  0.00  0.00    +0.000 C 
ATOM     27  C   UNL     1      21.729   5.643  49.612  0.00  0.00    +0.000 C 
ATOM     28  C   UNL     1      20.980   6.309  48.491  0.00  0.00    +0.000 C 
ATOM     29  C   UNL     1      23.222   5.575  49.426  0.00  0.00    +0.000 C 
ENDBRANCH  24  26
ENDBRANCH  23  24
ENDBRANCH  17  23
ENDBRANCH   1  17
TORSDOF 8
ENDMDL
MODEL 8
REMARK VINA RESULT:    -7.762      2.860      6.744
REMARK INTER + INTRA:         -12.450
REMARK INTER:                 -11.575
REMARK INTRA:                  -0.875
REMARK UNBOUND:                -1.513
REMARK  Name = 
REMARK  12 active torsions:
REMARK  status: ('A' for Active; 'I' for Inactive)
REMARK    1  A    between atoms: C_1  and  C_2
REMARK    2  A    between atoms: C_2  and  C_3
REMARK    3  A    between atoms: C_4  and  C_5
REMARK    4  A    between atoms: C_5  and  C_6
REMARK    5  A    between atoms: C_6  and  O_7
REMARK    6  A    between atoms: C_6  and  C_14
REMARK    7  A    between atoms: O_7  and  C_8
REMARK    8  A    between atoms: C_8  and  C_10
REMARK    9  A    between atoms: C_11  and  C_12
REMARK   10  A    between atoms: C_11  and  C_13
REMARK   11  A    between atoms: C_19  and  O_20
REMARK   12  A    between atoms: C_23  and  O_24
REMARK                            x       y       z     vdW  Elec       q    Type
REMARK                         _______ _______ _______ _____ _____    ______ ____
ROOT
ATOM      1  C   UNL     1      24.641   2.597  52.575  0.00  0.00    +0.000 C 
ATOM      2  C   UNL     1      23.604   3.418  52.788  0.00  0.00    +0.000 C 
ATOM      3  C   UNL     1      23.300   4.575  51.961  0.00  0.00    +0.000 C 
ATOM      4  O   UNL     1      22.302   5.254  52.184  0.00  0.00    +0.000 OA
ATOM      5  C   UNL     1      24.205   4.897  50.856  0.00  0.00    +0.000 A 
ATOM      6  C   UNL     1      23.928   6.017  50.061  0.00  0.00    +0.000 A 
ATOM      7  C   UNL     1      24.775   6.366  49.019  0.00  0.00    +0.000 A 
ATOM      8  C   UNL     1      25.908   5.595  48.769  0.00  0.00    +0.000 A 
ATOM      9  C   UNL     1      26.183   4.470  49.558  0.00  0.00    +0.000 A 
ATOM     10  C   UNL     1      25.331   4.101  50.611  0.00  0.00    +0.000 A 
ATOM     11  C   UNL     1      25.593   2.898  51.461  0.00  0.00    +0.000 C 
ATOM     12  O   UNL     1      26.550   2.154  51.282  0.00  0.00    +0.000 OA
ENDROOT
BRANCH   6  13
ATOM     13  O   UNL     1      22.838   6.827  50.245  0.00  0.00    +0.000 OA
ATOM     14  H   UNL     1      22.937   7.758  50.212  0.00  0.00    +0.000 HD
ENDBRANCH   6  13
BRANCH   9  15
ATOM     15  O   UNL     1      27.305   3.747  49.276  0.00  0.00    +0.000 OA
ATOM     16  H   UNL     1      28.132   4.004  49.636  0.00  0.00    +0.000 HD
ENDBRANCH   9  15
BRANCH   1  17
ATOM     17  C   UNL     1      24.911   1.333  53.383  0.00  0.00    +0.000 C 
BRANCH  17  18
ATOM     18  C   UNL     1      24.421   0.059  52.656  0.00  0.00    +0.000 C 
BRANCH  18  22
ATOM     19  C   UNL     1      21.378   0.214  52.266  0.00  0.00    +0.000 C 
ATOM     20  C   UNL     1      22.052  -0.650  53.296  0.00  0.00    +0.000 C 
ATOM     21  C   UNL     1      21.161  -1.473  54.186  0.00  0.00    +0.000 C 
ATOM     22  C   UNL     1      23.390  -0.716  53.442  0.00  0.00    +0.000 C 
ENDBRANCH  18  22
ENDBRANCH  17  18
BRANCH  17  23
ATOM     23  O   UNL     1      26.295   1.337  53.844  0.00  0.00    +0.000 OA
BRANCH  23  24
ATOM     24  C   UNL     1      26.723   0.477  54.798  0.00  0.00    +0.000 C 
ATOM     25  O   UNL     1      26.033  -0.137  55.591  0.00  0.00    +0.000 OA
BRANCH  24  26
ATOM     26  C   UNL     1      28.160   0.218  54.520  0.00  0.00    +0.000 C 
ATOM     27  C   UNL     1      28.615  -0.707  53.650  0.00  0.00    +0.000 C 
ATOM     28  C   UNL     1      30.085  -0.826  53.355  0.00  0.00    +0.000 C 
ATOM     29  C   UNL     1      27.735  -1.664  52.891  0.00  0.00    +0.000 C 
ENDBRANCH  24  26
ENDBRANCH  23  24
ENDBRANCH  17  23
ENDBRANCH   1  17
TORSDOF 8
ENDMDL
MODEL 9
REMARK VINA RESULT:    -7.666      3.549      5.951
REMARK INTER + INTRA:         -12.315
REMARK INTER:                 -10.315
REMARK INTRA:                  -2.001
REMARK UNBOUND:                -1.513
REMARK  Name = 
REMARK  12 active torsions:
REMARK  status: ('A' for Active; 'I' for Inactive)
REMARK    1  A    between atoms: C_1  and  C_2
REMARK    2  A    between atoms: C_2  and  C_3
REMARK    3  A    between atoms: C_4  and  C_5
REMARK    4  A    between atoms: C_5  and  C_6
REMARK    5  A    between atoms: C_6  and  O_7
REMARK    6  A    between atoms: C_6  and  C_14
REMARK    7  A    between atoms: O_7  and  C_8
REMARK    8  A    between atoms: C_8  and  C_10
REMARK    9  A    between atoms: C_11  and  C_12
REMARK   10  A    between atoms: C_11  and  C_13
REMARK   11  A    between atoms: C_19  and  O_20
REMARK   12  A    between atoms: C_23  and  O_24
REMARK                            x       y       z     vdW  Elec       q    Type
REMARK                         _______ _______ _______ _____ _____    ______ ____
ROOT
ATOM      1  C   UNL     1      24.033   3.402  50.380  0.00  0.00    +0.000 C 
ATOM      2  C   UNL     1      25.228   3.315  49.781  0.00  0.00    +0.000 C 
ATOM      3  C   UNL     1      26.085   4.458  49.509  0.00  0.00    +0.000 C 
ATOM      4  O   UNL     1      27.193   4.299  49.002  0.00  0.00    +0.000 OA
ATOM      5  C   UNL     1      25.599   5.793  49.863  0.00  0.00    +0.000 A 
ATOM      6  C   UNL     1      26.412   6.901  49.593  0.00  0.00    +0.000 A 
ATOM      7  C   UNL     1      25.974   8.183  49.895  0.00  0.00    +0.000 A 
ATOM      8  C   UNL     1      24.717   8.361  50.467  0.00  0.00    +0.000 A 
ATOM      9  C   UNL     1      23.906   7.254  50.745  0.00  0.00    +0.000 A 
ATOM     10  C   UNL     1      24.338   5.950  50.452  0.00  0.00    +0.000 A 
ATOM     11  C   UNL     1      23.498   4.748  50.749  0.00  0.00    +0.000 C 
ATOM     12  O   UNL     1      22.397   4.824  51.281  0.00  0.00    +0.000 OA
ENDROOT
BRANCH   6  13
ATOM     13  O   UNL     1      27.657   6.810  49.029  0.00  0.00    +0.000 OA
ATOM     14  H   UNL     1      27.807   7.150  48.169  0.00  0.00    +0.000 HD
ENDBRANCH   6  13
BRANCH   9  15
ATOM     15  O   UNL     1      22.681   7.479  51.304  0.00  0.00    +0.000 OA
ATOM     16  H   UNL     1      21.931   7.011  50.994  0.00  0.00    +0.000 HD
ENDBRANCH   9  15
BRANCH   1  17
ATOM     17  C   UNL     1      23.173   2.199  50.749  0.00  0.00    +0.000 C 
BRANCH  17  18
ATOM     18  C   UNL     1      22.235   1.775  49.595  0.00  0.00    +0.000 C 
BRANCH  18  22
ATOM     19  C   UNL     1      19.717   2.571  51.164  0.00  0.00    +0.000 C 
ATOM     20  C   UNL     1      20.033   1.164  50.736  0.00  0.00    +0.000 C 
ATOM     21  C   UNL     1      19.046   0.095  51.118  0.00  0.00    +0.000 C 
ATOM     22  C   UNL     1      21.136   0.837  50.033  0.00  0.00    +0.000 C 
ENDBRANCH  18  22
ENDBRANCH  17  18
BRANCH  17  23
ATOM     23  O   UNL     1      24.015   1.158  51.329  0.00  0.00    +0.000 OA
BRANCH  23  24
ATOM     24  C   UNL     1      24.209   1.072  52.666  0.00  0.00    +0.000 C 
ATOM     25  O   UNL     1      25.273   1.115  53.254  0.00  0.00    +0.000 OA
BRANCH  24  26
ATOM     26  C   UNL     1      22.867   1.187  53.296  0.00  0.00    +0.000 C 
ATOM     27  C   UNL     1      22.074   0.139  53.598  0.00  0.00    +0.000 C 
ATOM     28  C   UNL     1      20.777   0.345  54.332  0.00  0.00    +0.000 C 
ATOM     29  C   UNL     1      22.398  -1.295  53.271  0.00  0.00    +0.000 C 
ENDBRANCH  24  26
ENDBRANCH  23  24
ENDBRANCH  17  23
ENDBRANCH   1  17
TORSDOF 8
ENDMDL
