MODEL 1
REMARK VINA RESULT:   -10.346      0.000      0.000
REMARK INTER + INTRA:         -12.899
REMARK INTER:                 -12.161
REMARK INTRA:                  -0.738
REMARK UNBOUND:                -0.738
REMARK  Name = 
REMARK  5 active torsions:
REMARK  status: ('A' for Active; 'I' for Inactive)
REMARK    1  A    between atoms: C_1  and  N_2
REMARK    2  A    between atoms: C_5  and  C_6
REMARK    3  A    between atoms: C_7  and  O_8
REMARK    4  A    between atoms: C_10  and  O_11
REMARK    5  A    between atoms: C_16  and  C_17
REMARK                            x       y       z     vdW  Elec       q    Type
REMARK                         _______ _______ _______ _____ _____    ______ ____
ROOT
ATOM      1  C   UNL     1      24.411  -0.364  54.126  0.00  0.00    +0.000 A 
ATOM      2  C   UNL     1      23.682  -1.143  55.035  0.00  0.00    +0.000 A 
ATOM      3  C   UNL     1      22.289  -1.129  55.042  0.00  0.00    +0.000 A 
ATOM      4  C   UNL     1      21.605  -0.334  54.124  0.00  0.00    +0.000 A 
ATOM      5  C   UNL     1      22.306   0.463  53.209  0.00  0.00    +0.000 A 
ATOM      6  C   UNL     1      21.619   1.301  52.201  0.00  0.00    +0.000 A 
ATOM      7  O   UNL     1      20.402   1.332  52.033  0.00  0.00    +0.000 OA
ATOM      8  C   UNL     1      22.470   2.143  51.349  0.00  0.00    +0.000 A 
ATOM      9  C   UNL     1      23.800   2.099  51.489  0.00  0.00    +0.000 A 
ATOM     10  O   UNL     1      24.452   1.247  52.366  0.00  0.00    +0.000 OA
ATOM     11  C   UNL     1      23.706   0.464  53.224  0.00  0.00    +0.000 A 
ENDROOT
BRANCH   1  16
ATOM     12  C   UNL     1      30.054  -0.228  53.490  0.00  0.00    +0.000 C 
ATOM     13  N   UNL     1      28.794  -0.752  54.028  0.00  0.00    +0.000 N 
ATOM     14  C   UNL     1      28.148   0.249  54.879  0.00  0.00    +0.000 C 
ATOM     15  C   UNL     1      26.654   0.280  54.900  0.00  0.00    +0.000 C 
ATOM     16  C   UNL     1      25.882  -0.449  54.083  0.00  0.00    +0.000 C 
ATOM     17  C   UNL     1      26.465  -1.399  53.088  0.00  0.00    +0.000 C 
ATOM     18  C   UNL     1      27.995  -1.349  52.955  0.00  0.00    +0.000 C 
ATOM     19  H   UNL     1      28.952  -1.531  54.667  0.00  0.00    +0.000 HD
ENDBRANCH   1  16
BRANCH   9  20
ATOM     20  C   UNL     1      24.699   2.953  50.677  0.00  0.00    +0.000 A 
ATOM     21  C   UNL     1      24.197   4.099  50.033  0.00  0.00    +0.000 A 
ATOM     22  C   UNL     1      25.030   4.914  49.255  0.00  0.00    +0.000 A 
ATOM     23  C   UNL     1      26.379   4.597  49.102  0.00  0.00    +0.000 A 
ATOM     24  C   UNL     1      26.894   3.463  49.721  0.00  0.00    +0.000 A 
ATOM     25  C   UNL     1      26.058   2.654  50.490  0.00  0.00    +0.000 A 
ATOM     26  F   UNL     1      26.601   1.557  51.042  0.00  0.00    +0.000 F 
ENDBRANCH   9  20
BRANCH   2  27
ATOM     27  O   UNL     1      24.352  -1.942  55.923  0.00  0.00    +0.000 OA
ATOM     28  H   UNL     1      24.019  -2.060  56.791  0.00  0.00    +0.000 HD
ENDBRANCH   2  27
BRANCH   4  29
ATOM     29  O   UNL     1      20.240  -0.350  54.136  0.00  0.00    +0.000 OA
ATOM     30  H   UNL     1      19.759   0.112  53.476  0.00  0.00    +0.000 HD
ENDBRANCH   4  29
TORSDOF 4
ENDMDL
MODEL 2
REMARK VINA RESULT:    -9.452      1.985      5.303
REMARK INTER + INTRA:         -11.848
REMARK INTER:                 -11.025
REMARK INTRA:                  -0.823
REMARK UNBOUND:                -0.738
REMARK  Name = 
REMARK  5 active torsions:
REMARK  status: ('A' for Active; 'I' for Inactive)
REMARK    1  A    between atoms: C_1  and  N_2
REMARK    2  A    between atoms: C_5  and  C_6
REMARK    3  A    between atoms: C_7  and  O_8
REMARK    4  A    between atoms: C_10  and  O_11
REMARK    5  A    between atoms: C_16  and  C_17
REMARK                            x       y       z     vdW  Elec       q    Type
REMARK                         _______ _______ _______ _____ _____    ______ ____
ROOT
ATOM      1  C   UNL     1      22.350   1.973  52.282  0.00  0.00    +0.000 A 
ATOM      2  C   UNL     1      20.966   2.062  52.079  0.00  0.00    +0.000 A 
ATOM      3  C   UNL     1      20.095   1.123  52.626  0.00  0.00    +0.000 A 
ATOM      4  C   UNL     1      20.606   0.078  53.394  0.00  0.00    +0.000 A 
ATOM      5  C   UNL     1      21.985  -0.044  53.607  0.00  0.00    +0.000 A 
ATOM      6  C   UNL     1      22.566  -1.122  54.438  0.00  0.00    +0.000 A 
ATOM      7  O   UNL     1      21.909  -1.956  55.055  0.00  0.00    +0.000 OA
ATOM      8  C   UNL     1      24.032  -1.178  54.521  0.00  0.00    +0.000 A 
ATOM      9  C   UNL     1      24.768  -0.258  53.886  0.00  0.00    +0.000 A 
ATOM     10  O   UNL     1      24.228   0.808  53.185  0.00  0.00    +0.000 OA
ATOM     11  C   UNL     1      22.858   0.890  53.034  0.00  0.00    +0.000 A 
ENDROOT
BRANCH   1  16
ATOM     12  C   UNL     1      25.314   6.189  49.892  0.00  0.00    +0.000 C 
ATOM     13  N   UNL     1      25.143   5.007  50.744  0.00  0.00    +0.000 N 
ATOM     14  C   UNL     1      24.249   5.309  51.862  0.00  0.00    +0.000 C 
ATOM     15  C   UNL     1      23.370   4.209  52.363  0.00  0.00    +0.000 C 
ATOM     16  C   UNL     1      23.250   3.018  51.760  0.00  0.00    +0.000 C 
ATOM     17  C   UNL     1      24.029   2.674  50.532  0.00  0.00    +0.000 C 
ATOM     18  C   UNL     1      24.834   3.833  49.924  0.00  0.00    +0.000 C 
ATOM     19  H   UNL     1      26.014   4.748  51.208  0.00  0.00    +0.000 HD
ENDBRANCH   1  16
BRANCH   9  20
ATOM     20  C   UNL     1      26.250  -0.291  53.912  0.00  0.00    +0.000 A 
ATOM     21  C   UNL     1      26.961   0.514  54.819  0.00  0.00    +0.000 A 
ATOM     22  C   UNL     1      28.362   0.501  54.853  0.00  0.00    +0.000 A 
ATOM     23  C   UNL     1      29.079  -0.313  53.977  0.00  0.00    +0.000 A 
ATOM     24  C   UNL     1      28.396  -1.109  53.065  0.00  0.00    +0.000 A 
ATOM     25  C   UNL     1      27.002  -1.089  53.033  0.00  0.00    +0.000 A 
ATOM     26  F   UNL     1      26.395  -1.855  52.114  0.00  0.00    +0.000 F 
ENDBRANCH   9  20
BRANCH   2  27
ATOM     27  O   UNL     1      20.462   3.100  51.343  0.00  0.00    +0.000 OA
ATOM     28  H   UNL     1      20.066   3.832  51.774  0.00  0.00    +0.000 HD
ENDBRANCH   2  27
BRANCH   4  29
ATOM     29  O   UNL     1      19.733  -0.822  53.936  0.00  0.00    +0.000 OA
ATOM     30  H   UNL     1      19.531  -0.788  54.851  0.00  0.00    +0.000 HD
ENDBRANCH   4  29
TORSDOF 4
ENDMDL
MODEL 3
REMARK VINA RESULT:    -9.406      1.234      1.564
REMARK INTER + INTRA:         -11.794
REMARK INTER:                 -11.046
REMARK INTRA:                  -0.748
REMARK UNBOUND:                -0.738
REMARK  Name = 
REMARK  5 active torsions:
REMARK  status: ('A' for Active; 'I' for Inactive)
REMARK    1  A    between atoms: C_1  and  N_2
REMARK    2  A    between atoms: C_5  and  C_6
REMARK    3  A    between atoms: C_7  and  O_8
REMARK    4  A    between atoms: C_10  and  O_11
REMARK    5  A    between atoms: C_16  and  C_17
REMARK                            x       y       z     vdW  Elec       q    Type
REMARK                         _______ _______ _______ _____ _____    ______ ____
ROOT
ATOM      1  C   UNL     1      23.864   0.349  52.883  0.00  0.00    +0.000 A 
ATOM      2  C   UNL     1      22.944  -0.472  53.550  0.00  0.00    +0.000 A 
ATOM      3  C   UNL     1      21.601  -0.498  53.182  0.00  0.00    +0.000 A 
ATOM      4  C   UNL     1      21.162   0.300  52.127  0.00  0.00    +0.000 A 
ATOM      5  C   UNL     1      22.055   1.139  51.447  0.00  0.00    +0.000 A 
ATOM      6  C   UNL     1      21.636   1.982  50.306  0.00  0.00    +0.000 A 
ATOM      7  O   UNL     1      20.509   1.983  49.817  0.00  0.00    +0.000 OA
ATOM      8  C   UNL     1      22.656   2.869  49.727  0.00  0.00    +0.000 A 
ATOM      9  C   UNL     1      23.900   2.859  50.220  0.00  0.00    +0.000 A 
ATOM     10  O   UNL     1      24.321   2.004  51.225  0.00  0.00    +0.000 OA
ATOM     11  C   UNL     1      23.400   1.179  51.838  0.00  0.00    +0.000 A 
ENDROOT
BRANCH   1  16
ATOM     12  C   UNL     1      29.484   0.528  53.688  0.00  0.00    +0.000 C 
ATOM     13  N   UNL     1      28.115   0.098  53.994  0.00  0.00    +0.000 N 
ATOM     14  C   UNL     1      27.300   1.244  54.399  0.00  0.00    +0.000 C 
ATOM     15  C   UNL     1      25.852   1.229  54.031  0.00  0.00    +0.000 C 
ATOM     16  C   UNL     1      25.295   0.306  53.235  0.00  0.00    +0.000 C 
ATOM     17  C   UNL     1      26.087  -0.826  52.667  0.00  0.00    +0.000 C 
ATOM     18  C   UNL     1      27.601  -0.755  52.920  0.00  0.00    +0.000 C 
ATOM     19  H   UNL     1      28.085  -0.508  54.813  0.00  0.00    +0.000 HD
ENDBRANCH   1  16
BRANCH   9  20
ATOM     20  C   UNL     1      24.955   3.758  49.693  0.00  0.00    +0.000 A 
ATOM     21  C   UNL     1      24.624   5.045  49.235  0.00  0.00    +0.000 A 
ATOM     22  C   UNL     1      25.606   5.906  48.728  0.00  0.00    +0.000 A 
ATOM     23  C   UNL     1      26.937   5.494  48.663  0.00  0.00    +0.000 A 
ATOM     24  C   UNL     1      27.284   4.221  49.100  0.00  0.00    +0.000 A 
ATOM     25  C   UNL     1      26.301   3.368  49.601  0.00  0.00    +0.000 A 
ATOM     26  F   UNL     1      26.687   2.140  49.983  0.00  0.00    +0.000 F 
ENDBRANCH   9  20
BRANCH   2  27
ATOM     27  O   UNL     1      23.378  -1.274  54.572  0.00  0.00    +0.000 OA
ATOM     28  H   UNL     1      24.173  -1.069  55.024  0.00  0.00    +0.000 HD
ENDBRANCH   2  27
BRANCH   4  29
ATOM     29  O   UNL     1      19.845   0.246  51.771  0.00  0.00    +0.000 OA
ATOM     30  H   UNL     1      19.594  -0.149  50.959  0.00  0.00    +0.000 HD
ENDBRANCH   4  29
TORSDOF 4
ENDMDL
MODEL 4
REMARK VINA RESULT:    -9.362      2.711      5.327
REMARK INTER + INTRA:         -11.743
REMARK INTER:                 -10.832
REMARK INTRA:                  -0.911
REMARK UNBOUND:                -0.738
REMARK  Name = 
REMARK  5 active torsions:
REMARK  status: ('A' for Active; 'I' for Inactive)
REMARK    1  A    between atoms: C_1  and  N_2
REMARK    2  A    between atoms: C_5  and  C_6
REMARK    3  A    between atoms: C_7  and  O_8
REMARK    4  A    between atoms: C_10  and  O_11
REMARK    5  A    between atoms: C_16  and  C_17
REMARK                            x       y       z     vdW  Elec       q    Type
REMARK                         _______ _______ _______ _____ _____    ______ ____
ROOT
ATOM      1  C   UNL     1      22.129   0.056  53.314  0.00  0.00    +0.000 A 
ATOM      2  C   UNL     1      21.754  -0.971  54.190  0.00  0.00    +0.000 A 
ATOM      3  C   UNL     1      22.677  -1.554  55.056  0.00  0.00    +0.000 A 
ATOM      4  C   UNL     1      23.996  -1.103  55.059  0.00  0.00    +0.000 A 
ATOM      5  C   UNL     1      24.404  -0.084  54.188  0.00  0.00    +0.000 A 
ATOM      6  C   UNL     1      25.787   0.442  54.177  0.00  0.00    +0.000 A 
ATOM      7  O   UNL     1      26.672   0.088  54.952  0.00  0.00    +0.000 OA
ATOM      8  C   UNL     1      26.101   1.460  53.166  0.00  0.00    +0.000 A 
ATOM      9  C   UNL     1      25.143   1.888  52.334  0.00  0.00    +0.000 A 
ATOM     10  O   UNL     1      23.824   1.468  52.402  0.00  0.00    +0.000 OA
ATOM     11  C   UNL     1      23.477   0.480  53.302  0.00  0.00    +0.000 A 
ENDROOT
BRANCH   1  16
ATOM     12  C   UNL     1      18.744   2.967  49.802  0.00  0.00    +0.000 C 
ATOM     13  N   UNL     1      19.031   1.992  50.860  0.00  0.00    +0.000 N 
ATOM     14  C   UNL     1      19.823   0.882  50.329  0.00  0.00    +0.000 C 
ATOM     15  C   UNL     1      20.817   0.241  51.243  0.00  0.00    +0.000 C 
ATOM     16  C   UNL     1      21.123   0.713  52.459  0.00  0.00    +0.000 C 
ATOM     17  C   UNL     1      20.456   1.924  53.025  0.00  0.00    +0.000 C 
ATOM     18  C   UNL     1      19.533   2.676  52.054  0.00  0.00    +0.000 C 
ATOM     19  H   UNL     1      18.182   1.533  51.189  0.00  0.00    +0.000 HD
ENDBRANCH   1  16
BRANCH   9  20
ATOM     20  C   UNL     1      25.418   2.889  51.276  0.00  0.00    +0.000 A 
ATOM     21  C   UNL     1      26.510   2.720  50.408  0.00  0.00    +0.000 A 
ATOM     22  C   UNL     1      26.790   3.659  49.406  0.00  0.00    +0.000 A 
ATOM     23  C   UNL     1      25.985   4.788  49.258  0.00  0.00    +0.000 A 
ATOM     24  C   UNL     1      24.906   4.980  50.112  0.00  0.00    +0.000 A 
ATOM     25  C   UNL     1      24.635   4.043  51.109  0.00  0.00    +0.000 A 
ATOM     26  F   UNL     1      23.598   4.293  51.924  0.00  0.00    +0.000 F 
ENDBRANCH   9  20
BRANCH   2  27
ATOM     27  O   UNL     1      20.454  -1.400  54.204  0.00  0.00    +0.000 OA
ATOM     28  H   UNL     1      19.798  -0.893  54.641  0.00  0.00    +0.000 HD
ENDBRANCH   2  27
BRANCH   4  29
ATOM     29  O   UNL     1      24.880  -1.675  55.929  0.00  0.00    +0.000 OA
ATOM     30  H   UNL     1      25.582  -1.167  56.286  0.00  0.00    +0.000 HD
ENDBRANCH   4  29
TORSDOF 4
ENDMDL
MODEL 5
REMARK VINA RESULT:    -8.845      2.258      5.439
REMARK INTER + INTRA:         -11.135
REMARK INTER:                 -10.428
REMARK INTRA:                  -0.706
REMARK UNBOUND:                -0.738
REMARK  Name = 
REMARK  5 active torsions:
REMARK  status: ('A' for Active; 'I' for Inactive)
REMARK    1  A    between atoms: C_1  and  N_2
REMARK    2  A    between atoms: C_5  and  C_6
REMARK    3  A    between atoms: C_7  and  O_8
REMARK    4  A    between atoms: C_10  and  O_11
REMARK    5  A    between atoms: C_16  and  C_17
REMARK                            x       y       z     vdW  Elec       q    Type
REMARK                         _______ _______ _______ _____ _____    ______ ____
ROOT
ATOM      1  C   UNL     1      25.238   2.581  51.074  0.00  0.00    +0.000 A 
ATOM      2  C   UNL     1      25.922   3.479  50.244  0.00  0.00    +0.000 A 
ATOM      3  C   UNL     1      25.245   4.247  49.299  0.00  0.00    +0.000 A 
ATOM      4  C   UNL     1      23.861   4.127  49.179  0.00  0.00    +0.000 A 
ATOM      5  C   UNL     1      23.151   3.230  49.988  0.00  0.00    +0.000 A 
ATOM      6  C   UNL     1      21.679   3.091  49.912  0.00  0.00    +0.000 A 
ATOM      7  O   UNL     1      20.951   3.773  49.195  0.00  0.00    +0.000 OA
ATOM      8  C   UNL     1      21.066   2.064  50.766  0.00  0.00    +0.000 A 
ATOM      9  C   UNL     1      21.835   1.333  51.582  0.00  0.00    +0.000 A 
ATOM     10  O   UNL     1      23.199   1.524  51.726  0.00  0.00    +0.000 OA
ATOM     11  C   UNL     1      23.840   2.443  50.920  0.00  0.00    +0.000 A 
ENDROOT
BRANCH   1  16
ATOM     12  C   UNL     1      28.562   0.009  54.896  0.00  0.00    +0.000 C 
ATOM     13  N   UNL     1      27.303   0.245  54.181  0.00  0.00    +0.000 N 
ATOM     14  C   UNL     1      26.801   1.590  54.463  0.00  0.00    +0.000 C 
ATOM     15  C   UNL     1      26.061   2.297  53.374  0.00  0.00    +0.000 C 
ATOM     16  C   UNL     1      25.960   1.833  52.121  0.00  0.00    +0.000 C 
ATOM     17  C   UNL     1      26.560   0.528  51.712  0.00  0.00    +0.000 C 
ATOM     18  C   UNL     1      27.438  -0.149  52.776  0.00  0.00    +0.000 C 
ATOM     19  H   UNL     1      26.556  -0.357  54.524  0.00  0.00    +0.000 HD
ENDBRANCH   1  16
BRANCH   9  20
ATOM     20  C   UNL     1      21.268   0.263  52.437  0.00  0.00    +0.000 A 
ATOM     21  C   UNL     1      19.875   0.114  52.556  0.00  0.00    +0.000 A 
ATOM     22  C   UNL     1      19.321  -0.887  53.365  0.00  0.00    +0.000 A 
ATOM     23  C   UNL     1      20.150  -1.755  54.075  0.00  0.00    +0.000 A 
ATOM     24  C   UNL     1      21.530  -1.620  53.980  0.00  0.00    +0.000 A 
ATOM     25  C   UNL     1      22.075  -0.618  53.176  0.00  0.00    +0.000 A 
ATOM     26  F   UNL     1      23.413  -0.514  53.143  0.00  0.00    +0.000 F 
ENDBRANCH   9  20
BRANCH   2  27
ATOM     27  O   UNL     1      27.278   3.615  50.375  0.00  0.00    +0.000 OA
ATOM     28  H   UNL     1      27.806   2.869  50.585  0.00  0.00    +0.000 HD
ENDBRANCH   2  27
BRANCH   4  29
ATOM     29  O   UNL     1      23.215   4.901  48.259  0.00  0.00    +0.000 OA
ATOM     30  H   UNL     1      22.845   5.723  48.515  0.00  0.00    +0.000 HD
ENDBRANCH   4  29
TORSDOF 4
ENDMDL
MODEL 6
REMARK VINA RESULT:    -8.763      3.241      7.051
REMARK INTER + INTRA:         -11.039
REMARK INTER:                 -10.426
REMARK INTRA:                  -0.612
REMARK UNBOUND:                -0.738
REMARK  Name = 
REMARK  5 active torsions:
REMARK  status: ('A' for Active; 'I' for Inactive)
REMARK    1  A    between atoms: C_1  and  N_2
REMARK    2  A    between atoms: C_5  and  C_6
REMARK    3  A    between atoms: C_7  and  O_8
REMARK    4  A    between atoms: C_10  and  O_11
REMARK    5  A    between atoms: C_16  and  C_17
REMARK                            x       y       z     vdW  Elec       q    Type
REMARK                         _______ _______ _______ _____ _____    ______ ____
ROOT
ATOM      1  C   UNL     1      24.762   2.675  51.019  0.00  0.00    +0.000 A 
ATOM      2  C   UNL     1      26.104   3.079  51.035  0.00  0.00    +0.000 A 
ATOM      3  C   UNL     1      27.058   2.382  51.773  0.00  0.00    +0.000 A 
ATOM      4  C   UNL     1      26.676   1.258  52.504  0.00  0.00    +0.000 A 
ATOM      5  C   UNL     1      25.340   0.835  52.515  0.00  0.00    +0.000 A 
ATOM      6  C   UNL     1      24.897  -0.368  53.255  0.00  0.00    +0.000 A 
ATOM      7  O   UNL     1      25.647  -1.126  53.865  0.00  0.00    +0.000 OA
ATOM      8  C   UNL     1      23.457  -0.660  53.243  0.00  0.00    +0.000 A 
ATOM      9  C   UNL     1      22.625   0.132  52.556  0.00  0.00    +0.000 A 
ATOM     10  O   UNL     1      23.046   1.203  51.785  0.00  0.00    +0.000 OA
ATOM     11  C   UNL     1      24.381   1.554  51.791  0.00  0.00    +0.000 A 
ENDROOT
BRANCH   1  16
ATOM     12  C   UNL     1      21.479   5.775  47.574  0.00  0.00    +0.000 C 
ATOM     13  N   UNL     1      21.735   4.744  48.585  0.00  0.00    +0.000 N 
ATOM     14  C   UNL     1      22.543   3.664  48.018  0.00  0.00    +0.000 C 
ATOM     15  C   UNL     1      23.510   2.973  48.924  0.00  0.00    +0.000 C 
ATOM     16  C   UNL     1      23.781   3.378  50.172  0.00  0.00    +0.000 C 
ATOM     17  C   UNL     1      23.098   4.557  50.784  0.00  0.00    +0.000 C 
ATOM     18  C   UNL     1      22.203   5.362  49.829  0.00  0.00    +0.000 C 
ATOM     19  H   UNL     1      20.877   4.270  48.865  0.00  0.00    +0.000 HD
ENDBRANCH   1  16
BRANCH   9  20
ATOM     20  C   UNL     1      21.161  -0.102  52.540  0.00  0.00    +0.000 A 
ATOM     21  C   UNL     1      20.385   0.341  51.454  0.00  0.00    +0.000 A 
ATOM     22  C   UNL     1      18.999   0.135  51.426  0.00  0.00    +0.000 A 
ATOM     23  C   UNL     1      18.362  -0.513  52.484  0.00  0.00    +0.000 A 
ATOM     24  C   UNL     1      19.109  -0.950  53.572  0.00  0.00    +0.000 A 
ATOM     25  C   UNL     1      20.488  -0.738  53.596  0.00  0.00    +0.000 A 
ATOM     26  F   UNL     1      21.156  -1.155  54.683  0.00  0.00    +0.000 F 
ENDBRANCH   9  20
BRANCH   2  27
ATOM     27  O   UNL     1      26.485   4.170  50.301  0.00  0.00    +0.000 OA
ATOM     28  H   UNL     1      27.381   4.446  50.302  0.00  0.00    +0.000 HD
ENDBRANCH   2  27
BRANCH   4  29
ATOM     29  O   UNL     1      27.631   0.579  53.205  0.00  0.00    +0.000 OA
ATOM     30  H   UNL     1      27.526  -0.337  53.375  0.00  0.00    +0.000 HD
ENDBRANCH   4  29
TORSDOF 4
ENDMDL
MODEL 7
REMARK VINA RESULT:    -8.752      2.390      5.264
REMARK INTER + INTRA:         -11.025
REMARK INTER:                 -10.683
REMARK INTRA:                  -0.342
REMARK UNBOUND:                -0.738
REMARK  Name = 
REMARK  5 active torsions:
REMARK  status: ('A' for Active; 'I' for Inactive)
REMARK    1  A    between atoms: C_1  and  N_2
REMARK    2  A    between atoms: C_5  and  C_6
REMARK    3  A    between atoms: C_7  and  O_8
REMARK    4  A    between atoms: C_10  and  O_11
REMARK    5  A    between atoms: C_16  and  C_17
REMARK                            x       y       z     vdW  Elec       q    Type
REMARK                         _______ _______ _______ _____ _____    ______ ____
ROOT
ATOM      1  C   UNL     1      25.305   1.347  53.134  0.00  0.00    +0.000 A 
ATOM      2  C   UNL     1      26.375   1.203  54.028  0.00  0.00    +0.000 A 
ATOM      3  C   UNL     1      26.327   0.275  55.066  0.00  0.00    +0.000 A 
ATOM      4  C   UNL     1      25.200  -0.531  55.216  0.00  0.00    +0.000 A 
ATOM      5  C   UNL     1      24.110  -0.403  54.344  0.00  0.00    +0.000 A 
ATOM      6  C   UNL     1      22.906  -1.257  54.451  0.00  0.00    +0.000 A 
ATOM      7  O   UNL     1      22.774  -2.176  55.255  0.00  0.00    +0.000 OA
ATOM      8  C   UNL     1      21.807  -0.972  53.519  0.00  0.00    +0.000 A 
ATOM      9  C   UNL     1      21.943   0.002  52.610  0.00  0.00    +0.000 A 
ATOM     10  O   UNL     1      23.103   0.740  52.444  0.00  0.00    +0.000 OA
ATOM     11  C   UNL     1      24.154   0.548  53.317  0.00  0.00    +0.000 A 
ENDROOT
BRANCH   1  16
ATOM     12  C   UNL     1      26.093   5.297  49.129  0.00  0.00    +0.000 C 
ATOM     13  N   UNL     1      25.471   4.100  49.704  0.00  0.00    +0.000 N 
ATOM     14  C   UNL     1      26.463   3.036  49.860  0.00  0.00    +0.000 C 
ATOM     15  C   UNL     1      26.306   2.107  51.021  0.00  0.00    +0.000 C 
ATOM     16  C   UNL     1      25.404   2.280  51.996  0.00  0.00    +0.000 C 
ATOM     17  C   UNL     1      24.439   3.421  51.985  0.00  0.00    +0.000 C 
ATOM     18  C   UNL     1      24.670   4.460  50.877  0.00  0.00    +0.000 C 
ATOM     19  H   UNL     1      24.788   3.688  49.069  0.00  0.00    +0.000 HD
ENDBRANCH   1  16
BRANCH   9  20
ATOM     20  C   UNL     1      20.850   0.349  51.670  0.00  0.00    +0.000 A 
ATOM     21  C   UNL     1      19.511   0.092  52.014  0.00  0.00    +0.000 A 
ATOM     22  C   UNL     1      18.466   0.407  51.135  0.00  0.00    +0.000 A 
ATOM     23  C   UNL     1      18.740   0.981  49.894  0.00  0.00    +0.000 A 
ATOM     24  C   UNL     1      20.058   1.235  49.530  0.00  0.00    +0.000 A 
ATOM     25  C   UNL     1      21.094   0.915  50.407  0.00  0.00    +0.000 A 
ATOM     26  F   UNL     1      22.348   1.154  49.993  0.00  0.00    +0.000 F 
ENDBRANCH   9  20
BRANCH   2  27
ATOM     27  O   UNL     1      27.492   1.978  53.870  0.00  0.00    +0.000 OA
ATOM     28  H   UNL     1      28.155   1.726  53.257  0.00  0.00    +0.000 HD
ENDBRANCH   2  27
BRANCH   4  29
ATOM     29  O   UNL     1      25.181  -1.447  56.229  0.00  0.00    +0.000 OA
ATOM     30  H   UNL     1      24.714  -2.253  56.124  0.00  0.00    +0.000 HD
ENDBRANCH   4  29
TORSDOF 4
ENDMDL
MODEL 8
REMARK VINA RESULT:    -8.400      2.353      3.370
REMARK INTER + INTRA:         -10.612
REMARK INTER:                  -9.830
REMARK INTRA:                  -0.782
REMARK UNBOUND:                -0.738
REMARK  Name = 
REMARK  5 active torsions:
REMARK  status: ('A' for Active; 'I' for Inactive)
REMARK    1  A    between atoms: C_1  and  N_2
REMARK    2  A    between atoms: C_5  and  C_6
REMARK    3  A    between atoms: C_7  and  O_8
REMARK    4  A    between atoms: C_10  and  O_11
REMARK    5  A    between atoms: C_16  and  C_17
REMARK                            x       y       z     vdW  Elec       q    Type
REMARK                         _______ _______ _______ _____ _____    ______ ____
ROOT
ATOM      1  C   UNL     1      23.242   1.871  52.658  0.00  0.00    +0.000 A 
ATOM      2  C   UNL     1      22.247   1.100  53.276  0.00  0.00    +0.000 A 
ATOM      3  C   UNL     1      20.898   1.413  53.131  0.00  0.00    +0.000 A 
ATOM      4  C   UNL     1      20.526   2.507  52.351  0.00  0.00    +0.000 A 
ATOM      5  C   UNL     1      21.497   3.303  51.729  0.00  0.00    +0.000 A 
ATOM      6  C   UNL     1      21.145   4.457  50.871  0.00  0.00    +0.000 A 
ATOM      7  O   UNL     1      19.997   4.783  50.581  0.00  0.00    +0.000 OA
ATOM      8  C   UNL     1      22.261   5.249  50.336  0.00  0.00    +0.000 A 
ATOM      9  C   UNL     1      23.521   4.891  50.610  0.00  0.00    +0.000 A 
ATOM     10  O   UNL     1      23.857   3.758  51.333  0.00  0.00    +0.000 OA
ATOM     11  C   UNL     1      22.854   2.997  51.899  0.00  0.00    +0.000 A 
ENDROOT
BRANCH   1  16
ATOM     12  C   UNL     1      28.522  -0.025  53.548  0.00  0.00    +0.000 C 
ATOM     13  N   UNL     1      27.511   0.832  52.920  0.00  0.00    +0.000 N 
ATOM     14  C   UNL     1      26.591   0.028  52.114  0.00  0.00    +0.000 C 
ATOM     15  C   UNL     1      25.168   0.478  52.030  0.00  0.00    +0.000 C 
ATOM     16  C   UNL     1      24.660   1.480  52.760  0.00  0.00    +0.000 C 
ATOM     17  C   UNL     1      25.501   2.268  53.711  0.00  0.00    +0.000 C 
ATOM     18  C   UNL     1      26.929   1.739  53.913  0.00  0.00    +0.000 C 
ATOM     19  H   UNL     1      27.925   1.465  52.236  0.00  0.00    +0.000 HD
ENDBRANCH   1  16
BRANCH   9  20
ATOM     20  C   UNL     1      24.679   5.677  50.122  0.00  0.00    +0.000 A 
ATOM     21  C   UNL     1      25.589   5.108  49.213  0.00  0.00    +0.000 A 
ATOM     22  C   UNL     1      26.693   5.834  48.746  0.00  0.00    +0.000 A 
ATOM     23  C   UNL     1      26.911   7.140  49.183  0.00  0.00    +0.000 A 
ATOM     24  C   UNL     1      26.030   7.719  50.089  0.00  0.00    +0.000 A 
ATOM     25  C   UNL     1      24.935   6.989  50.553  0.00  0.00    +0.000 A 
ATOM     26  F   UNL     1      24.132   7.586  51.448  0.00  0.00    +0.000 F 
ENDBRANCH   9  20
BRANCH   2  27
ATOM     27  O   UNL     1      22.610   0.012  54.024  0.00  0.00    +0.000 OA
ATOM     28  H   UNL     1      23.265   0.097  54.689  0.00  0.00    +0.000 HD
ENDBRANCH   2  27
BRANCH   4  29
ATOM     29  O   UNL     1      19.197   2.786  52.207  0.00  0.00    +0.000 OA
ATOM     30  H   UNL     1      18.883   3.659  52.342  0.00  0.00    +0.000 HD
ENDBRANCH   4  29
TORSDOF 4
ENDMDL
MODEL 9
REMARK VINA RESULT:    -8.229      3.540      7.790
REMARK INTER + INTRA:         -10.411
REMARK INTER:                  -9.684
REMARK INTRA:                  -0.727
REMARK UNBOUND:                -0.738
REMARK  Name = 
REMARK  5 active torsions:
REMARK  status: ('A' for Active; 'I' for Inactive)
REMARK    1  A    between atoms: C_1  and  N_2
REMARK    2  A    between atoms: C_5  and  C_6
REMARK    3  A    between atoms: C_7  and  O_8
REMARK    4  A    between atoms: C_10  and  O_11
REMARK    5  A    between atoms: C_16  and  C_17
REMARK                            x       y       z     vdW  Elec       q    Type
REMARK                         _______ _______ _______ _____ _____    ______ ____
ROOT
ATOM      1  C   UNL     1      23.271   3.713  49.792  0.00  0.00    +0.000 A 
ATOM      2  C   UNL     1      24.034   4.657  49.092  0.00  0.00    +0.000 A 
ATOM      3  C   UNL     1      25.419   4.711  49.230  0.00  0.00    +0.000 A 
ATOM      4  C   UNL     1      26.061   3.807  50.074  0.00  0.00    +0.000 A 
ATOM      5  C   UNL     1      25.325   2.857  50.795  0.00  0.00    +0.000 A 
ATOM      6  C   UNL     1      25.970   1.862  51.681  0.00  0.00    +0.000 A 
ATOM      7  O   UNL     1      27.184   1.736  51.819  0.00  0.00    +0.000 OA
ATOM      8  C   UNL     1      25.078   0.970  52.435  0.00  0.00    +0.000 A 
ATOM      9  C   UNL     1      23.752   1.065  52.273  0.00  0.00    +0.000 A 
ATOM     10  O   UNL     1      23.149   1.930  51.375  0.00  0.00    +0.000 OA
ATOM     11  C   UNL     1      23.931   2.824  50.671  0.00  0.00    +0.000 A 
ENDROOT
BRANCH   1  16
ATOM     12  C   UNL     1      17.677   2.830  49.354  0.00  0.00    +0.000 C 
ATOM     13  N   UNL     1      18.945   3.485  49.017  0.00  0.00    +0.000 N 
ATOM     14  C   UNL     1      19.462   4.220  50.172  0.00  0.00    +0.000 C 
ATOM     15  C   UNL     1      20.946   4.298  50.335  0.00  0.00    +0.000 C 
ATOM     16  C   UNL     1      21.816   3.619  49.575  0.00  0.00    +0.000 C 
ATOM     17  C   UNL     1      21.364   2.738  48.456  0.00  0.00    +0.000 C 
ATOM     18  C   UNL     1      19.845   2.536  48.356  0.00  0.00    +0.000 C 
ATOM     19  H   UNL     1      18.816   4.216  48.317  0.00  0.00    +0.000 HD
ENDBRANCH   1  16
BRANCH   9  20
ATOM     20  C   UNL     1      22.810   0.211  53.035  0.00  0.00    +0.000 A 
ATOM     21  C   UNL     1      23.281  -0.612  54.073  0.00  0.00    +0.000 A 
ATOM     22  C   UNL     1      22.407  -1.432  54.799  0.00  0.00    +0.000 A 
ATOM     23  C   UNL     1      21.046  -1.448  54.497  0.00  0.00    +0.000 A 
ATOM     24  C   UNL     1      20.560  -0.650  53.468  0.00  0.00    +0.000 A 
ATOM     25  C   UNL     1      21.436   0.161  52.746  0.00  0.00    +0.000 A 
ATOM     26  F   UNL     1      20.919   0.889  51.745  0.00  0.00    +0.000 F 
ENDBRANCH   9  20
BRANCH   2  27
ATOM     27  O   UNL     1      23.407   5.532  48.245  0.00  0.00    +0.000 OA
ATOM     28  H   UNL     1      23.762   5.695  47.393  0.00  0.00    +0.000 HD
ENDBRANCH   2  27
BRANCH   4  29
ATOM     29  O   UNL     1      27.421   3.865  50.181  0.00  0.00    +0.000 OA
ATOM     30  H   UNL     1      27.893   4.576  49.792  0.00  0.00    +0.000 HD
ENDBRANCH   4  29
TORSDOF 4
ENDMDL
