MODEL 1
REMARK VINA RESULT:    -8.273      0.000      0.000
REMARK INTER + INTRA:         -13.649
REMARK INTER:                 -11.658
REMARK INTRA:                  -1.991
REMARK UNBOUND:                -1.991
REMARK  Name = 
REMARK  9 active torsions:
REMARK  status: ('A' for Active; 'I' for Inactive)
REMARK    1  A    between atoms: C_1  and  C_2
REMARK    2  A    between atoms: C_2  and  C_3
REMARK    3  A    between atoms: C_3  and  C_4
REMARK    4  A    between atoms: C_4  and  C_5
REMARK    5  A    between atoms: N_10  and  C_11
REMARK    6  A    between atoms: N_15  and  C_16
REMARK    7  A    between atoms: C_16  and  C_17
REMARK    8  A    between atoms: C_20  and  C_21
REMARK    9  A    between atoms: C_26  and  C_27
REMARK                            x       y       z     vdW  Elec       q    Type
REMARK                         _______ _______ _______ _____ _____    ______ ____
ROOT
ATOM      1  C   UNL     1      22.644   3.684  52.240  0.00  0.00    +0.000 C 
ENDROOT
BRANCH   1  12
ATOM      2  C   UNL     1      20.967   1.860  51.621  0.00  0.00    +0.000 A 
ATOM      3  N   UNL     1      20.322   1.448  50.542  0.00  0.00    +0.000 NA
ATOM      4  C   UNL     1      20.583   2.382  49.587  0.00  0.00    +0.000 A 
ATOM      5  C   UNL     1      20.146   2.393  48.224  0.00  0.00    +0.000 A 
ATOM      6  N   UNL     1      20.513   3.355  47.421  0.00  0.00    +0.000 NA
ATOM      7  N   UNL     1      21.308   4.397  47.926  0.00  0.00    +0.000 N 
ATOM      8  C   UNL     1      21.781   5.365  46.960  0.00  0.00    +0.000 C 
ATOM      9  C   UNL     1      21.736   4.516  49.266  0.00  0.00    +0.000 A 
ATOM     10  O   UNL     1      22.362   5.486  49.690  0.00  0.00    +0.000 OA
ATOM     11  C   UNL     1      21.369   3.392  50.077  0.00  0.00    +0.000 A 
ATOM     12  N   UNL     1      21.694   3.013  51.355  0.00  0.00    +0.000 N 
BRANCH   2  13
ATOM     13  C   UNL     1      20.885   1.170  52.945  0.00  0.00    +0.000 C 
BRANCH  13  14
ATOM     14  C   UNL     1      21.325  -0.295  52.868  0.00  0.00    +0.000 C 
BRANCH  14  16
ATOM     15  C   UNL     1      22.965  -0.990  54.656  0.00  0.00    +0.000 C 
ATOM     16  C   UNL     1      22.800  -0.513  53.221  0.00  0.00    +0.000 C 
ENDBRANCH  14  16
ENDBRANCH  13  14
ENDBRANCH   2  13
ENDBRANCH   1  12
BRANCH   1  17
ATOM     17  C   UNL     1      23.921   2.886  52.388  0.00  0.00    +0.000 A 
ATOM     18  C   UNL     1      24.480   2.224  51.292  0.00  0.00    +0.000 A 
ATOM     19  C   UNL     1      25.554   1.341  51.456  0.00  0.00    +0.000 A 
ATOM     20  C   UNL     1      26.149   1.110  52.711  0.00  0.00    +0.000 A 
ATOM     21  C   UNL     1      25.668   1.890  53.772  0.00  0.00    +0.000 A 
ATOM     22  C   UNL     1      24.553   2.734  53.626  0.00  0.00    +0.000 A 
BRANCH  20  23
ATOM     23  C   UNL     1      27.207   0.067  52.867  0.00  0.00    +0.000 A 
ATOM     24  C   UNL     1      26.893  -1.275  52.532  0.00  0.00    +0.000 A 
ATOM     25  C   UNL     1      27.784  -2.335  52.736  0.00  0.00    +0.000 A 
ATOM     26  C   UNL     1      29.046  -2.090  53.250  0.00  0.00    +0.000 A 
ATOM     27  C   UNL     1      29.412  -0.784  53.558  0.00  0.00    +0.000 A 
ATOM     28  C   UNL     1      28.510   0.289  53.381  0.00  0.00    +0.000 A 
BRANCH  28  29
ATOM     29  C   UNL     1      28.998   1.612  53.850  0.00  0.00    +0.000 C 
ATOM     30  O   UNL     1      29.003   2.669  53.252  0.00  0.00    +0.000 OA
ATOM     31  O   UNL     1      29.477   1.532  55.109  0.00  0.00    +0.000 OA
ENDBRANCH  28  29
ENDBRANCH  20  23
ENDBRANCH   1  17
TORSDOF 7
ENDMDL
MODEL 2
REMARK VINA RESULT:    -8.175      1.445      2.134
REMARK INTER + INTRA:         -13.511
REMARK INTER:                 -11.654
REMARK INTRA:                  -1.857
REMARK UNBOUND:                -1.991
REMARK  Name = 
REMARK  9 active torsions:
REMARK  status: ('A' for Active; 'I' for Inactive)
REMARK    1  A    between atoms: C_1  and  C_2
REMARK    2  A    between atoms: C_2  and  C_3
REMARK    3  A    between atoms: C_3  and  C_4
REMARK    4  A    between atoms: C_4  and  C_5
REMARK    5  A    between atoms: N_10  and  C_11
REMARK    6  A    between atoms: N_15  and  C_16
REMARK    7  A    between atoms: C_16  and  C_17
REMARK    8  A    between atoms: C_20  and  C_21
REMARK    9  A    between atoms: C_26  and  C_27
REMARK                            x       y       z     vdW  Elec       q    Type
REMARK                         _______ _______ _______ _____ _____    ______ ____
ROOT
ATOM      1  C   UNL     1      23.284   4.211  52.231  0.00  0.00    +0.000 C 
ENDROOT
BRANCH   1  12
ATOM      2  C   UNL     1      21.383   3.605  50.638  0.00  0.00    +0.000 A 
ATOM      3  N   UNL     1      21.057   3.819  49.374  0.00  0.00    +0.000 NA
ATOM      4  C   UNL     1      21.970   4.718  48.915  0.00  0.00    +0.000 A 
ATOM      5  C   UNL     1      22.082   5.263  47.596  0.00  0.00    +0.000 A 
ATOM      6  N   UNL     1      23.042   6.099  47.306  0.00  0.00    +0.000 NA
ATOM      7  N   UNL     1      23.935   6.487  48.319  0.00  0.00    +0.000 N 
ATOM      8  C   UNL     1      25.046   7.318  47.907  0.00  0.00    +0.000 C 
ATOM      9  C   UNL     1      23.872   6.063  49.664  0.00  0.00    +0.000 A 
ATOM     10  O   UNL     1      24.622   6.488  50.541  0.00  0.00    +0.000 OA
ATOM     11  C   UNL     1      22.848   5.087  49.899  0.00  0.00    +0.000 A 
ATOM     12  N   UNL     1      22.532   4.303  50.982  0.00  0.00    +0.000 N 
BRANCH   2  13
ATOM     13  C   UNL     1      20.584   2.738  51.560  0.00  0.00    +0.000 C 
BRANCH  13  14
ATOM     14  C   UNL     1      20.379   1.326  51.002  0.00  0.00    +0.000 C 
BRANCH  14  16
ATOM     15  C   UNL     1      21.601  -0.313  52.482  0.00  0.00    +0.000 C 
ATOM     16  C   UNL     1      21.609   0.423  51.152  0.00  0.00    +0.000 C 
ENDBRANCH  14  16
ENDBRANCH  13  14
ENDBRANCH   2  13
ENDBRANCH   1  12
BRANCH   1  17
ATOM     17  C   UNL     1      24.180   2.992  52.249  0.00  0.00    +0.000 A 
ATOM     18  C   UNL     1      24.097   2.061  53.287  0.00  0.00    +0.000 A 
ATOM     19  C   UNL     1      25.039   1.033  53.407  0.00  0.00    +0.000 A 
ATOM     20  C   UNL     1      26.079   0.856  52.475  0.00  0.00    +0.000 A 
ATOM     21  C   UNL     1      26.060   1.711  51.365  0.00  0.00    +0.000 A 
ATOM     22  C   UNL     1      25.153   2.782  51.268  0.00  0.00    +0.000 A 
BRANCH  20  23
ATOM     23  C   UNL     1      27.137  -0.173  52.707  0.00  0.00    +0.000 A 
ATOM     24  C   UNL     1      26.868  -1.519  52.344  0.00  0.00    +0.000 A 
ATOM     25  C   UNL     1      27.756  -2.567  52.610  0.00  0.00    +0.000 A 
ATOM     26  C   UNL     1      28.972  -2.306  53.220  0.00  0.00    +0.000 A 
ATOM     27  C   UNL     1      29.295  -0.997  53.559  0.00  0.00    +0.000 A 
ATOM     28  C   UNL     1      28.394   0.064  53.318  0.00  0.00    +0.000 A 
BRANCH  28  29
ATOM     29  C   UNL     1      28.826   1.392  53.828  0.00  0.00    +0.000 C 
ATOM     30  O   UNL     1      28.803   2.463  53.256  0.00  0.00    +0.000 OA
ATOM     31  O   UNL     1      29.287   1.297  55.093  0.00  0.00    +0.000 OA
ENDBRANCH  28  29
ENDBRANCH  20  23
ENDBRANCH   1  17
TORSDOF 7
ENDMDL
MODEL 3
REMARK VINA RESULT:    -8.173      3.704      5.476
REMARK INTER + INTRA:         -13.508
REMARK INTER:                 -11.440
REMARK INTRA:                  -2.069
REMARK UNBOUND:                -1.991
REMARK  Name = 
REMARK  9 active torsions:
REMARK  status: ('A' for Active; 'I' for Inactive)
REMARK    1  A    between atoms: C_1  and  C_2
REMARK    2  A    between atoms: C_2  and  C_3
REMARK    3  A    between atoms: C_3  and  C_4
REMARK    4  A    between atoms: C_4  and  C_5
REMARK    5  A    between atoms: N_10  and  C_11
REMARK    6  A    between atoms: N_15  and  C_16
REMARK    7  A    between atoms: C_16  and  C_17
REMARK    8  A    between atoms: C_20  and  C_21
REMARK    9  A    between atoms: C_26  and  C_27
REMARK                            x       y       z     vdW  Elec       q    Type
REMARK                         _______ _______ _______ _____ _____    ______ ____
ROOT
ATOM      1  C   UNL     1      24.204   4.538  48.819  0.00  0.00    +0.000 C 
ENDROOT
BRANCH   1  12
ATOM      2  C   UNL     1      23.488   6.520  50.262  0.00  0.00    +0.000 A 
ATOM      3  N   UNL     1      23.959   7.711  50.594  0.00  0.00    +0.000 NA
ATOM      4  C   UNL     1      25.223   7.750  50.093  0.00  0.00    +0.000 A 
ATOM      5  C   UNL     1      26.159   8.832  50.152  0.00  0.00    +0.000 A 
ATOM      6  N   UNL     1      27.333   8.721  49.589  0.00  0.00    +0.000 NA
ATOM      7  N   UNL     1      27.675   7.511  48.962  0.00  0.00    +0.000 N 
ATOM      8  C   UNL     1      28.936   7.494  48.253  0.00  0.00    +0.000 C 
ATOM      9  C   UNL     1      26.854   6.364  48.907  0.00  0.00    +0.000 A 
ATOM     10  O   UNL     1      27.220   5.296  48.421  0.00  0.00    +0.000 OA
ATOM     11  C   UNL     1      25.552   6.575  49.471  0.00  0.00    +0.000 A 
ATOM     12  N   UNL     1      24.408   5.817  49.496  0.00  0.00    +0.000 N 
BRANCH   2  13
ATOM     13  C   UNL     1      22.147   6.014  50.690  0.00  0.00    +0.000 C 
BRANCH  13  14
ATOM     14  C   UNL     1      22.187   5.350  52.070  0.00  0.00    +0.000 C 
BRANCH  14  16
ATOM     15  C   UNL     1      20.175   4.188  51.086  0.00  0.00    +0.000 C 
ATOM     16  C   UNL     1      21.169   4.216  52.236  0.00  0.00    +0.000 C 
ENDBRANCH  14  16
ENDBRANCH  13  14
ENDBRANCH   2  13
ENDBRANCH   1  12
BRANCH   1  17
ATOM     17  C   UNL     1      24.094   3.400  49.808  0.00  0.00    +0.000 A 
ATOM     18  C   UNL     1      23.100   2.429  49.671  0.00  0.00    +0.000 A 
ATOM     19  C   UNL     1      22.877   1.479  50.675  0.00  0.00    +0.000 A 
ATOM     20  C   UNL     1      23.664   1.424  51.842  0.00  0.00    +0.000 A 
ATOM     21  C   UNL     1      24.745   2.314  51.895  0.00  0.00    +0.000 A 
ATOM     22  C   UNL     1      24.938   3.308  50.918  0.00  0.00    +0.000 A 
BRANCH  20  23
ATOM     23  C   UNL     1      23.316   0.481  52.947  0.00  0.00    +0.000 A 
ATOM     24  C   UNL     1      21.967   0.410  53.380  0.00  0.00    +0.000 A 
ATOM     25  C   UNL     1      21.561  -0.369  54.470  0.00  0.00    +0.000 A 
ATOM     26  C   UNL     1      22.487  -1.143  55.150  0.00  0.00    +0.000 A 
ATOM     27  C   UNL     1      23.814  -1.134  54.736  0.00  0.00    +0.000 A 
ATOM     28  C   UNL     1      24.238  -0.331  53.655  0.00  0.00    +0.000 A 
BRANCH  28  29
ATOM     29  C   UNL     1      25.701  -0.339  53.392  0.00  0.00    +0.000 C 
ATOM     30  O   UNL     1      26.297  -0.851  52.466  0.00  0.00    +0.000 OA
ATOM     31  O   UNL     1      26.369   0.328  54.355  0.00  0.00    +0.000 OA
ENDBRANCH  28  29
ENDBRANCH  20  23
ENDBRANCH   1  17
TORSDOF 7
ENDMDL
MODEL 4
REMARK VINA RESULT:    -7.911      1.904      3.709
REMARK INTER + INTRA:         -13.139
REMARK INTER:                 -11.905
REMARK INTRA:                  -1.234
REMARK UNBOUND:                -1.991
REMARK  Name = 
REMARK  9 active torsions:
REMARK  status: ('A' for Active; 'I' for Inactive)
REMARK    1  A    between atoms: C_1  and  C_2
REMARK    2  A    between atoms: C_2  and  C_3
REMARK    3  A    between atoms: C_3  and  C_4
REMARK    4  A    between atoms: C_4  and  C_5
REMARK    5  A    between atoms: N_10  and  C_11
REMARK    6  A    between atoms: N_15  and  C_16
REMARK    7  A    between atoms: C_16  and  C_17
REMARK    8  A    between atoms: C_20  and  C_21
REMARK    9  A    between atoms: C_26  and  C_27
REMARK                            x       y       z     vdW  Elec       q    Type
REMARK                         _______ _______ _______ _____ _____    ______ ____
ROOT
ATOM      1  C   UNL     1      23.007   3.579  52.348  0.00  0.00    +0.000 C 
ENDROOT
BRANCH   1  12
ATOM      2  C   UNL     1      22.626   4.501  49.998  0.00  0.00    +0.000 A 
ATOM      3  N   UNL     1      21.719   4.400  49.040  0.00  0.00    +0.000 NA
ATOM      4  C   UNL     1      20.867   3.423  49.454  0.00  0.00    +0.000 A 
ATOM      5  C   UNL     1      19.690   2.943  48.794  0.00  0.00    +0.000 A 
ATOM      6  N   UNL     1      18.957   2.013  49.344  0.00  0.00    +0.000 NA
ATOM      7  N   UNL     1      19.364   1.463  50.571  0.00  0.00    +0.000 N 
ATOM      8  C   UNL     1      18.447   0.527  51.186  0.00  0.00    +0.000 C 
ATOM      9  C   UNL     1      20.539   1.816  51.270  0.00  0.00    +0.000 A 
ATOM     10  O   UNL     1      20.904   1.254  52.301  0.00  0.00    +0.000 OA
ATOM     11  C   UNL     1      21.257   2.895  50.657  0.00  0.00    +0.000 A 
ATOM     12  N   UNL     1      22.333   3.649  51.054  0.00  0.00    +0.000 N 
BRANCH   2  13
ATOM     13  C   UNL     1      23.815   5.406  49.915  0.00  0.00    +0.000 C 
BRANCH  13  14
ATOM     14  C   UNL     1      24.801   4.975  48.825  0.00  0.00    +0.000 C 
BRANCH  14  16
ATOM     15  C   UNL     1      26.991   6.195  48.529  0.00  0.00    +0.000 C 
ATOM     16  C   UNL     1      26.270   5.069  49.254  0.00  0.00    +0.000 C 
ENDBRANCH  14  16
ENDBRANCH  13  14
ENDBRANCH   2  13
ENDBRANCH   1  12
BRANCH   1  17
ATOM     17  C   UNL     1      24.060   2.493  52.365  0.00  0.00    +0.000 A 
ATOM     18  C   UNL     1      24.067   1.523  53.370  0.00  0.00    +0.000 A 
ATOM     19  C   UNL     1      25.135   0.627  53.497  0.00  0.00    +0.000 A 
ATOM     20  C   UNL     1      26.223   0.625  52.603  0.00  0.00    +0.000 A 
ATOM     21  C   UNL     1      26.127   1.510  51.520  0.00  0.00    +0.000 A 
ATOM     22  C   UNL     1      25.087   2.451  51.419  0.00  0.00    +0.000 A 
BRANCH  20  23
ATOM     23  C   UNL     1      27.402  -0.259  52.846  0.00  0.00    +0.000 A 
ATOM     24  C   UNL     1      27.288  -1.641  52.548  0.00  0.00    +0.000 A 
ATOM     25  C   UNL     1      28.302  -2.563  52.832  0.00  0.00    +0.000 A 
ATOM     26  C   UNL     1      29.493  -2.133  53.393  0.00  0.00    +0.000 A 
ATOM     27  C   UNL     1      29.664  -0.780  53.667  0.00  0.00    +0.000 A 
ATOM     28  C   UNL     1      28.637   0.155  53.409  0.00  0.00    +0.000 A 
BRANCH  28  29
ATOM     29  C   UNL     1      28.918   1.546  53.849  0.00  0.00    +0.000 C 
ATOM     30  O   UNL     1      28.717   2.582  53.248  0.00  0.00    +0.000 OA
ATOM     31  O   UNL     1      29.465   1.561  55.083  0.00  0.00    +0.000 OA
ENDBRANCH  28  29
ENDBRANCH  20  23
ENDBRANCH   1  17
TORSDOF 7
ENDMDL
MODEL 5
REMARK VINA RESULT:    -7.604      2.432      4.353
REMARK INTER + INTRA:         -12.706
REMARK INTER:                 -10.812
REMARK INTRA:                  -1.894
REMARK UNBOUND:                -1.991
REMARK  Name = 
REMARK  9 active torsions:
REMARK  status: ('A' for Active; 'I' for Inactive)
REMARK    1  A    between atoms: C_1  and  C_2
REMARK    2  A    between atoms: C_2  and  C_3
REMARK    3  A    between atoms: C_3  and  C_4
REMARK    4  A    between atoms: C_4  and  C_5
REMARK    5  A    between atoms: N_10  and  C_11
REMARK    6  A    between atoms: N_15  and  C_16
REMARK    7  A    between atoms: C_16  and  C_17
REMARK    8  A    between atoms: C_20  and  C_21
REMARK    9  A    between atoms: C_26  and  C_27
REMARK                            x       y       z     vdW  Elec       q    Type
REMARK                         _______ _______ _______ _____ _____    ______ ____
ROOT
ATOM      1  C   UNL     1      23.115   3.259  49.129  0.00  0.00    +0.000 C 
ENDROOT
BRANCH   1  12
ATOM      2  C   UNL     1      21.748   5.224  50.017  0.00  0.00    +0.000 A 
ATOM      3  N   UNL     1      20.619   5.412  50.682  0.00  0.00    +0.000 NA
ATOM      4  C   UNL     1      20.036   4.185  50.754  0.00  0.00    +0.000 A 
ATOM      5  C   UNL     1      18.807   3.832  51.398  0.00  0.00    +0.000 A 
ATOM      6  N   UNL     1      18.397   2.592  51.403  0.00  0.00    +0.000 NA
ATOM      7  N   UNL     1      19.159   1.621  50.733  0.00  0.00    +0.000 N 
ATOM      8  C   UNL     1      18.718   0.250  50.879  0.00  0.00    +0.000 C 
ATOM      9  C   UNL     1      20.346   1.874  50.013  0.00  0.00    +0.000 A 
ATOM     10  O   UNL     1      20.942   1.012  49.370  0.00  0.00    +0.000 OA
ATOM     11  C   UNL     1      20.785   3.236  50.111  0.00  0.00    +0.000 A 
ATOM     12  N   UNL     1      21.931   3.881  49.718  0.00  0.00    +0.000 N 
BRANCH   2  13
ATOM     13  C   UNL     1      22.673   6.335  49.632  0.00  0.00    +0.000 C 
BRANCH  13  14
ATOM     14  C   UNL     1      23.672   6.675  50.742  0.00  0.00    +0.000 C 
BRANCH  14  16
ATOM     15  C   UNL     1      25.239   6.485  48.773  0.00  0.00    +0.000 C 
ATOM     16  C   UNL     1      25.134   6.653  50.280  0.00  0.00    +0.000 C 
ENDBRANCH  14  16
ENDBRANCH  13  14
ENDBRANCH   2  13
ENDBRANCH   1  12
BRANCH   1  17
ATOM     17  C   UNL     1      24.170   2.976  50.175  0.00  0.00    +0.000 A 
ATOM     18  C   UNL     1      25.528   3.060  49.860  0.00  0.00    +0.000 A 
ATOM     19  C   UNL     1      26.505   2.628  50.764  0.00  0.00    +0.000 A 
ATOM     20  C   UNL     1      26.178   2.135  52.042  0.00  0.00    +0.000 A 
ATOM     21  C   UNL     1      24.822   2.192  52.393  0.00  0.00    +0.000 A 
ATOM     22  C   UNL     1      23.831   2.570  51.469  0.00  0.00    +0.000 A 
BRANCH  20  23
ATOM     23  C   UNL     1      27.237   1.565  52.928  0.00  0.00    +0.000 A 
ATOM     24  C   UNL     1      28.246   2.431  53.424  0.00  0.00    +0.000 A 
ATOM     25  C   UNL     1      29.332   1.974  54.180  0.00  0.00    +0.000 A 
ATOM     26  C   UNL     1      29.434   0.631  54.504  0.00  0.00    +0.000 A 
ATOM     27  C   UNL     1      28.447  -0.248  54.071  0.00  0.00    +0.000 A 
ATOM     28  C   UNL     1      27.362   0.198  53.285  0.00  0.00    +0.000 A 
BRANCH  28  29
ATOM     29  C   UNL     1      26.443  -0.867  52.805  0.00  0.00    +0.000 C 
ATOM     30  O   UNL     1      26.561  -1.579  51.828  0.00  0.00    +0.000 OA
ATOM     31  O   UNL     1      25.373  -0.984  53.618  0.00  0.00    +0.000 OA
ENDBRANCH  28  29
ENDBRANCH  20  23
ENDBRANCH   1  17
TORSDOF 7
ENDMDL
MODEL 6
REMARK VINA RESULT:    -7.566      3.115      7.119
REMARK INTER + INTRA:         -12.652
REMARK INTER:                 -11.795
REMARK INTRA:                  -0.857
REMARK UNBOUND:                -1.991
REMARK  Name = 
REMARK  9 active torsions:
REMARK  status: ('A' for Active; 'I' for Inactive)
REMARK    1  A    between atoms: C_1  and  C_2
REMARK    2  A    between atoms: C_2  and  C_3
REMARK    3  A    between atoms: C_3  and  C_4
REMARK    4  A    between atoms: C_4  and  C_5
REMARK    5  A    between atoms: N_10  and  C_11
REMARK    6  A    between atoms: N_15  and  C_16
REMARK    7  A    between atoms: C_16  and  C_17
REMARK    8  A    between atoms: C_20  and  C_21
REMARK    9  A    between atoms: C_26  and  C_27
REMARK                            x       y       z     vdW  Elec       q    Type
REMARK                         _______ _______ _______ _____ _____    ______ ____
ROOT
ATOM      1  C   UNL     1      24.419   2.441  53.148  0.00  0.00    +0.000 C 
ENDROOT
BRANCH   1  12
ATOM      2  C   UNL     1      26.177   1.733  51.437  0.00  0.00    +0.000 A 
ATOM      3  N   UNL     1      26.825   2.272  50.417  0.00  0.00    +0.000 NA
ATOM      4  C   UNL     1      26.241   3.485  50.221  0.00  0.00    +0.000 A 
ATOM      5  C   UNL     1      26.588   4.483  49.254  0.00  0.00    +0.000 A 
ATOM      6  N   UNL     1      25.943   5.617  49.215  0.00  0.00    +0.000 NA
ATOM      7  N   UNL     1      24.878   5.825  50.108  0.00  0.00    +0.000 N 
ATOM      8  C   UNL     1      24.284   7.145  50.097  0.00  0.00    +0.000 C 
ATOM      9  C   UNL     1      24.412   4.884  51.050  0.00  0.00    +0.000 A 
ATOM     10  O   UNL     1      23.424   5.070  51.759  0.00  0.00    +0.000 OA
ATOM     11  C   UNL     1      25.210   3.693  51.099  0.00  0.00    +0.000 A 
ATOM     12  N   UNL     1      25.227   2.610  51.943  0.00  0.00    +0.000 N 
BRANCH   2  13
ATOM     13  C   UNL     1      26.439   0.349  51.942  0.00  0.00    +0.000 C 
BRANCH  13  14
ATOM     14  C   UNL     1      27.356   0.339  53.168  0.00  0.00    +0.000 C 
BRANCH  14  16
ATOM     15  C   UNL     1      29.723  -0.452  53.541  0.00  0.00    +0.000 C 
ATOM     16  C   UNL     1      28.297  -0.870  53.221  0.00  0.00    +0.000 C 
ENDBRANCH  14  16
ENDBRANCH  13  14
ENDBRANCH   2  13
ENDBRANCH   1  12
BRANCH   1  17
ATOM     17  C   UNL     1      23.119   1.728  52.848  0.00  0.00    +0.000 A 
ATOM     18  C   UNL     1      21.937   2.448  52.664  0.00  0.00    +0.000 A 
ATOM     19  C   UNL     1      20.704   1.794  52.566  0.00  0.00    +0.000 A 
ATOM     20  C   UNL     1      20.595   0.390  52.601  0.00  0.00    +0.000 A 
ATOM     21  C   UNL     1      21.805  -0.318  52.643  0.00  0.00    +0.000 A 
ATOM     22  C   UNL     1      23.041   0.334  52.800  0.00  0.00    +0.000 A 
BRANCH  20  23
ATOM     23  C   UNL     1      19.253  -0.266  52.622  0.00  0.00    +0.000 A 
ATOM     24  C   UNL     1      19.022  -1.312  53.553  0.00  0.00    +0.000 A 
ATOM     25  C   UNL     1      17.834  -2.051  53.582  0.00  0.00    +0.000 A 
ATOM     26  C   UNL     1      16.808  -1.748  52.702  0.00  0.00    +0.000 A 
ATOM     27  C   UNL     1      16.976  -0.706  51.798  0.00  0.00    +0.000 A 
ATOM     28  C   UNL     1      18.181   0.029  51.742  0.00  0.00    +0.000 A 
BRANCH  28  29
ATOM     29  C   UNL     1      18.259   1.041  50.657  0.00  0.00    +0.000 C 
ATOM     30  O   UNL     1      18.951   1.024  49.658  0.00  0.00    +0.000 OA
ATOM     31  O   UNL     1      17.423   2.072  50.896  0.00  0.00    +0.000 OA
ENDBRANCH  28  29
ENDBRANCH  20  23
ENDBRANCH   1  17
TORSDOF 7
ENDMDL
MODEL 7
REMARK VINA RESULT:    -7.405      3.937      6.325
REMARK INTER + INTRA:         -12.426
REMARK INTER:                 -11.052
REMARK INTRA:                  -1.375
REMARK UNBOUND:                -1.991
REMARK  Name = 
REMARK  9 active torsions:
REMARK  status: ('A' for Active; 'I' for Inactive)
REMARK    1  A    between atoms: C_1  and  C_2
REMARK    2  A    between atoms: C_2  and  C_3
REMARK    3  A    between atoms: C_3  and  C_4
REMARK    4  A    between atoms: C_4  and  C_5
REMARK    5  A    between atoms: N_10  and  C_11
REMARK    6  A    between atoms: N_15  and  C_16
REMARK    7  A    between atoms: C_16  and  C_17
REMARK    8  A    between atoms: C_20  and  C_21
REMARK    9  A    between atoms: C_26  and  C_27
REMARK                            x       y       z     vdW  Elec       q    Type
REMARK                         _______ _______ _______ _____ _____    ______ ____
ROOT
ATOM      1  C   UNL     1      24.251   4.702  48.958  0.00  0.00    +0.000 C 
ENDROOT
BRANCH   1  12
ATOM      2  C   UNL     1      23.654   6.680  50.459  0.00  0.00    +0.000 A 
ATOM      3  N   UNL     1      24.165   7.859  50.776  0.00  0.00    +0.000 NA
ATOM      4  C   UNL     1      25.400   7.881  50.204  0.00  0.00    +0.000 A 
ATOM      5  C   UNL     1      26.358   8.945  50.221  0.00  0.00    +0.000 A 
ATOM      6  N   UNL     1      27.495   8.820  49.591  0.00  0.00    +0.000 NA
ATOM      7  N   UNL     1      27.779   7.611  48.934  0.00  0.00    +0.000 N 
ATOM      8  C   UNL     1      28.998   7.579  48.154  0.00  0.00    +0.000 C 
ATOM      9  C   UNL     1      26.935   6.480  48.914  0.00  0.00    +0.000 A 
ATOM     10  O   UNL     1      27.254   5.410  48.397  0.00  0.00    +0.000 OA
ATOM     11  C   UNL     1      25.672   6.707  49.553  0.00  0.00    +0.000 A 
ATOM     12  N   UNL     1      24.517   5.969  49.635  0.00  0.00    +0.000 N 
BRANCH   2  13
ATOM     13  C   UNL     1      22.331   6.194  50.958  0.00  0.00    +0.000 C 
BRANCH  13  14
ATOM     14  C   UNL     1      21.179   6.575  50.023  0.00  0.00    +0.000 C 
BRANCH  14  16
ATOM     15  C   UNL     1      19.863   4.423  50.074  0.00  0.00    +0.000 C 
ATOM     16  C   UNL     1      20.637   5.399  49.203  0.00  0.00    +0.000 C 
ENDBRANCH  14  16
ENDBRANCH  13  14
ENDBRANCH   2  13
ENDBRANCH   1  12
BRANCH   1  17
ATOM     17  C   UNL     1      24.077   3.572  49.948  0.00  0.00    +0.000 A 
ATOM     18  C   UNL     1      23.095   2.598  49.753  0.00  0.00    +0.000 A 
ATOM     19  C   UNL     1      22.808   1.657  50.749  0.00  0.00    +0.000 A 
ATOM     20  C   UNL     1      23.516   1.613  51.965  0.00  0.00    +0.000 A 
ATOM     21  C   UNL     1      24.591   2.505  52.082  0.00  0.00    +0.000 A 
ATOM     22  C   UNL     1      24.847   3.490  51.111  0.00  0.00    +0.000 A 
BRANCH  20  23
ATOM     23  C   UNL     1      23.097   0.678  53.053  0.00  0.00    +0.000 A 
ATOM     24  C   UNL     1      24.087  -0.117  53.685  0.00  0.00    +0.000 A 
ATOM     25  C   UNL     1      23.780  -1.089  54.643  0.00  0.00    +0.000 A 
ATOM     26  C   UNL     1      22.466  -1.281  55.039  0.00  0.00    +0.000 A 
ATOM     27  C   UNL     1      21.466  -0.497  54.474  0.00  0.00    +0.000 A 
ATOM     28  C   UNL     1      21.763   0.468  53.486  0.00  0.00    +0.000 A 
BRANCH  28  29
ATOM     29  C   UNL     1      20.585   1.156  52.895  0.00  0.00    +0.000 C 
ATOM     30  O   UNL     1      20.258   2.320  53.007  0.00  0.00    +0.000 OA
ATOM     31  O   UNL     1      19.845   0.300  52.160  0.00  0.00    +0.000 OA
ENDBRANCH  28  29
ENDBRANCH  20  23
ENDBRANCH   1  17
TORSDOF 7
ENDMDL
MODEL 8
REMARK VINA RESULT:    -7.395      2.454      4.188
REMARK INTER + INTRA:         -12.412
REMARK INTER:                 -11.367
REMARK INTRA:                  -1.046
REMARK UNBOUND:                -1.991
REMARK  Name = 
REMARK  9 active torsions:
REMARK  status: ('A' for Active; 'I' for Inactive)
REMARK    1  A    between atoms: C_1  and  C_2
REMARK    2  A    between atoms: C_2  and  C_3
REMARK    3  A    between atoms: C_3  and  C_4
REMARK    4  A    between atoms: C_4  and  C_5
REMARK    5  A    between atoms: N_10  and  C_11
REMARK    6  A    between atoms: N_15  and  C_16
REMARK    7  A    between atoms: C_16  and  C_17
REMARK    8  A    between atoms: C_20  and  C_21
REMARK    9  A    between atoms: C_26  and  C_27
REMARK                            x       y       z     vdW  Elec       q    Type
REMARK                         _______ _______ _______ _____ _____    ______ ____
ROOT
ATOM      1  C   UNL     1      22.744   4.126  51.778  0.00  0.00    +0.000 C 
ENDROOT
BRANCH   1  12
ATOM      2  C   UNL     1      23.735   5.135  49.652  0.00  0.00    +0.000 A 
ATOM      3  N   UNL     1      23.364   5.337  48.398  0.00  0.00    +0.000 NA
ATOM      4  C   UNL     1      22.177   4.685  48.265  0.00  0.00    +0.000 A 
ATOM      5  C   UNL     1      21.337   4.614  47.107  0.00  0.00    +0.000 A 
ATOM      6  N   UNL     1      20.204   3.967  47.152  0.00  0.00    +0.000 NA
ATOM      7  N   UNL     1      19.844   3.308  48.340  0.00  0.00    +0.000 N 
ATOM      8  C   UNL     1      18.524   2.714  48.365  0.00  0.00    +0.000 C 
ATOM      9  C   UNL     1      20.628   3.259  49.512  0.00  0.00    +0.000 A 
ATOM     10  O   UNL     1      20.317   2.604  50.504  0.00  0.00    +0.000 OA
ATOM     11  C   UNL     1      21.819   4.053  49.426  0.00  0.00    +0.000 A 
ATOM     12  N   UNL     1      22.770   4.418  50.347  0.00  0.00    +0.000 N 
BRANCH   2  13
ATOM     13  C   UNL     1      25.038   5.609  50.213  0.00  0.00    +0.000 C 
BRANCH  13  14
ATOM     14  C   UNL     1      26.238   4.902  49.576  0.00  0.00    +0.000 C 
BRANCH  14  16
ATOM     15  C   UNL     1      28.429   5.269  48.378  0.00  0.00    +0.000 C 
ATOM     16  C   UNL     1      27.011   5.778  48.583  0.00  0.00    +0.000 C 
ENDBRANCH  14  16
ENDBRANCH  13  14
ENDBRANCH   2  13
ENDBRANCH   1  12
BRANCH   1  17
ATOM     17  C   UNL     1      23.836   3.154  52.165  0.00  0.00    +0.000 A 
ATOM     18  C   UNL     1      24.424   3.208  53.431  0.00  0.00    +0.000 A 
ATOM     19  C   UNL     1      25.552   2.436  53.734  0.00  0.00    +0.000 A 
ATOM     20  C   UNL     1      26.119   1.542  52.806  0.00  0.00    +0.000 A 
ATOM     21  C   UNL     1      25.431   1.397  51.594  0.00  0.00    +0.000 A 
ATOM     22  C   UNL     1      24.333   2.211  51.261  0.00  0.00    +0.000 A 
BRANCH  20  23
ATOM     23  C   UNL     1      27.396   0.832  53.122  0.00  0.00    +0.000 A 
ATOM     24  C   UNL     1      28.553   1.605  53.397  0.00  0.00    +0.000 A 
ATOM     25  C   UNL     1      29.813   1.033  53.606  0.00  0.00    +0.000 A 
ATOM     26  C   UNL     1      29.961  -0.344  53.587  0.00  0.00    +0.000 A 
ATOM     27  C   UNL     1      28.846  -1.143  53.358  0.00  0.00    +0.000 A 
ATOM     28  C   UNL     1      27.575  -0.575  53.119  0.00  0.00    +0.000 A 
BRANCH  28  29
ATOM     29  C   UNL     1      26.499  -1.543  52.785  0.00  0.00    +0.000 C 
ATOM     30  O   UNL     1      26.486  -2.384  51.908  0.00  0.00    +0.000 OA
ATOM     31  O   UNL     1      25.442  -1.395  53.611  0.00  0.00    +0.000 OA
ENDBRANCH  28  29
ENDBRANCH  20  23
ENDBRANCH   1  17
TORSDOF 7
ENDMDL
MODEL 9
REMARK VINA RESULT:    -7.163      2.644      4.892
REMARK INTER + INTRA:         -12.085
REMARK INTER:                  -9.882
REMARK INTRA:                  -2.202
REMARK UNBOUND:                -1.991
REMARK  Name = 
REMARK  9 active torsions:
REMARK  status: ('A' for Active; 'I' for Inactive)
REMARK    1  A    between atoms: C_1  and  C_2
REMARK    2  A    between atoms: C_2  and  C_3
REMARK    3  A    between atoms: C_3  and  C_4
REMARK    4  A    between atoms: C_4  and  C_5
REMARK    5  A    between atoms: N_10  and  C_11
REMARK    6  A    between atoms: N_15  and  C_16
REMARK    7  A    between atoms: C_16  and  C_17
REMARK    8  A    between atoms: C_20  and  C_21
REMARK    9  A    between atoms: C_26  and  C_27
REMARK                            x       y       z     vdW  Elec       q    Type
REMARK                         _______ _______ _______ _____ _____    ______ ____
ROOT
ATOM      1  C   UNL     1      22.357   3.974  48.039  0.00  0.00    +0.000 C 
ENDROOT
BRANCH   1  12
ATOM      2  C   UNL     1      20.558   5.559  48.917  0.00  0.00    +0.000 A 
ATOM      3  N   UNL     1      20.436   6.848  49.190  0.00  0.00    +0.000 NA
ATOM      4  C   UNL     1      21.689   7.363  49.062  0.00  0.00    +0.000 A 
ATOM      5  C   UNL     1      22.101   8.725  49.222  0.00  0.00    +0.000 A 
ATOM      6  N   UNL     1      23.348   9.063  49.033  0.00  0.00    +0.000 NA
ATOM      7  N   UNL     1      24.283   8.065  48.712  0.00  0.00    +0.000 N 
ATOM      8  C   UNL     1      25.620   8.521  48.396  0.00  0.00    +0.000 C 
ATOM      9  C   UNL     1      23.995   6.689  48.598  0.00  0.00    +0.000 A 
ATOM     10  O   UNL     1      24.855   5.834  48.396  0.00  0.00    +0.000 OA
ATOM     11  C   UNL     1      22.599   6.392  48.737  0.00  0.00    +0.000 A 
ATOM     12  N   UNL     1      21.861   5.249  48.551  0.00  0.00    +0.000 N 
BRANCH   2  13
ATOM     13  C   UNL     1      19.428   4.583  49.022  0.00  0.00    +0.000 C 
BRANCH  13  14
ATOM     14  C   UNL     1      18.823   4.541  50.428  0.00  0.00    +0.000 C 
BRANCH  14  16
ATOM     15  C   UNL     1      19.118   2.509  51.896  0.00  0.00    +0.000 C 
ATOM     16  C   UNL     1      19.714   3.838  51.459  0.00  0.00    +0.000 C 
ENDBRANCH  14  16
ENDBRANCH  13  14
ENDBRANCH   2  13
ENDBRANCH   1  12
BRANCH   1  17
ATOM     17  C   UNL     1      22.581   2.979  49.156  0.00  0.00    +0.000 A 
ATOM     18  C   UNL     1      21.921   1.748  49.158  0.00  0.00    +0.000 A 
ATOM     19  C   UNL     1      21.981   0.901  50.271  0.00  0.00    +0.000 A 
ATOM     20  C   UNL     1      22.739   1.219  51.415  0.00  0.00    +0.000 A 
ATOM     21  C   UNL     1      23.507   2.389  51.336  0.00  0.00    +0.000 A 
ATOM     22  C   UNL     1      23.405   3.272  50.246  0.00  0.00    +0.000 A 
BRANCH  20  23
ATOM     23  C   UNL     1      22.677   0.352  52.630  0.00  0.00    +0.000 A 
ATOM     24  C   UNL     1      21.404  -0.025  53.131  0.00  0.00    +0.000 A 
ATOM     25  C   UNL     1      21.243  -0.752  54.317  0.00  0.00    +0.000 A 
ATOM     26  C   UNL     1      22.354  -1.166  55.032  0.00  0.00    +0.000 A 
ATOM     27  C   UNL     1      23.622  -0.851  54.558  0.00  0.00    +0.000 A 
ATOM     28  C   UNL     1      23.796  -0.095  53.378  0.00  0.00    +0.000 A 
BRANCH  28  29
ATOM     29  C   UNL     1      25.202   0.257  53.049  0.00  0.00    +0.000 C 
ATOM     30  O   UNL     1      25.901  -0.184  52.159  0.00  0.00    +0.000 OA
ATOM     31  O   UNL     1      25.679   1.189  53.900  0.00  0.00    +0.000 OA
ENDBRANCH  28  29
ENDBRANCH  20  23
ENDBRANCH   1  17
TORSDOF 7
ENDMDL
