MODEL 1
REMARK VINA RESULT:    -7.956      0.000      0.000
REMARK INTER + INTRA:          -9.814
REMARK INTER:                  -9.352
REMARK INTRA:                  -0.462
REMARK UNBOUND:                -0.462
REMARK  Name = 
REMARK  4 active torsions:
REMARK  status: ('A' for Active; 'I' for Inactive)
REMARK    1  A    between atoms: C_1  and  C_2
REMARK    2  A    between atoms: C_2  and  N_3
REMARK    3  A    between atoms: N_3  and  C_4
REMARK    4  A    between atoms: C_14  and  C_16
REMARK                            x       y       z     vdW  Elec       q    Type
REMARK                         _______ _______ _______ _____ _____    ______ ____
ROOT
ATOM      1  C   UNL     1      22.525   5.179  48.113  0.00  0.00    +0.000 A 
ATOM      2  C   UNL     1      22.440   6.097  47.065  0.00  0.00    +0.000 A 
ATOM      3  C   UNL     1      23.422   7.070  46.912  0.00  0.00    +0.000 A 
ATOM      4  C   UNL     1      24.445   7.120  47.841  0.00  0.00    +0.000 A 
ATOM      5  N   UNL     1      24.552   6.278  48.890  0.00  0.00    +0.000 NA
ATOM      6  C   UNL     1      23.598   5.331  49.046  0.00  0.00    +0.000 A 
ATOM      7  N   UNL     1      23.776   4.384  50.046  0.00  0.00    +0.000 N 
ATOM      8  C   UNL     1      25.128   4.156  50.555  0.00  0.00    +0.000 C 
ATOM      9  C   UNL     1      25.254   2.653  50.899  0.00  0.00    +0.000 C 
ATOM     10  N   UNL     1      24.142   2.167  51.746  0.00  0.00    +0.000 N 
ATOM     11  C   UNL     1      24.250   1.218  52.769  0.00  0.00    +0.000 C 
ATOM     12  O   UNL     1      23.256   0.926  53.436  0.00  0.00    +0.000 OA
ATOM     13  C   UNL     1      22.793   2.597  51.336  0.00  0.00    +0.000 C 
ATOM     14  C   UNL     1      22.742   4.113  51.056  0.00  0.00    +0.000 C 
ENDROOT
BRANCH  11  15
ATOM     15  C   UNL     1      25.558   0.609  53.040  0.00  0.00    +0.000 A 
ATOM     16  N   UNL     1      25.894  -0.630  52.731  0.00  0.00    +0.000 NA
ATOM     17  C   UNL     1      27.215  -0.857  53.073  0.00  0.00    +0.000 A 
ATOM     18  C   UNL     1      27.930  -2.050  52.848  0.00  0.00    +0.000 A 
ATOM     19  C   UNL     1      29.273  -2.138  53.228  0.00  0.00    +0.000 A 
ATOM     20  C   UNL     1      29.900  -1.060  53.843  0.00  0.00    +0.000 A 
ATOM     21  C   UNL     1      29.215   0.134  54.081  0.00  0.00    +0.000 A 
ATOM     22  C   UNL     1      27.866   0.214  53.686  0.00  0.00    +0.000 A 
ATOM     23  S   UNL     1      26.768   1.530  53.836  0.00  0.00    +0.000 S 
ENDBRANCH  11  15
BRANCH   1  24
ATOM     24  N   UNL     1      21.568   4.162  48.311  0.00  0.00    +0.000 N 
ATOM     25  H   UNL     1      21.000   4.185  49.115  0.00  0.00    +0.000 HD
BRANCH  24  27
ATOM     26  C   UNL     1      22.348   1.957  47.755  0.00  0.00    +0.000 C 
ATOM     27  C   UNL     1      21.400   3.081  47.356  0.00  0.00    +0.000 C 
ENDBRANCH  24  27
ENDBRANCH   1  24
TORSDOF 3
ENDMDL
MODEL 2
REMARK VINA RESULT:    -7.771      2.090      2.202
REMARK INTER + INTRA:          -9.596
REMARK INTER:                  -9.328
REMARK INTRA:                  -0.268
REMARK UNBOUND:                -0.462
REMARK  Name = 
REMARK  4 active torsions:
REMARK  status: ('A' for Active; 'I' for Inactive)
REMARK    1  A    between atoms: C_1  and  C_2
REMARK    2  A    between atoms: C_2  and  N_3
REMARK    3  A    between atoms: N_3  and  C_4
REMARK    4  A    between atoms: C_14  and  C_16
REMARK                            x       y       z     vdW  Elec       q    Type
REMARK                         _______ _______ _______ _____ _____    ______ ____
ROOT
ATOM      1  C   UNL     1      20.582   4.243  50.066  0.00  0.00    +0.000 A 
ATOM      2  C   UNL     1      20.127   5.379  49.393  0.00  0.00    +0.000 A 
ATOM      3  C   UNL     1      20.663   6.627  49.696  0.00  0.00    +0.000 A 
ATOM      4  C   UNL     1      21.615   6.706  50.694  0.00  0.00    +0.000 A 
ATOM      5  N   UNL     1      22.062   5.643  51.396  0.00  0.00    +0.000 NA
ATOM      6  C   UNL     1      21.542   4.427  51.110  0.00  0.00    +0.000 A 
ATOM      7  N   UNL     1      22.093   3.318  51.737  0.00  0.00    +0.000 N 
ATOM      8  C   UNL     1      23.444   3.429  52.286  0.00  0.00    +0.000 C 
ATOM      9  C   UNL     1      24.139   2.059  52.106  0.00  0.00    +0.000 C 
ATOM     10  N   UNL     1      23.318   0.932  52.604  0.00  0.00    +0.000 N 
ATOM     11  C   UNL     1      23.806  -0.212  53.245  0.00  0.00    +0.000 C 
ATOM     12  O   UNL     1      23.014  -1.064  53.655  0.00  0.00    +0.000 OA
ATOM     13  C   UNL     1      21.896   0.961  52.217  0.00  0.00    +0.000 C 
ATOM     14  C   UNL     1      21.267   2.347  52.469  0.00  0.00    +0.000 C 
ENDROOT
BRANCH  11  15
ATOM     15  C   UNL     1      25.253  -0.358  53.436  0.00  0.00    +0.000 A 
ATOM     16  N   UNL     1      25.986  -1.340  52.942  0.00  0.00    +0.000 NA
ATOM     17  C   UNL     1      27.316  -1.139  53.264  0.00  0.00    +0.000 A 
ATOM     18  C   UNL     1      28.392  -1.958  52.866  0.00  0.00    +0.000 A 
ATOM     19  C   UNL     1      29.696  -1.627  53.246  0.00  0.00    +0.000 A 
ATOM     20  C   UNL     1      29.934  -0.505  54.032  0.00  0.00    +0.000 A 
ATOM     21  C   UNL     1      28.887   0.323  54.443  0.00  0.00    +0.000 A 
ATOM     22  C   UNL     1      27.579  -0.015  54.046  0.00  0.00    +0.000 A 
ATOM     23  S   UNL     1      26.100   0.795  54.384  0.00  0.00    +0.000 S 
ENDBRANCH  11  15
BRANCH   1  24
ATOM     24  N   UNL     1      20.087   2.951  49.794  0.00  0.00    +0.000 N 
ATOM     25  H   UNL     1      19.602   2.463  50.498  0.00  0.00    +0.000 HD
BRANCH  24  27
ATOM     26  C   UNL     1      21.604   1.573  48.535  0.00  0.00    +0.000 C 
ATOM     27  C   UNL     1      20.277   2.322  48.499  0.00  0.00    +0.000 C 
ENDBRANCH  24  27
ENDBRANCH   1  24
TORSDOF 3
ENDMDL
MODEL 3
REMARK VINA RESULT:    -7.728      3.345      7.458
REMARK INTER + INTRA:          -9.545
REMARK INTER:                  -9.105
REMARK INTRA:                  -0.440
REMARK UNBOUND:                -0.462
REMARK  Name = 
REMARK  4 active torsions:
REMARK  status: ('A' for Active; 'I' for Inactive)
REMARK    1  A    between atoms: C_1  and  C_2
REMARK    2  A    between atoms: C_2  and  N_3
REMARK    3  A    between atoms: N_3  and  C_4
REMARK    4  A    between atoms: C_14  and  C_16
REMARK                            x       y       z     vdW  Elec       q    Type
REMARK                         _______ _______ _______ _____ _____    ______ ____
ROOT
ATOM      1  C   UNL     1      22.011   0.118  53.732  0.00  0.00    +0.000 A 
ATOM      2  C   UNL     1      21.926  -0.779  54.800  0.00  0.00    +0.000 A 
ATOM      3  C   UNL     1      23.081  -1.365  55.308  0.00  0.00    +0.000 A 
ATOM      4  C   UNL     1      24.287  -1.064  54.706  0.00  0.00    +0.000 A 
ATOM      5  N   UNL     1      24.417  -0.232  53.652  0.00  0.00    +0.000 NA
ATOM      6  C   UNL     1      23.298   0.339  53.150  0.00  0.00    +0.000 A 
ATOM      7  N   UNL     1      23.443   1.294  52.153  0.00  0.00    +0.000 N 
ATOM      8  C   UNL     1      24.735   1.966  52.016  0.00  0.00    +0.000 C 
ATOM      9  C   UNL     1      24.463   3.425  51.579  0.00  0.00    +0.000 C 
ATOM     10  N   UNL     1      23.550   3.511  50.416  0.00  0.00    +0.000 N 
ATOM     11  C   UNL     1      23.640   4.444  49.377  0.00  0.00    +0.000 C 
ATOM     12  O   UNL     1      22.844   4.386  48.437  0.00  0.00    +0.000 OA
ATOM     13  C   UNL     1      22.355   2.650  50.478  0.00  0.00    +0.000 C 
ATOM     14  C   UNL     1      22.719   1.204  50.876  0.00  0.00    +0.000 C 
ENDROOT
BRANCH  11  15
ATOM     15  C   UNL     1      24.699   5.459  49.420  0.00  0.00    +0.000 A 
ATOM     16  N   UNL     1      25.845   5.385  48.768  0.00  0.00    +0.000 NA
ATOM     17  C   UNL     1      26.583   6.534  48.986  0.00  0.00    +0.000 A 
ATOM     18  C   UNL     1      27.837   6.828  48.412  0.00  0.00    +0.000 A 
ATOM     19  C   UNL     1      28.467   8.041  48.704  0.00  0.00    +0.000 A 
ATOM     20  C   UNL     1      27.873   8.950  49.571  0.00  0.00    +0.000 A 
ATOM     21  C   UNL     1      26.633   8.685  50.156  0.00  0.00    +0.000 A 
ATOM     22  C   UNL     1      26.002   7.463  49.847  0.00  0.00    +0.000 A 
ATOM     23  S   UNL     1      24.490   6.855  50.397  0.00  0.00    +0.000 S 
ENDBRANCH  11  15
BRANCH   1  24
ATOM     24  N   UNL     1      20.878   0.754  53.184  0.00  0.00    +0.000 N 
ATOM     25  H   UNL     1      20.912   1.721  52.999  0.00  0.00    +0.000 HD
BRANCH  24  27
ATOM     26  C   UNL     1      19.220   0.401  51.478  0.00  0.00    +0.000 C 
ATOM     27  C   UNL     1      19.663   0.017  52.885  0.00  0.00    +0.000 C 
ENDBRANCH  24  27
ENDBRANCH   1  24
TORSDOF 3
ENDMDL
MODEL 4
REMARK VINA RESULT:    -7.678      3.967      7.839
REMARK INTER + INTRA:          -9.487
REMARK INTER:                  -9.453
REMARK INTRA:                  -0.033
REMARK UNBOUND:                -0.462
REMARK  Name = 
REMARK  4 active torsions:
REMARK  status: ('A' for Active; 'I' for Inactive)
REMARK    1  A    between atoms: C_1  and  C_2
REMARK    2  A    between atoms: C_2  and  N_3
REMARK    3  A    between atoms: N_3  and  C_4
REMARK    4  A    between atoms: C_14  and  C_16
REMARK                            x       y       z     vdW  Elec       q    Type
REMARK                         _______ _______ _______ _____ _____    ______ ____
ROOT
ATOM      1  C   UNL     1      27.416   1.915  52.768  0.00  0.00    +0.000 A 
ATOM      2  C   UNL     1      28.726   1.490  53.001  0.00  0.00    +0.000 A 
ATOM      3  C   UNL     1      28.980   0.525  53.971  0.00  0.00    +0.000 A 
ATOM      4  C   UNL     1      27.917   0.039  54.707  0.00  0.00    +0.000 A 
ATOM      5  N   UNL     1      26.639   0.443  54.542  0.00  0.00    +0.000 NA
ATOM      6  C   UNL     1      26.385   1.384  53.604  0.00  0.00    +0.000 A 
ATOM      7  N   UNL     1      25.059   1.704  53.343  0.00  0.00    +0.000 N 
ATOM      8  C   UNL     1      24.025   0.739  53.715  0.00  0.00    +0.000 C 
ATOM      9  C   UNL     1      22.903   0.819  52.654  0.00  0.00    +0.000 C 
ATOM     10  N   UNL     1      22.450   2.206  52.405  0.00  0.00    +0.000 N 
ATOM     11  C   UNL     1      21.133   2.599  52.139  0.00  0.00    +0.000 C 
ATOM     12  O   UNL     1      20.872   3.795  51.992  0.00  0.00    +0.000 OA
ATOM     13  C   UNL     1      23.520   3.208  52.252  0.00  0.00    +0.000 C 
ATOM     14  C   UNL     1      24.572   3.091  53.374  0.00  0.00    +0.000 C 
ENDROOT
BRANCH  11  15
ATOM     15  C   UNL     1      20.086   1.574  52.065  0.00  0.00    +0.000 A 
ATOM     16  N   UNL     1      19.899   0.616  52.955  0.00  0.00    +0.000 NA
ATOM     17  C   UNL     1      18.793  -0.138  52.608  0.00  0.00    +0.000 A 
ATOM     18  C   UNL     1      18.264  -1.214  53.350  0.00  0.00    +0.000 A 
ATOM     19  C   UNL     1      17.123  -1.880  52.892  0.00  0.00    +0.000 A 
ATOM     20  C   UNL     1      16.518  -1.497  51.700  0.00  0.00    +0.000 A 
ATOM     21  C   UNL     1      17.021  -0.436  50.944  0.00  0.00    +0.000 A 
ATOM     22  C   UNL     1      18.166   0.233  51.419  0.00  0.00    +0.000 A 
ATOM     23  S   UNL     1      19.010   1.562  50.726  0.00  0.00    +0.000 S 
ENDBRANCH  11  15
BRANCH   1  24
ATOM     24  N   UNL     1      27.094   2.879  51.790  0.00  0.00    +0.000 N 
ATOM     25  H   UNL     1      27.156   3.835  52.019  0.00  0.00    +0.000 HD
BRANCH  24  27
ATOM     26  C   UNL     1      26.409   3.772  49.666  0.00  0.00    +0.000 C 
ATOM     27  C   UNL     1      26.675   2.495  50.454  0.00  0.00    +0.000 C 
ENDBRANCH  24  27
ENDBRANCH   1  24
TORSDOF 3
ENDMDL
MODEL 5
REMARK VINA RESULT:    -6.732      3.832      8.593
REMARK INTER + INTRA:          -8.375
REMARK INTER:                  -7.887
REMARK INTRA:                  -0.488
REMARK UNBOUND:                -0.462
REMARK  Name = 
REMARK  4 active torsions:
REMARK  status: ('A' for Active; 'I' for Inactive)
REMARK    1  A    between atoms: C_1  and  C_2
REMARK    2  A    between atoms: C_2  and  N_3
REMARK    3  A    between atoms: N_3  and  C_4
REMARK    4  A    between atoms: C_14  and  C_16
REMARK                            x       y       z     vdW  Elec       q    Type
REMARK                         _______ _______ _______ _____ _____    ______ ____
ROOT
ATOM      1  C   UNL     1      26.456   1.515  52.250  0.00  0.00    +0.000 A 
ATOM      2  C   UNL     1      27.457   0.573  52.495  0.00  0.00    +0.000 A 
ATOM      3  C   UNL     1      27.174  -0.561  53.249  0.00  0.00    +0.000 A 
ATOM      4  C   UNL     1      25.901  -0.701  53.769  0.00  0.00    +0.000 A 
ATOM      5  N   UNL     1      24.910   0.197  53.589  0.00  0.00    +0.000 NA
ATOM      6  C   UNL     1      25.180   1.304  52.860  0.00  0.00    +0.000 A 
ATOM      7  N   UNL     1      24.130   2.163  52.564  0.00  0.00    +0.000 N 
ATOM      8  C   UNL     1      22.765   1.640  52.629  0.00  0.00    +0.000 C 
ATOM      9  C   UNL     1      21.941   2.334  51.519  0.00  0.00    +0.000 C 
ATOM     10  N   UNL     1      22.083   3.808  51.541  0.00  0.00    +0.000 N 
ATOM     11  C   UNL     1      21.068   4.729  51.256  0.00  0.00    +0.000 C 
ATOM     12  O   UNL     1      21.298   5.936  51.351  0.00  0.00    +0.000 OA
ATOM     13  C   UNL     1      23.458   4.314  51.700  0.00  0.00    +0.000 C 
ATOM     14  C   UNL     1      24.194   3.603  52.854  0.00  0.00    +0.000 C 
ENDROOT
BRANCH  11  15
ATOM     15  C   UNL     1      19.742   4.231  50.872  0.00  0.00    +0.000 A 
ATOM     16  N   UNL     1      18.771   3.935  51.716  0.00  0.00    +0.000 NA
ATOM     17  C   UNL     1      17.642   3.552  51.017  0.00  0.00    +0.000 A 
ATOM     18  C   UNL     1      16.397   3.211  51.585  0.00  0.00    +0.000 A 
ATOM     19  C   UNL     1      15.328   2.859  50.756  0.00  0.00    +0.000 A 
ATOM     20  C   UNL     1      15.491   2.826  49.376  0.00  0.00    +0.000 A 
ATOM     21  C   UNL     1      16.712   3.157  48.786  0.00  0.00    +0.000 A 
ATOM     22  C   UNL     1      17.780   3.519  49.630  0.00  0.00    +0.000 A 
ATOM     23  S   UNL     1      19.385   3.976  49.212  0.00  0.00    +0.000 S 
ENDBRANCH  11  15
BRANCH   1  24
ATOM     24  N   UNL     1      26.679   2.676  51.481  0.00  0.00    +0.000 N 
ATOM     25  H   UNL     1      26.961   3.505  51.933  0.00  0.00    +0.000 HD
BRANCH  24  27
ATOM     26  C   UNL     1      26.581   4.126  49.566  0.00  0.00    +0.000 C 
ATOM     27  C   UNL     1      26.502   2.680  50.041  0.00  0.00    +0.000 C 
ENDBRANCH  24  27
ENDBRANCH   1  24
TORSDOF 3
ENDMDL
MODEL 6
REMARK VINA RESULT:    -6.638      6.139      9.913
REMARK INTER + INTRA:          -8.265
REMARK INTER:                  -7.666
REMARK INTRA:                  -0.599
REMARK UNBOUND:                -0.462
REMARK  Name = 
REMARK  4 active torsions:
REMARK  status: ('A' for Active; 'I' for Inactive)
REMARK    1  A    between atoms: C_1  and  C_2
REMARK    2  A    between atoms: C_2  and  N_3
REMARK    3  A    between atoms: N_3  and  C_4
REMARK    4  A    between atoms: C_14  and  C_16
REMARK                            x       y       z     vdW  Elec       q    Type
REMARK                         _______ _______ _______ _____ _____    ______ ____
ROOT
ATOM      1  C   UNL     1      23.203   1.022  52.778  0.00  0.00    +0.000 A 
ATOM      2  C   UNL     1      24.460   1.370  53.276  0.00  0.00    +0.000 A 
ATOM      3  C   UNL     1      24.898   2.688  53.197  0.00  0.00    +0.000 A 
ATOM      4  C   UNL     1      24.077   3.616  52.585  0.00  0.00    +0.000 A 
ATOM      5  N   UNL     1      22.869   3.322  52.059  0.00  0.00    +0.000 NA
ATOM      6  C   UNL     1      22.439   2.041  52.129  0.00  0.00    +0.000 A 
ATOM      7  N   UNL     1      21.145   1.763  51.708  0.00  0.00    +0.000 N 
ATOM      8  C   UNL     1      20.180   2.861  51.655  0.00  0.00    +0.000 C 
ATOM      9  C   UNL     1      18.795   2.288  52.037  0.00  0.00    +0.000 C 
ATOM     10  N   UNL     1      18.449   1.071  51.269  0.00  0.00    +0.000 N 
ATOM     11  C   UNL     1      17.170   0.731  50.812  0.00  0.00    +0.000 C 
ATOM     12  O   UNL     1      17.016  -0.292  50.142  0.00  0.00    +0.000 OA
ATOM     13  C   UNL     1      19.522   0.067  51.147  0.00  0.00    +0.000 C 
ATOM     14  C   UNL     1      20.856   0.713  50.720  0.00  0.00    +0.000 C 
ENDROOT
BRANCH  11  15
ATOM     15  C   UNL     1      16.044   1.617  51.124  0.00  0.00    +0.000 A 
ATOM     16  N   UNL     1      15.331   1.573  52.235  0.00  0.00    +0.000 NA
ATOM     17  C   UNL     1      14.387   2.584  52.228  0.00  0.00    +0.000 A 
ATOM     18  C   UNL     1      13.482   2.873  53.269  0.00  0.00    +0.000 A 
ATOM     19  C   UNL     1      12.591   3.942  53.138  0.00  0.00    +0.000 A 
ATOM     20  C   UNL     1      12.580   4.710  51.979  0.00  0.00    +0.000 A 
ATOM     21  C   UNL     1      13.464   4.445  50.931  0.00  0.00    +0.000 A 
ATOM     22  C   UNL     1      14.364   3.371  51.078  0.00  0.00    +0.000 A 
ATOM     23  S   UNL     1      15.562   2.804  49.981  0.00  0.00    +0.000 S 
ENDBRANCH  11  15
BRANCH   1  24
ATOM     24  N   UNL     1      22.699  -0.294  52.843  0.00  0.00    +0.000 N 
ATOM     25  H   UNL     1      22.471  -0.763  52.007  0.00  0.00    +0.000 HD
BRANCH  24  27
ATOM     26  C   UNL     1      21.222  -0.445  54.733  0.00  0.00    +0.000 C 
ATOM     27  C   UNL     1      22.509  -0.973  54.111  0.00  0.00    +0.000 C 
ENDBRANCH  24  27
ENDBRANCH   1  24
TORSDOF 3
ENDMDL
MODEL 7
REMARK VINA RESULT:    -6.502      4.779      6.431
REMARK INTER + INTRA:          -8.104
REMARK INTER:                  -7.781
REMARK INTRA:                  -0.323
REMARK UNBOUND:                -0.462
REMARK  Name = 
REMARK  4 active torsions:
REMARK  status: ('A' for Active; 'I' for Inactive)
REMARK    1  A    between atoms: C_1  and  C_2
REMARK    2  A    between atoms: C_2  and  N_3
REMARK    3  A    between atoms: N_3  and  C_4
REMARK    4  A    between atoms: C_14  and  C_16
REMARK                            x       y       z     vdW  Elec       q    Type
REMARK                         _______ _______ _______ _____ _____    ______ ____
ROOT
ATOM      1  C   UNL     1      15.884   1.633  51.110  0.00  0.00    +0.000 A 
ATOM      2  C   UNL     1      14.657   1.027  50.835  0.00  0.00    +0.000 A 
ATOM      3  C   UNL     1      14.590  -0.027  49.928  0.00  0.00    +0.000 A 
ATOM      4  C   UNL     1      15.753  -0.419  49.293  0.00  0.00    +0.000 A 
ATOM      5  N   UNL     1      16.956   0.158  49.499  0.00  0.00    +0.000 NA
ATOM      6  C   UNL     1      17.027   1.185  50.376  0.00  0.00    +0.000 A 
ATOM      7  N   UNL     1      18.282   1.692  50.687  0.00  0.00    +0.000 N 
ATOM      8  C   UNL     1      19.452   0.847  50.448  0.00  0.00    +0.000 C 
ATOM      9  C   UNL     1      20.482   1.143  51.562  0.00  0.00    +0.000 C 
ATOM     10  N   UNL     1      20.740   2.591  51.731  0.00  0.00    +0.000 N 
ATOM     11  C   UNL     1      21.977   3.169  52.041  0.00  0.00    +0.000 C 
ATOM     12  O   UNL     1      22.075   4.395  52.112  0.00  0.00    +0.000 OA
ATOM     13  C   UNL     1      19.545   3.454  51.748  0.00  0.00    +0.000 C 
ATOM     14  C   UNL     1      18.592   3.125  50.580  0.00  0.00    +0.000 C 
ENDROOT
BRANCH  11  15
ATOM     15  C   UNL     1      23.137   2.296  52.252  0.00  0.00    +0.000 A 
ATOM     16  N   UNL     1      23.270   1.440  53.249  0.00  0.00    +0.000 NA
ATOM     17  C   UNL     1      24.454   0.739  53.112  0.00  0.00    +0.000 A 
ATOM     18  C   UNL     1      24.905  -0.290  53.963  0.00  0.00    +0.000 A 
ATOM     19  C   UNL     1      26.119  -0.931  53.696  0.00  0.00    +0.000 A 
ATOM     20  C   UNL     1      26.891  -0.546  52.607  0.00  0.00    +0.000 A 
ATOM     21  C   UNL     1      26.470   0.472  51.748  0.00  0.00    +0.000 A 
ATOM     22  C   UNL     1      25.242   1.104  52.021  0.00  0.00    +0.000 A 
ATOM     23  S   UNL     1      24.460   2.372  51.160  0.00  0.00    +0.000 S 
ENDBRANCH  11  15
BRANCH   1  24
ATOM     24  N   UNL     1      16.018   2.694  52.029  0.00  0.00    +0.000 N 
ATOM     25  H   UNL     1      16.722   2.650  52.717  0.00  0.00    +0.000 HD
BRANCH  24  27
ATOM     26  C   UNL     1      14.733   4.179  53.417  0.00  0.00    +0.000 C 
ATOM     27  C   UNL     1      15.142   3.851  51.985  0.00  0.00    +0.000 C 
ENDBRANCH  24  27
ENDBRANCH   1  24
TORSDOF 3
ENDMDL
MODEL 8
REMARK VINA RESULT:    -6.498      3.644      5.409
REMARK INTER + INTRA:          -8.100
REMARK INTER:                  -7.575
REMARK INTRA:                  -0.526
REMARK UNBOUND:                -0.462
REMARK  Name = 
REMARK  4 active torsions:
REMARK  status: ('A' for Active; 'I' for Inactive)
REMARK    1  A    between atoms: C_1  and  C_2
REMARK    2  A    between atoms: C_2  and  N_3
REMARK    3  A    between atoms: N_3  and  C_4
REMARK    4  A    between atoms: C_14  and  C_16
REMARK                            x       y       z     vdW  Elec       q    Type
REMARK                         _______ _______ _______ _____ _____    ______ ____
ROOT
ATOM      1  C   UNL     1      21.672   8.727  48.718  0.00  0.00    +0.000 A 
ATOM      2  C   UNL     1      21.361  10.084  48.831  0.00  0.00    +0.000 A 
ATOM      3  C   UNL     1      20.188  10.477  49.468  0.00  0.00    +0.000 A 
ATOM      4  C   UNL     1      19.340   9.495  49.942  0.00  0.00    +0.000 A 
ATOM      5  N   UNL     1      19.579   8.172  49.828  0.00  0.00    +0.000 NA
ATOM      6  C   UNL     1      20.716   7.782  49.206  0.00  0.00    +0.000 A 
ATOM      7  N   UNL     1      21.028   6.430  49.203  0.00  0.00    +0.000 N 
ATOM      8  C   UNL     1      20.414   5.572  50.217  0.00  0.00    +0.000 C 
ATOM      9  C   UNL     1      21.446   4.487  50.602  0.00  0.00    +0.000 C 
ATOM     10  N   UNL     1      22.020   3.801  49.422  0.00  0.00    +0.000 N 
ATOM     11  C   UNL     1      22.355   2.444  49.350  0.00  0.00    +0.000 C 
ATOM     12  O   UNL     1      22.788   1.980  48.293  0.00  0.00    +0.000 OA
ATOM     13  C   UNL     1      22.432   4.680  48.313  0.00  0.00    +0.000 C 
ATOM     14  C   UNL     1      21.331   5.702  47.961  0.00  0.00    +0.000 C 
ENDROOT
BRANCH  11  15
ATOM     15  C   UNL     1      22.160   1.599  50.533  0.00  0.00    +0.000 A 
ATOM     16  N   UNL     1      23.107   1.268  51.392  0.00  0.00    +0.000 NA
ATOM     17  C   UNL     1      22.568   0.513  52.418  0.00  0.00    +0.000 A 
ATOM     18  C   UNL     1      23.271   0.024  53.537  0.00  0.00    +0.000 A 
ATOM     19  C   UNL     1      22.595  -0.714  54.515  0.00  0.00    +0.000 A 
ATOM     20  C   UNL     1      21.238  -0.983  54.377  0.00  0.00    +0.000 A 
ATOM     21  C   UNL     1      20.517  -0.513  53.277  0.00  0.00    +0.000 A 
ATOM     22  C   UNL     1      21.206   0.237  52.304  0.00  0.00    +0.000 A 
ATOM     23  S   UNL     1      20.605   0.947  50.857  0.00  0.00    +0.000 S 
ENDBRANCH  11  15
BRANCH   1  24
ATOM     24  N   UNL     1      22.852   8.269  48.096  0.00  0.00    +0.000 N 
ATOM     25  H   UNL     1      22.785   7.748  47.262  0.00  0.00    +0.000 HD
BRANCH  24  27
ATOM     26  C   UNL     1      24.190   7.984  50.073  0.00  0.00    +0.000 C 
ATOM     27  C   UNL     1      24.162   8.545  48.656  0.00  0.00    +0.000 C 
ENDBRANCH  24  27
ENDBRANCH   1  24
TORSDOF 3
ENDMDL
MODEL 9
REMARK VINA RESULT:    -6.494      4.239      6.418
REMARK INTER + INTRA:          -8.095
REMARK INTER:                  -7.626
REMARK INTRA:                  -0.469
REMARK UNBOUND:                -0.462
REMARK  Name = 
REMARK  4 active torsions:
REMARK  status: ('A' for Active; 'I' for Inactive)
REMARK    1  A    between atoms: C_1  and  C_2
REMARK    2  A    between atoms: C_2  and  N_3
REMARK    3  A    between atoms: N_3  and  C_4
REMARK    4  A    between atoms: C_14  and  C_16
REMARK                            x       y       z     vdW  Elec       q    Type
REMARK                         _______ _______ _______ _____ _____    ______ ____
ROOT
ATOM      1  C   UNL     1      18.104   1.478  49.949  0.00  0.00    +0.000 A 
ATOM      2  C   UNL     1      16.891   1.132  49.350  0.00  0.00    +0.000 A 
ATOM      3  C   UNL     1      16.269   2.019  48.477  0.00  0.00    +0.000 A 
ATOM      4  C   UNL     1      16.864   3.247  48.257  0.00  0.00    +0.000 A 
ATOM      5  N   UNL     1      18.017   3.641  48.837  0.00  0.00    +0.000 NA
ATOM      6  C   UNL     1      18.625   2.785  49.691  0.00  0.00    +0.000 A 
ATOM      7  N   UNL     1      19.874   3.134  50.186  0.00  0.00    +0.000 N 
ATOM      8  C   UNL     1      20.663   4.121  49.450  0.00  0.00    +0.000 C 
ATOM      9  C   UNL     1      22.153   3.727  49.583  0.00  0.00    +0.000 C 
ATOM     10  N   UNL     1      22.554   3.479  50.986  0.00  0.00    +0.000 N 
ATOM     11  C   UNL     1      23.792   3.806  51.550  0.00  0.00    +0.000 C 
ATOM     12  O   UNL     1      23.992   3.588  52.747  0.00  0.00    +0.000 OA
ATOM     13  C   UNL     1      21.623   2.656  51.779  0.00  0.00    +0.000 C 
ATOM     14  C   UNL     1      20.166   3.142  51.627  0.00  0.00    +0.000 C 
ENDROOT
BRANCH  11  15
ATOM     15  C   UNL     1      24.819   4.426  50.704  0.00  0.00    +0.000 A 
ATOM     16  N   UNL     1      24.904   5.717  50.441  0.00  0.00    +0.000 NA
ATOM     17  C   UNL     1      26.020   5.964  49.662  0.00  0.00    +0.000 A 
ATOM     18  C   UNL     1      26.457   7.232  49.227  0.00  0.00    +0.000 A 
ATOM     19  C   UNL     1      27.619   7.341  48.457  0.00  0.00    +0.000 A 
ATOM     20  C   UNL     1      28.334   6.203  48.102  0.00  0.00    +0.000 A 
ATOM     21  C   UNL     1      27.924   4.934  48.516  0.00  0.00    +0.000 A 
ATOM     22  C   UNL     1      26.757   4.837  49.300  0.00  0.00    +0.000 A 
ATOM     23  S   UNL     1      26.007   3.436  49.958  0.00  0.00    +0.000 S 
ENDBRANCH  11  15
BRANCH   1  24
ATOM     24  N   UNL     1      18.788   0.616  50.831  0.00  0.00    +0.000 N 
ATOM     25  H   UNL     1      19.748   0.445  50.689  0.00  0.00    +0.000 HD
BRANCH  24  27
ATOM     26  C   UNL     1      19.177  -0.508  52.920  0.00  0.00    +0.000 C 
ATOM     27  C   UNL     1      18.111  -0.025  51.943  0.00  0.00    +0.000 C 
ENDBRANCH  24  27
ENDBRANCH   1  24
TORSDOF 3
ENDMDL
