MODEL 1
REMARK VINA RESULT:    -7.602      0.000      0.000
REMARK INTER + INTRA:         -13.753
REMARK INTER:                 -12.268
REMARK INTRA:                  -1.486
REMARK UNBOUND:                -1.486
REMARK  Name = 
REMARK  14 active torsions:
REMARK  status: ('A' for Active; 'I' for Inactive)
REMARK    1  A    between atoms: C_1  and  C_2
REMARK    2  A    between atoms: C_2  and  C_3
REMARK    3  A    between atoms: C_2  and  C_4
REMARK    4  A    between atoms: C_2  and  N_5
REMARK    5  A    between atoms: N_5  and  C_6
REMARK    6  A    between atoms: C_6  and  C_7
REMARK    7  A    between atoms: C_7  and  O_8
REMARK    8  A    between atoms: C_7  and  C_9
REMARK    9  A    between atoms: C_9  and  O_10
REMARK   10  A    between atoms: O_10  and  C_11
REMARK   11  A    between atoms: C_11  and  C_13
REMARK   12  A    between atoms: C_17  and  O_18
REMARK   13  A    between atoms: O_18  and  C_19
REMARK   14  A    between atoms: C_19  and  C_20
REMARK                            x       y       z     vdW  Elec       q    Type
REMARK                         _______ _______ _______ _____ _____    ______ ____
ROOT
ATOM      1  C   UNL     1      21.164   2.326  52.372  0.00  0.00    +0.000 C 
ATOM      2  O   UNL     1      19.967   2.409  52.136  0.00  0.00    +0.000 OA
ENDROOT
BRANCH   1   3
ATOM      3  C   UNL     1      21.762   1.212  53.150  0.00  0.00    +0.000 A 
ATOM      4  C   UNL     1      20.948   0.542  54.070  0.00  0.00    +0.000 A 
ATOM      5  C   UNL     1      21.388  -0.650  54.650  0.00  0.00    +0.000 A 
ATOM      6  C   UNL     1      22.648  -1.156  54.334  0.00  0.00    +0.000 A 
ATOM      7  C   UNL     1      23.502  -0.438  53.496  0.00  0.00    +0.000 A 
ATOM      8  C   UNL     1      23.051   0.730  52.885  0.00  0.00    +0.000 A 
BRANCH   7   9
ATOM      9  O   UNL     1      24.785  -0.802  53.179  0.00  0.00    +0.000 OA
BRANCH   9  10
ATOM     10  C   UNL     1      25.715   0.278  53.057  0.00  0.00    +0.000 C 
BRANCH  10  11
ATOM     11  C   UNL     1      27.137  -0.192  53.270  0.00  0.00    +0.000 A 
ATOM     12  C   UNL     1      27.539  -1.502  52.977  0.00  0.00    +0.000 A 
ATOM     13  C   UNL     1      28.880  -1.875  53.088  0.00  0.00    +0.000 A 
ATOM     14  C   UNL     1      29.835  -0.939  53.482  0.00  0.00    +0.000 A 
ATOM     15  C   UNL     1      29.452   0.368  53.769  0.00  0.00    +0.000 A 
ATOM     16  C   UNL     1      28.110   0.741  53.662  0.00  0.00    +0.000 A 
ENDBRANCH  10  11
ENDBRANCH   9  10
ENDBRANCH   7   9
ENDBRANCH   1   3
BRANCH   1  17
ATOM     17  O   UNL     1      22.133   3.092  51.815  0.00  0.00    +0.000 OA
BRANCH  17  18
ATOM     18  C   UNL     1      22.342   4.367  52.456  0.00  0.00    +0.000 C 
BRANCH  18  19
ATOM     19  C   UNL     1      22.519   5.440  51.364  0.00  0.00    +0.000 C 
BRANCH  19  20
ATOM     20  O   UNL     1      21.924   6.688  51.757  0.00  0.00    +0.000 OA
ATOM     21  H   UNL     1      21.594   7.151  50.971  0.00  0.00    +0.000 HD
ENDBRANCH  19  20
BRANCH  19  22
ATOM     22  C   UNL     1      23.997   5.700  51.014  0.00  0.00    +0.000 C 
BRANCH  22  23
ATOM     23  N   UNL     1      24.848   4.538  51.281  0.00  0.00    +0.000 N 
ATOM     24  H   UNL     1      25.589   4.832  51.916  0.00  0.00    +0.000 HD
ATOM     25  H   UNL     1      24.230   3.825  51.666  0.00  0.00    +0.000 HD
BRANCH  23  27
ATOM     26  C   UNL     1      26.238   4.953  49.242  0.00  0.00    +0.000 C 
ATOM     27  C   UNL     1      25.483   3.924  50.099  0.00  0.00    +0.000 C 
ATOM     28  C   UNL     1      24.467   3.166  49.225  0.00  0.00    +0.000 C 
ATOM     29  C   UNL     1      26.503   2.907  50.651  0.00  0.00    +0.000 C 
ENDBRANCH  23  27
ENDBRANCH  22  23
ENDBRANCH  19  22
ENDBRANCH  18  19
ENDBRANCH  17  18
ENDBRANCH   1  17
TORSDOF 11
ENDMDL
MODEL 2
REMARK VINA RESULT:    -7.320      2.355      6.254
REMARK INTER + INTRA:         -13.299
REMARK INTER:                 -11.701
REMARK INTRA:                  -1.597
REMARK UNBOUND:                -1.486
REMARK  Name = 
REMARK  14 active torsions:
REMARK  status: ('A' for Active; 'I' for Inactive)
REMARK    1  A    between atoms: C_1  and  C_2
REMARK    2  A    between atoms: C_2  and  C_3
REMARK    3  A    between atoms: C_2  and  C_4
REMARK    4  A    between atoms: C_2  and  N_5
REMARK    5  A    between atoms: N_5  and  C_6
REMARK    6  A    between atoms: C_6  and  C_7
REMARK    7  A    between atoms: C_7  and  O_8
REMARK    8  A    between atoms: C_7  and  C_9
REMARK    9  A    between atoms: C_9  and  O_10
REMARK   10  A    between atoms: O_10  and  C_11
REMARK   11  A    between atoms: C_11  and  C_13
REMARK   12  A    between atoms: C_17  and  O_18
REMARK   13  A    between atoms: O_18  and  C_19
REMARK   14  A    between atoms: C_19  and  C_20
REMARK                            x       y       z     vdW  Elec       q    Type
REMARK                         _______ _______ _______ _____ _____    ______ ____
ROOT
ATOM      1  C   UNL     1      21.816   0.385  51.917  0.00  0.00    +0.000 C 
ATOM      2  O   UNL     1      20.644   0.039  51.902  0.00  0.00    +0.000 OA
ENDROOT
BRANCH   1   3
ATOM      3  C   UNL     1      22.439   1.189  50.834  0.00  0.00    +0.000 A 
ATOM      4  C   UNL     1      21.811   1.204  49.584  0.00  0.00    +0.000 A 
ATOM      5  C   UNL     1      22.219   2.120  48.611  0.00  0.00    +0.000 A 
ATOM      6  C   UNL     1      23.270   2.997  48.876  0.00  0.00    +0.000 A 
ATOM      7  C   UNL     1      23.964   2.915  50.084  0.00  0.00    +0.000 A 
ATOM      8  C   UNL     1      23.533   2.031  51.071  0.00  0.00    +0.000 A 
BRANCH   7   9
ATOM      9  O   UNL     1      25.055   3.674  50.419  0.00  0.00    +0.000 OA
BRANCH   9  10
ATOM     10  C   UNL     1      26.215   3.470  49.607  0.00  0.00    +0.000 C 
BRANCH  10  11
ATOM     11  C   UNL     1      26.748   4.779  49.069  0.00  0.00    +0.000 A 
ATOM     12  C   UNL     1      28.073   4.920  48.635  0.00  0.00    +0.000 A 
ATOM     13  C   UNL     1      28.505   6.113  48.049  0.00  0.00    +0.000 A 
ATOM     14  C   UNL     1      27.614   7.171  47.882  0.00  0.00    +0.000 A 
ATOM     15  C   UNL     1      26.293   7.043  48.302  0.00  0.00    +0.000 A 
ATOM     16  C   UNL     1      25.861   5.852  48.890  0.00  0.00    +0.000 A 
ENDBRANCH  10  11
ENDBRANCH   9  10
ENDBRANCH   7   9
ENDBRANCH   1   3
BRANCH   1  17
ATOM     17  O   UNL     1      22.660   0.274  52.972  0.00  0.00    +0.000 OA
BRANCH  17  18
ATOM     18  C   UNL     1      22.683  -1.026  53.596  0.00  0.00    +0.000 C 
BRANCH  18  19
ATOM     19  C   UNL     1      23.403  -0.904  54.953  0.00  0.00    +0.000 C 
BRANCH  19  20
ATOM     20  O   UNL     1      22.992  -1.943  55.858  0.00  0.00    +0.000 OA
ATOM     21  H   UNL     1      22.095  -2.235  55.629  0.00  0.00    +0.000 HD
ENDBRANCH  19  20
BRANCH  19  22
ATOM     22  C   UNL     1      24.938  -0.956  54.823  0.00  0.00    +0.000 C 
BRANCH  22  23
ATOM     23  N   UNL     1      25.390  -0.735  53.449  0.00  0.00    +0.000 N 
ATOM     24  H   UNL     1      25.794  -1.607  53.108  0.00  0.00    +0.000 HD
ATOM     25  H   UNL     1      24.567  -0.429  52.931  0.00  0.00    +0.000 HD
BRANCH  23  27
ATOM     26  C   UNL     1      25.965   1.655  53.915  0.00  0.00    +0.000 C 
ATOM     27  C   UNL     1      26.397   0.330  53.269  0.00  0.00    +0.000 C 
ATOM     28  C   UNL     1      26.734   0.561  51.785  0.00  0.00    +0.000 C 
ATOM     29  C   UNL     1      27.669  -0.170  53.983  0.00  0.00    +0.000 C 
ENDBRANCH  23  27
ENDBRANCH  22  23
ENDBRANCH  19  22
ENDBRANCH  18  19
ENDBRANCH  17  18
ENDBRANCH   1  17
TORSDOF 11
ENDMDL
MODEL 3
REMARK VINA RESULT:    -7.299      1.953      2.590
REMARK INTER + INTRA:         -13.265
REMARK INTER:                 -11.626
REMARK INTRA:                  -1.639
REMARK UNBOUND:                -1.486
REMARK  Name = 
REMARK  14 active torsions:
REMARK  status: ('A' for Active; 'I' for Inactive)
REMARK    1  A    between atoms: C_1  and  C_2
REMARK    2  A    between atoms: C_2  and  C_3
REMARK    3  A    between atoms: C_2  and  C_4
REMARK    4  A    between atoms: C_2  and  N_5
REMARK    5  A    between atoms: N_5  and  C_6
REMARK    6  A    between atoms: C_6  and  C_7
REMARK    7  A    between atoms: C_7  and  O_8
REMARK    8  A    between atoms: C_7  and  C_9
REMARK    9  A    between atoms: C_9  and  O_10
REMARK   10  A    between atoms: O_10  and  C_11
REMARK   11  A    between atoms: C_11  and  C_13
REMARK   12  A    between atoms: C_17  and  O_18
REMARK   13  A    between atoms: O_18  and  C_19
REMARK   14  A    between atoms: C_19  and  C_20
REMARK                            x       y       z     vdW  Elec       q    Type
REMARK                         _______ _______ _______ _____ _____    ______ ____
ROOT
ATOM      1  C   UNL     1      20.981   0.479  51.253  0.00  0.00    +0.000 C 
ATOM      2  O   UNL     1      19.792   0.402  50.981  0.00  0.00    +0.000 OA
ENDROOT
BRANCH   1   3
ATOM      3  C   UNL     1      21.550   0.019  52.545  0.00  0.00    +0.000 A 
ATOM      4  C   UNL     1      20.698  -0.637  53.440  0.00  0.00    +0.000 A 
ATOM      5  C   UNL     1      21.230  -1.290  54.555  0.00  0.00    +0.000 A 
ATOM      6  C   UNL     1      22.604  -1.263  54.789  0.00  0.00    +0.000 A 
ATOM      7  C   UNL     1      23.443  -0.524  53.955  0.00  0.00    +0.000 A 
ATOM      8  C   UNL     1      22.921   0.095  52.821  0.00  0.00    +0.000 A 
BRANCH   7   9
ATOM      9  O   UNL     1      24.793  -0.367  54.134  0.00  0.00    +0.000 OA
BRANCH   9  10
ATOM     10  C   UNL     1      25.578  -0.411  52.939  0.00  0.00    +0.000 C 
BRANCH  10  11
ATOM     11  C   UNL     1      27.042  -0.637  53.249  0.00  0.00    +0.000 A 
ATOM     12  C   UNL     1      27.692  -1.837  52.934  0.00  0.00    +0.000 A 
ATOM     13  C   UNL     1      29.067  -1.975  53.141  0.00  0.00    +0.000 A 
ATOM     14  C   UNL     1      29.806  -0.911  53.654  0.00  0.00    +0.000 A 
ATOM     15  C   UNL     1      29.174   0.290  53.966  0.00  0.00    +0.000 A 
ATOM     16  C   UNL     1      27.799   0.428  53.763  0.00  0.00    +0.000 A 
ENDBRANCH  10  11
ENDBRANCH   9  10
ENDBRANCH   7   9
ENDBRANCH   1   3
BRANCH   1  17
ATOM     17  O   UNL     1      21.971   0.795  50.382  0.00  0.00    +0.000 OA
BRANCH  17  18
ATOM     18  C   UNL     1      21.525   1.148  49.057  0.00  0.00    +0.000 C 
BRANCH  18  19
ATOM     19  C   UNL     1      22.474   2.222  48.491  0.00  0.00    +0.000 C 
BRANCH  19  20
ATOM     20  O   UNL     1      22.021   2.698  47.212  0.00  0.00    +0.000 OA
ATOM     21  H   UNL     1      22.699   2.518  46.542  0.00  0.00    +0.000 HD
ENDBRANCH  19  20
BRANCH  19  22
ATOM     22  C   UNL     1      22.632   3.435  49.429  0.00  0.00    +0.000 C 
BRANCH  22  23
ATOM     23  N   UNL     1      23.579   3.181  50.517  0.00  0.00    +0.000 N 
ATOM     24  H   UNL     1      23.551   2.184  50.730  0.00  0.00    +0.000 HD
ATOM     25  H   UNL     1      24.483   3.509  50.180  0.00  0.00    +0.000 HD
BRANCH  23  27
ATOM     26  C   UNL     1      24.161   3.378  52.942  0.00  0.00    +0.000 C 
ATOM     27  C   UNL     1      23.326   3.918  51.770  0.00  0.00    +0.000 C 
ATOM     28  C   UNL     1      21.835   3.917  52.151  0.00  0.00    +0.000 C 
ATOM     29  C   UNL     1      23.756   5.373  51.495  0.00  0.00    +0.000 C 
ENDBRANCH  23  27
ENDBRANCH  22  23
ENDBRANCH  19  22
ENDBRANCH  18  19
ENDBRANCH  17  18
ENDBRANCH   1  17
TORSDOF 11
ENDMDL
MODEL 4
REMARK VINA RESULT:    -6.983      2.206      3.504
REMARK INTER + INTRA:         -12.755
REMARK INTER:                 -11.455
REMARK INTRA:                  -1.300
REMARK UNBOUND:                -1.486
REMARK  Name = 
REMARK  14 active torsions:
REMARK  status: ('A' for Active; 'I' for Inactive)
REMARK    1  A    between atoms: C_1  and  C_2
REMARK    2  A    between atoms: C_2  and  C_3
REMARK    3  A    between atoms: C_2  and  C_4
REMARK    4  A    between atoms: C_2  and  N_5
REMARK    5  A    between atoms: N_5  and  C_6
REMARK    6  A    between atoms: C_6  and  C_7
REMARK    7  A    between atoms: C_7  and  O_8
REMARK    8  A    between atoms: C_7  and  C_9
REMARK    9  A    between atoms: C_9  and  O_10
REMARK   10  A    between atoms: O_10  and  C_11
REMARK   11  A    between atoms: C_11  and  C_13
REMARK   12  A    between atoms: C_17  and  O_18
REMARK   13  A    between atoms: O_18  and  C_19
REMARK   14  A    between atoms: C_19  and  C_20
REMARK                            x       y       z     vdW  Elec       q    Type
REMARK                         _______ _______ _______ _____ _____    ______ ____
ROOT
ATOM      1  C   UNL     1      22.661   3.537  50.327  0.00  0.00    +0.000 C 
ATOM      2  O   UNL     1      21.698   2.799  50.184  0.00  0.00    +0.000 OA
ENDROOT
BRANCH   1   3
ATOM      3  C   UNL     1      24.026   3.039  50.634  0.00  0.00    +0.000 A 
ATOM      4  C   UNL     1      25.039   3.283  49.700  0.00  0.00    +0.000 A 
ATOM      5  C   UNL     1      26.372   3.045  50.042  0.00  0.00    +0.000 A 
ATOM      6  C   UNL     1      26.690   2.539  51.302  0.00  0.00    +0.000 A 
ATOM      7  C   UNL     1      25.675   2.199  52.197  0.00  0.00    +0.000 A 
ATOM      8  C   UNL     1      24.347   2.473  51.874  0.00  0.00    +0.000 A 
BRANCH   7   9
ATOM      9  O   UNL     1      25.868   1.627  53.428  0.00  0.00    +0.000 OA
BRANCH   9  10
ATOM     10  C   UNL     1      25.691   0.209  53.477  0.00  0.00    +0.000 C 
BRANCH  10  11
ATOM     11  C   UNL     1      27.020  -0.514  53.464  0.00  0.00    +0.000 A 
ATOM     12  C   UNL     1      27.178  -1.770  52.863  0.00  0.00    +0.000 A 
ATOM     13  C   UNL     1      28.440  -2.363  52.779  0.00  0.00    +0.000 A 
ATOM     14  C   UNL     1      29.558  -1.702  53.283  0.00  0.00    +0.000 A 
ATOM     15  C   UNL     1      29.417  -0.450  53.877  0.00  0.00    +0.000 A 
ATOM     16  C   UNL     1      28.155   0.143  53.965  0.00  0.00    +0.000 A 
ENDBRANCH  10  11
ENDBRANCH   9  10
ENDBRANCH   7   9
ENDBRANCH   1   3
BRANCH   1  17
ATOM     17  O   UNL     1      22.691   4.862  50.043  0.00  0.00    +0.000 OA
BRANCH  17  18
ATOM     18  C   UNL     1      22.587   5.731  51.190  0.00  0.00    +0.000 C 
BRANCH  18  19
ATOM     19  C   UNL     1      23.689   6.804  51.091  0.00  0.00    +0.000 C 
BRANCH  19  20
ATOM     20  O   UNL     1      24.537   6.791  52.252  0.00  0.00    +0.000 OA
ATOM     21  H   UNL     1      24.690   5.874  52.529  0.00  0.00    +0.000 HD
ENDBRANCH  19  20
BRANCH  19  22
ATOM     22  C   UNL     1      24.578   6.636  49.843  0.00  0.00    +0.000 C 
BRANCH  22  23
ATOM     23  N   UNL     1      26.001   6.800  50.143  0.00  0.00    +0.000 N 
ATOM     24  H   UNL     1      26.087   7.495  50.885  0.00  0.00    +0.000 HD
ATOM     25  H   UNL     1      26.339   5.874  50.401  0.00  0.00    +0.000 HD
BRANCH  23  27
ATOM     26  C   UNL     1      27.702   6.091  48.450  0.00  0.00    +0.000 C 
ATOM     27  C   UNL     1      26.848   7.237  49.016  0.00  0.00    +0.000 C 
ATOM     28  C   UNL     1      27.755   8.420  49.398  0.00  0.00    +0.000 C 
ATOM     29  C   UNL     1      25.873   7.707  47.917  0.00  0.00    +0.000 C 
ENDBRANCH  23  27
ENDBRANCH  22  23
ENDBRANCH  19  22
ENDBRANCH  18  19
ENDBRANCH  17  18
ENDBRANCH   1  17
TORSDOF 11
ENDMDL
MODEL 5
REMARK VINA RESULT:    -6.871      1.702      2.265
REMARK INTER + INTRA:         -12.575
REMARK INTER:                 -10.976
REMARK INTRA:                  -1.598
REMARK UNBOUND:                -1.486
REMARK  Name = 
REMARK  14 active torsions:
REMARK  status: ('A' for Active; 'I' for Inactive)
REMARK    1  A    between atoms: C_1  and  C_2
REMARK    2  A    between atoms: C_2  and  C_3
REMARK    3  A    between atoms: C_2  and  C_4
REMARK    4  A    between atoms: C_2  and  N_5
REMARK    5  A    between atoms: N_5  and  C_6
REMARK    6  A    between atoms: C_6  and  C_7
REMARK    7  A    between atoms: C_7  and  O_8
REMARK    8  A    between atoms: C_7  and  C_9
REMARK    9  A    between atoms: C_9  and  O_10
REMARK   10  A    between atoms: O_10  and  C_11
REMARK   11  A    between atoms: C_11  and  C_13
REMARK   12  A    between atoms: C_17  and  O_18
REMARK   13  A    between atoms: O_18  and  C_19
REMARK   14  A    between atoms: C_19  and  C_20
REMARK                            x       y       z     vdW  Elec       q    Type
REMARK                         _______ _______ _______ _____ _____    ______ ____
ROOT
ATOM      1  C   UNL     1      21.978   2.396  51.944  0.00  0.00    +0.000 C 
ATOM      2  O   UNL     1      20.926   2.397  51.321  0.00  0.00    +0.000 OA
ENDROOT
BRANCH   1   3
ATOM      3  C   UNL     1      22.356   1.321  52.896  0.00  0.00    +0.000 A 
ATOM      4  C   UNL     1      21.353   0.782  53.709  0.00  0.00    +0.000 A 
ATOM      5  C   UNL     1      21.603  -0.379  54.444  0.00  0.00    +0.000 A 
ATOM      6  C   UNL     1      22.859  -0.981  54.392  0.00  0.00    +0.000 A 
ATOM      7  C   UNL     1      23.890  -0.389  53.663  0.00  0.00    +0.000 A 
ATOM      8  C   UNL     1      23.633   0.746  52.896  0.00  0.00    +0.000 A 
BRANCH   7   9
ATOM      9  O   UNL     1      25.179  -0.852  53.602  0.00  0.00    +0.000 OA
BRANCH   9  10
ATOM     10  C   UNL     1      25.969  -0.323  52.533  0.00  0.00    +0.000 C 
BRANCH  10  11
ATOM     11  C   UNL     1      27.206   0.376  53.055  0.00  0.00    +0.000 A 
ATOM     12  C   UNL     1      27.362   1.766  52.980  0.00  0.00    +0.000 A 
ATOM     13  C   UNL     1      28.469   2.388  53.562  0.00  0.00    +0.000 A 
ATOM     14  C   UNL     1      29.424   1.628  54.235  0.00  0.00    +0.000 A 
ATOM     15  C   UNL     1      29.278   0.247  54.324  0.00  0.00    +0.000 A 
ATOM     16  C   UNL     1      28.173  -0.377  53.739  0.00  0.00    +0.000 A 
ENDBRANCH  10  11
ENDBRANCH   9  10
ENDBRANCH   7   9
ENDBRANCH   1   3
BRANCH   1  17
ATOM     17  O   UNL     1      23.023   3.233  51.730  0.00  0.00    +0.000 OA
BRANCH  17  18
ATOM     18  C   UNL     1      23.039   4.409  52.563  0.00  0.00    +0.000 C 
BRANCH  18  19
ATOM     19  C   UNL     1      23.103   5.652  51.653  0.00  0.00    +0.000 C 
BRANCH  19  20
ATOM     20  O   UNL     1      24.222   6.489  51.991  0.00  0.00    +0.000 OA
ATOM     21  H   UNL     1      24.116   6.821  52.896  0.00  0.00    +0.000 HD
ENDBRANCH  19  20
BRANCH  19  22
ATOM     22  C   UNL     1      23.202   5.293  50.158  0.00  0.00    +0.000 C 
BRANCH  22  23
ATOM     23  N   UNL     1      21.918   4.865  49.599  0.00  0.00    +0.000 N 
ATOM     24  H   UNL     1      21.526   4.159  50.222  0.00  0.00    +0.000 HD
ATOM     25  H   UNL     1      21.354   5.710  49.520  0.00  0.00    +0.000 HD
BRANCH  23  27
ATOM     26  C   UNL     1      22.568   5.266  47.216  0.00  0.00    +0.000 C 
ATOM     27  C   UNL     1      21.971   4.289  48.241  0.00  0.00    +0.000 C 
ATOM     28  C   UNL     1      20.588   3.814  47.761  0.00  0.00    +0.000 C 
ATOM     29  C   UNL     1      22.898   3.061  48.341  0.00  0.00    +0.000 C 
ENDBRANCH  23  27
ENDBRANCH  22  23
ENDBRANCH  19  22
ENDBRANCH  18  19
ENDBRANCH  17  18
ENDBRANCH   1  17
TORSDOF 11
ENDMDL
MODEL 6
REMARK VINA RESULT:    -6.856      2.046      5.626
REMARK INTER + INTRA:         -12.551
REMARK INTER:                 -10.976
REMARK INTRA:                  -1.575
REMARK UNBOUND:                -1.486
REMARK  Name = 
REMARK  14 active torsions:
REMARK  status: ('A' for Active; 'I' for Inactive)
REMARK    1  A    between atoms: C_1  and  C_2
REMARK    2  A    between atoms: C_2  and  C_3
REMARK    3  A    between atoms: C_2  and  C_4
REMARK    4  A    between atoms: C_2  and  N_5
REMARK    5  A    between atoms: N_5  and  C_6
REMARK    6  A    between atoms: C_6  and  C_7
REMARK    7  A    between atoms: C_7  and  O_8
REMARK    8  A    between atoms: C_7  and  C_9
REMARK    9  A    between atoms: C_9  and  O_10
REMARK   10  A    between atoms: O_10  and  C_11
REMARK   11  A    between atoms: C_11  and  C_13
REMARK   12  A    between atoms: C_17  and  O_18
REMARK   13  A    between atoms: O_18  and  C_19
REMARK   14  A    between atoms: C_19  and  C_20
REMARK                            x       y       z     vdW  Elec       q    Type
REMARK                         _______ _______ _______ _____ _____    ______ ____
ROOT
ATOM      1  C   UNL     1      23.757   4.495  49.383  0.00  0.00    +0.000 C 
ATOM      2  O   UNL     1      23.945   5.329  48.510  0.00  0.00    +0.000 OA
ENDROOT
BRANCH   1   3
ATOM      3  C   UNL     1      22.750   3.410  49.265  0.00  0.00    +0.000 A 
ATOM      4  C   UNL     1      22.787   2.601  48.124  0.00  0.00    +0.000 A 
ATOM      5  C   UNL     1      22.023   1.433  48.074  0.00  0.00    +0.000 A 
ATOM      6  C   UNL     1      21.204   1.089  49.148  0.00  0.00    +0.000 A 
ATOM      7  C   UNL     1      21.087   1.945  50.244  0.00  0.00    +0.000 A 
ATOM      8  C   UNL     1      21.878   3.090  50.314  0.00  0.00    +0.000 A 
BRANCH   7   9
ATOM      9  O   UNL     1      20.258   1.744  51.316  0.00  0.00    +0.000 OA
BRANCH   9  10
ATOM     10  C   UNL     1      20.807   2.097  52.589  0.00  0.00    +0.000 C 
BRANCH  10  11
ATOM     11  C   UNL     1      21.528   0.927  53.222  0.00  0.00    +0.000 A 
ATOM     12  C   UNL     1      22.816   0.546  52.826  0.00  0.00    +0.000 A 
ATOM     13  C   UNL     1      23.493  -0.474  53.500  0.00  0.00    +0.000 A 
ATOM     14  C   UNL     1      22.893  -1.114  54.582  0.00  0.00    +0.000 A 
ATOM     15  C   UNL     1      21.615  -0.742  54.990  0.00  0.00    +0.000 A 
ATOM     16  C   UNL     1      20.936   0.276  54.316  0.00  0.00    +0.000 A 
ENDBRANCH  10  11
ENDBRANCH   9  10
ENDBRANCH   7   9
ENDBRANCH   1   3
BRANCH   1  17
ATOM     17  O   UNL     1      24.539   4.303  50.473  0.00  0.00    +0.000 OA
BRANCH  17  18
ATOM     18  C   UNL     1      25.728   3.521  50.237  0.00  0.00    +0.000 C 
BRANCH  18  19
ATOM     19  C   UNL     1      26.253   3.008  51.592  0.00  0.00    +0.000 C 
BRANCH  19  20
ATOM     20  O   UNL     1      25.229   3.051  52.599  0.00  0.00    +0.000 OA
ATOM     21  H   UNL     1      25.551   3.549  53.367  0.00  0.00    +0.000 HD
ENDBRANCH  19  20
BRANCH  19  22
ATOM     22  C   UNL     1      26.796   1.568  51.516  0.00  0.00    +0.000 C 
BRANCH  22  23
ATOM     23  N   UNL     1      27.852   1.316  52.500  0.00  0.00    +0.000 N 
ATOM     24  H   UNL     1      28.738   1.255  52.000  0.00  0.00    +0.000 HD
ATOM     25  H   UNL     1      27.802   2.087  53.164  0.00  0.00    +0.000 HD
BRANCH  23  27
ATOM     26  C   UNL     1      26.932   0.332  54.609  0.00  0.00    +0.000 C 
ATOM     27  C   UNL     1      27.700   0.085  53.301  0.00  0.00    +0.000 C 
ATOM     28  C   UNL     1      29.056  -0.573  53.611  0.00  0.00    +0.000 C 
ATOM     29  C   UNL     1      26.878  -0.885  52.428  0.00  0.00    +0.000 C 
ENDBRANCH  23  27
ENDBRANCH  22  23
ENDBRANCH  19  22
ENDBRANCH  18  19
ENDBRANCH  17  18
ENDBRANCH   1  17
TORSDOF 11
ENDMDL
MODEL 7
REMARK VINA RESULT:    -6.817      1.473      2.207
REMARK INTER + INTRA:         -12.487
REMARK INTER:                 -11.349
REMARK INTRA:                  -1.138
REMARK UNBOUND:                -1.486
REMARK  Name = 
REMARK  14 active torsions:
REMARK  status: ('A' for Active; 'I' for Inactive)
REMARK    1  A    between atoms: C_1  and  C_2
REMARK    2  A    between atoms: C_2  and  C_3
REMARK    3  A    between atoms: C_2  and  C_4
REMARK    4  A    between atoms: C_2  and  N_5
REMARK    5  A    between atoms: N_5  and  C_6
REMARK    6  A    between atoms: C_6  and  C_7
REMARK    7  A    between atoms: C_7  and  O_8
REMARK    8  A    between atoms: C_7  and  C_9
REMARK    9  A    between atoms: C_9  and  O_10
REMARK   10  A    between atoms: O_10  and  C_11
REMARK   11  A    between atoms: C_11  and  C_13
REMARK   12  A    between atoms: C_17  and  O_18
REMARK   13  A    between atoms: O_18  and  C_19
REMARK   14  A    between atoms: C_19  and  C_20
REMARK                            x       y       z     vdW  Elec       q    Type
REMARK                         _______ _______ _______ _____ _____    ______ ____
ROOT
ATOM      1  C   UNL     1      21.931   3.027  52.081  0.00  0.00    +0.000 C 
ATOM      2  O   UNL     1      20.922   3.698  52.242  0.00  0.00    +0.000 OA
ENDROOT
BRANCH   1   3
ATOM      3  C   UNL     1      22.095   1.662  52.642  0.00  0.00    +0.000 A 
ATOM      4  C   UNL     1      21.008   0.785  52.564  0.00  0.00    +0.000 A 
ATOM      5  C   UNL     1      21.184  -0.569  52.860  0.00  0.00    +0.000 A 
ATOM      6  C   UNL     1      22.434  -1.039  53.260  0.00  0.00    +0.000 A 
ATOM      7  C   UNL     1      23.494  -0.149  53.437  0.00  0.00    +0.000 A 
ATOM      8  C   UNL     1      23.333   1.195  53.104  0.00  0.00    +0.000 A 
BRANCH   7   9
ATOM      9  O   UNL     1      24.740  -0.488  53.897  0.00  0.00    +0.000 OA
BRANCH   9  10
ATOM     10  C   UNL     1      25.752  -0.604  52.892  0.00  0.00    +0.000 C 
BRANCH  10  11
ATOM     11  C   UNL     1      26.962   0.240  53.230  0.00  0.00    +0.000 A 
ATOM     12  C   UNL     1      27.035   1.600  52.903  0.00  0.00    +0.000 A 
ATOM     13  C   UNL     1      28.122   2.373  53.319  0.00  0.00    +0.000 A 
ATOM     14  C   UNL     1      29.141   1.796  54.075  0.00  0.00    +0.000 A 
ATOM     15  C   UNL     1      29.079   0.447  54.413  0.00  0.00    +0.000 A 
ATOM     16  C   UNL     1      27.994  -0.328  53.995  0.00  0.00    +0.000 A 
ENDBRANCH  10  11
ENDBRANCH   9  10
ENDBRANCH   7   9
ENDBRANCH   1   3
BRANCH   1  17
ATOM     17  O   UNL     1      22.945   3.319  51.231  0.00  0.00    +0.000 OA
BRANCH  17  18
ATOM     18  C   UNL     1      23.800   4.400  51.654  0.00  0.00    +0.000 C 
BRANCH  18  19
ATOM     19  C   UNL     1      23.320   5.698  50.975  0.00  0.00    +0.000 C 
BRANCH  19  20
ATOM     20  O   UNL     1      22.317   6.360  51.764  0.00  0.00    +0.000 OA
ATOM     21  H   UNL     1      21.475   5.884  51.681  0.00  0.00    +0.000 HD
ENDBRANCH  19  20
BRANCH  19  22
ATOM     22  C   UNL     1      24.465   6.695  50.714  0.00  0.00    +0.000 C 
BRANCH  22  23
ATOM     23  N   UNL     1      25.706   6.030  50.311  0.00  0.00    +0.000 N 
ATOM     24  H   UNL     1      26.351   6.067  51.100  0.00  0.00    +0.000 HD
ATOM     25  H   UNL     1      25.438   5.085  50.038  0.00  0.00    +0.000 HD
BRANCH  23  27
ATOM     26  C   UNL     1      27.441   5.654  48.548  0.00  0.00    +0.000 C 
ATOM     27  C   UNL     1      26.392   6.608  49.139  0.00  0.00    +0.000 C 
ATOM     28  C   UNL     1      27.046   7.964  49.462  0.00  0.00    +0.000 C 
ATOM     29  C   UNL     1      25.293   6.840  48.082  0.00  0.00    +0.000 C 
ENDBRANCH  23  27
ENDBRANCH  22  23
ENDBRANCH  19  22
ENDBRANCH  18  19
ENDBRANCH  17  18
ENDBRANCH   1  17
TORSDOF 11
ENDMDL
MODEL 8
REMARK VINA RESULT:    -6.813      1.856      2.677
REMARK INTER + INTRA:         -12.481
REMARK INTER:                 -10.895
REMARK INTRA:                  -1.586
REMARK UNBOUND:                -1.486
REMARK  Name = 
REMARK  14 active torsions:
REMARK  status: ('A' for Active; 'I' for Inactive)
REMARK    1  A    between atoms: C_1  and  C_2
REMARK    2  A    between atoms: C_2  and  C_3
REMARK    3  A    between atoms: C_2  and  C_4
REMARK    4  A    between atoms: C_2  and  N_5
REMARK    5  A    between atoms: N_5  and  C_6
REMARK    6  A    between atoms: C_6  and  C_7
REMARK    7  A    between atoms: C_7  and  O_8
REMARK    8  A    between atoms: C_7  and  C_9
REMARK    9  A    between atoms: C_9  and  O_10
REMARK   10  A    between atoms: O_10  and  C_11
REMARK   11  A    between atoms: C_11  and  C_13
REMARK   12  A    between atoms: C_17  and  O_18
REMARK   13  A    between atoms: O_18  and  C_19
REMARK   14  A    between atoms: C_19  and  C_20
REMARK                            x       y       z     vdW  Elec       q    Type
REMARK                         _______ _______ _______ _____ _____    ______ ____
ROOT
ATOM      1  C   UNL     1      20.856   2.119  52.456  0.00  0.00    +0.000 C 
ATOM      2  O   UNL     1      21.189   3.295  52.460  0.00  0.00    +0.000 OA
ENDROOT
BRANCH   1   3
ATOM      3  C   UNL     1      21.571   1.071  53.227  0.00  0.00    +0.000 A 
ATOM      4  C   UNL     1      20.851   0.360  54.193  0.00  0.00    +0.000 A 
ATOM      5  C   UNL     1      21.407  -0.782  54.774  0.00  0.00    +0.000 A 
ATOM      6  C   UNL     1      22.688  -1.196  54.412  0.00  0.00    +0.000 A 
ATOM      7  C   UNL     1      23.447  -0.432  53.525  0.00  0.00    +0.000 A 
ATOM      8  C   UNL     1      22.881   0.684  52.914  0.00  0.00    +0.000 A 
BRANCH   7   9
ATOM      9  O   UNL     1      24.740  -0.703  53.159  0.00  0.00    +0.000 OA
BRANCH   9  10
ATOM     10  C   UNL     1      25.493   0.421  52.696  0.00  0.00    +0.000 C 
BRANCH  10  11
ATOM     11  C   UNL     1      26.967   0.259  52.996  0.00  0.00    +0.000 A 
ATOM     12  C   UNL     1      27.756   1.324  53.450  0.00  0.00    +0.000 A 
ATOM     13  C   UNL     1      29.088   1.115  53.815  0.00  0.00    +0.000 A 
ATOM     14  C   UNL     1      29.642  -0.161  53.739  0.00  0.00    +0.000 A 
ATOM     15  C   UNL     1      28.868  -1.230  53.296  0.00  0.00    +0.000 A 
ATOM     16  C   UNL     1      27.536  -1.023  52.928  0.00  0.00    +0.000 A 
ENDBRANCH  10  11
ENDBRANCH   9  10
ENDBRANCH   7   9
ENDBRANCH   1   3
BRANCH   1  17
ATOM     17  O   UNL     1      19.706   1.626  51.934  0.00  0.00    +0.000 OA
BRANCH  17  18
ATOM     18  C   UNL     1      19.751   1.349  50.520  0.00  0.00    +0.000 C 
BRANCH  18  19
ATOM     19  C   UNL     1      19.074   2.513  49.771  0.00  0.00    +0.000 C 
BRANCH  19  20
ATOM     20  O   UNL     1      18.589   3.511  50.686  0.00  0.00    +0.000 OA
ATOM     21  H   UNL     1      17.790   3.183  51.129  0.00  0.00    +0.000 HD
ENDBRANCH  19  20
BRANCH  19  22
ATOM     22  C   UNL     1      20.011   3.201  48.760  0.00  0.00    +0.000 C 
BRANCH  22  23
ATOM     23  N   UNL     1      21.201   3.770  49.397  0.00  0.00    +0.000 N 
ATOM     24  H   UNL     1      21.080   4.782  49.438  0.00  0.00    +0.000 HD
ATOM     25  H   UNL     1      21.267   3.323  50.310  0.00  0.00    +0.000 HD
BRANCH  23  27
ATOM     26  C   UNL     1      23.128   4.769  48.152  0.00  0.00    +0.000 C 
ATOM     27  C   UNL     1      22.483   3.495  48.721  0.00  0.00    +0.000 C 
ATOM     28  C   UNL     1      22.335   2.445  47.605  0.00  0.00    +0.000 C 
ATOM     29  C   UNL     1      23.415   2.920  49.806  0.00  0.00    +0.000 C 
ENDBRANCH  23  27
ENDBRANCH  22  23
ENDBRANCH  19  22
ENDBRANCH  18  19
ENDBRANCH  17  18
ENDBRANCH   1  17
TORSDOF 11
ENDMDL
MODEL 9
REMARK VINA RESULT:    -6.799      2.131      4.861
REMARK INTER + INTRA:         -12.459
REMARK INTER:                 -10.737
REMARK INTRA:                  -1.722
REMARK UNBOUND:                -1.486
REMARK  Name = 
REMARK  14 active torsions:
REMARK  status: ('A' for Active; 'I' for Inactive)
REMARK    1  A    between atoms: C_1  and  C_2
REMARK    2  A    between atoms: C_2  and  C_3
REMARK    3  A    between atoms: C_2  and  C_4
REMARK    4  A    between atoms: C_2  and  N_5
REMARK    5  A    between atoms: N_5  and  C_6
REMARK    6  A    between atoms: C_6  and  C_7
REMARK    7  A    between atoms: C_7  and  O_8
REMARK    8  A    between atoms: C_7  and  C_9
REMARK    9  A    between atoms: C_9  and  O_10
REMARK   10  A    between atoms: O_10  and  C_11
REMARK   11  A    between atoms: C_11  and  C_13
REMARK   12  A    between atoms: C_17  and  O_18
REMARK   13  A    between atoms: O_18  and  C_19
REMARK   14  A    between atoms: C_19  and  C_20
REMARK                            x       y       z     vdW  Elec       q    Type
REMARK                         _______ _______ _______ _____ _____    ______ ____
ROOT
ATOM      1  C   UNL     1      22.196   2.379  49.547  0.00  0.00    +0.000 C 
ATOM      2  O   UNL     1      22.038   1.197  49.278  0.00  0.00    +0.000 OA
ENDROOT
BRANCH   1   3
ATOM      3  C   UNL     1      23.524   3.043  49.535  0.00  0.00    +0.000 A 
ATOM      4  C   UNL     1      23.631   4.287  48.904  0.00  0.00    +0.000 A 
ATOM      5  C   UNL     1      24.787   5.053  49.067  0.00  0.00    +0.000 A 
ATOM      6  C   UNL     1      25.845   4.565  49.834  0.00  0.00    +0.000 A 
ATOM      7  C   UNL     1      25.782   3.283  50.380  0.00  0.00    +0.000 A 
ATOM      8  C   UNL     1      24.614   2.533  50.253  0.00  0.00    +0.000 A 
BRANCH   7   9
ATOM      9  O   UNL     1      26.789   2.676  51.084  0.00  0.00    +0.000 OA
BRANCH   9  10
ATOM     10  C   UNL     1      26.442   2.252  52.406  0.00  0.00    +0.000 C 
BRANCH  10  11
ATOM     11  C   UNL     1      27.095   0.931  52.750  0.00  0.00    +0.000 A 
ATOM     12  C   UNL     1      26.510  -0.297  52.415  0.00  0.00    +0.000 A 
ATOM     13  C   UNL     1      27.186  -1.495  52.657  0.00  0.00    +0.000 A 
ATOM     14  C   UNL     1      28.459  -1.476  53.225  0.00  0.00    +0.000 A 
ATOM     15  C   UNL     1      29.055  -0.263  53.557  0.00  0.00    +0.000 A 
ATOM     16  C   UNL     1      28.378   0.936  53.319  0.00  0.00    +0.000 A 
ENDBRANCH  10  11
ENDBRANCH   9  10
ENDBRANCH   7   9
ENDBRANCH   1   3
BRANCH   1  17
ATOM     17  O   UNL     1      21.207   3.294  49.697  0.00  0.00    +0.000 OA
BRANCH  17  18
ATOM     18  C   UNL     1      19.934   2.751  50.101  0.00  0.00    +0.000 C 
BRANCH  18  19
ATOM     19  C   UNL     1      19.903   2.673  51.640  0.00  0.00    +0.000 C 
BRANCH  19  20
ATOM     20  O   UNL     1      18.863   3.502  52.185  0.00  0.00    +0.000 OA
ATOM     21  H   UNL     1      18.204   2.945  52.628  0.00  0.00    +0.000 HD
ENDBRANCH  19  20
BRANCH  19  22
ATOM     22  C   UNL     1      19.698   1.237  52.162  0.00  0.00    +0.000 C 
BRANCH  22  23
ATOM     23  N   UNL     1      20.888   0.402  51.984  0.00  0.00    +0.000 N 
ATOM     24  H   UNL     1      20.588  -0.492  51.596  0.00  0.00    +0.000 HD
ATOM     25  H   UNL     1      21.510   0.932  51.374  0.00  0.00    +0.000 HD
BRANCH  23  27
ATOM     26  C   UNL     1      22.197  -1.316  53.247  0.00  0.00    +0.000 C 
ATOM     27  C   UNL     1      21.666   0.125  53.207  0.00  0.00    +0.000 C 
ATOM     28  C   UNL     1      20.856   0.415  54.484  0.00  0.00    +0.000 C 
ATOM     29  C   UNL     1      22.869   1.088  53.167  0.00  0.00    +0.000 C 
ENDBRANCH  23  27
ENDBRANCH  22  23
ENDBRANCH  19  22
ENDBRANCH  18  19
ENDBRANCH  17  18
ENDBRANCH   1  17
TORSDOF 11
ENDMDL
