MODEL 1
REMARK VINA RESULT:    -8.449      0.000      0.000
REMARK INTER + INTRA:          -9.124
REMARK INTER:                  -8.943
REMARK INTRA:                  -0.181
REMARK UNBOUND:                -0.181
REMARK  Name = 
REMARK  1 active torsions:
REMARK  status: ('A' for Active; 'I' for Inactive)
REMARK    1  A    between atoms: C_13  and  C_14
REMARK                            x       y       z     vdW  Elec       q    Type
REMARK                         _______ _______ _______ _____ _____    ______ ____
ROOT
ATOM      1  N   UNL     1      26.860  -0.205  54.328  0.00  0.00    +0.000 N 
ATOM      2  C   UNL     1      25.530  -0.112  54.010  0.00  0.00    +0.000 A 
ATOM      3  N   UNL     1      24.634  -0.847  54.612  0.00  0.00    +0.000 NA
ATOM      4  C   UNL     1      23.269  -0.734  54.237  0.00  0.00    +0.000 A 
ATOM      5  C   UNL     1      22.337  -1.575  54.846  0.00  0.00    +0.000 A 
ATOM      6  C   UNL     1      20.989  -1.515  54.483  0.00  0.00    +0.000 A 
ATOM      7  C   UNL     1      20.566  -0.605  53.510  0.00  0.00    +0.000 A 
ATOM      8 CL   UNL     1      18.907  -0.554  53.062  0.00  0.00    +0.000 Cl
ATOM      9  C   UNL     1      21.476   0.251  52.894  0.00  0.00    +0.000 A 
ATOM     10  C   UNL     1      22.823   0.184  53.256  0.00  0.00    +0.000 A 
ATOM     11  C   UNL     1      23.841   1.009  52.642  0.00  0.00    +0.000 A 
ATOM     12  N   UNL     1      23.794   1.961  51.734  0.00  0.00    +0.000 NA
ATOM     13  C   UNL     1      25.128   2.291  51.567  0.00  0.00    +0.000 A 
ATOM     14  N   UNL     1      25.982   1.623  52.358  0.00  0.00    +0.000 NA
ATOM     15  N   UNL     1      25.136   0.810  53.021  0.00  0.00    +0.000 N 
ATOM     16  H   UNL     1      27.158  -0.843  55.016  0.00  0.00    +0.000 HD
ATOM     17  H   UNL     1      27.518   0.367  53.869  0.00  0.00    +0.000 HD
ENDROOT
BRANCH  13  18
ATOM     18  C   UNL     1      25.589   3.293  50.560  0.00  0.00    +0.000 A 
ATOM     19  C   UNL     1      26.788   3.261  49.874  0.00  0.00    +0.000 A 
ATOM     20  C   UNL     1      26.826   4.421  49.061  0.00  0.00    +0.000 A 
ATOM     21  C   UNL     1      25.652   5.094  49.303  0.00  0.00    +0.000 A 
ATOM     22 BR   UNL     1      25.171   6.727  48.541  0.00  0.00    +0.000 Br
ATOM     23  O   UNL     1      24.885   4.408  50.191  0.00  0.00    +0.000 OA
ENDBRANCH  13  18
TORSDOF 1
ENDMDL
MODEL 2
REMARK VINA RESULT:    -8.290      3.827      4.835
REMARK INTER + INTRA:          -8.956
REMARK INTER:                  -8.779
REMARK INTRA:                  -0.177
REMARK UNBOUND:                -0.181
REMARK  Name = 
REMARK  1 active torsions:
REMARK  status: ('A' for Active; 'I' for Inactive)
REMARK    1  A    between atoms: C_13  and  C_14
REMARK                            x       y       z     vdW  Elec       q    Type
REMARK                         _______ _______ _______ _____ _____    ______ ____
ROOT
ATOM      1  N   UNL     1      21.577  -1.592  55.143  0.00  0.00    +0.000 N 
ATOM      2  C   UNL     1      21.517  -0.865  53.982  0.00  0.00    +0.000 A 
ATOM      3  N   UNL     1      20.389  -0.691  53.347  0.00  0.00    +0.000 NA
ATOM      4  C   UNL     1      20.376   0.052  52.137  0.00  0.00    +0.000 A 
ATOM      5  C   UNL     1      19.173   0.171  51.440  0.00  0.00    +0.000 A 
ATOM      6  C   UNL     1      19.125   0.869  50.230  0.00  0.00    +0.000 A 
ATOM      7  C   UNL     1      20.282   1.458  49.714  0.00  0.00    +0.000 A 
ATOM      8 CL   UNL     1      20.211   2.299  48.217  0.00  0.00    +0.000 Cl
ATOM      9  C   UNL     1      21.493   1.361  50.397  0.00  0.00    +0.000 A 
ATOM     10  C   UNL     1      21.539   0.658  51.603  0.00  0.00    +0.000 A 
ATOM     11  C   UNL     1      22.759   0.476  52.358  0.00  0.00    +0.000 A 
ATOM     12  N   UNL     1      23.993   0.902  52.182  0.00  0.00    +0.000 NA
ATOM     13  C   UNL     1      24.671   0.322  53.240  0.00  0.00    +0.000 A 
ATOM     14  N   UNL     1      23.908  -0.398  54.078  0.00  0.00    +0.000 NA
ATOM     15  N   UNL     1      22.703  -0.289  53.485  0.00  0.00    +0.000 N 
ATOM     16  H   UNL     1      20.761  -2.004  55.508  0.00  0.00    +0.000 HD
ATOM     17  H   UNL     1      22.436  -1.702  55.612  0.00  0.00    +0.000 HD
ENDROOT
BRANCH  13  18
ATOM     18  C   UNL     1      26.147   0.459  53.421  0.00  0.00    +0.000 A 
ATOM     19  C   UNL     1      26.844   1.647  53.532  0.00  0.00    +0.000 A 
ATOM     20  C   UNL     1      28.215   1.309  53.645  0.00  0.00    +0.000 A 
ATOM     21  C   UNL     1      28.274  -0.064  53.589  0.00  0.00    +0.000 A 
ATOM     22 BR   UNL     1      29.840  -1.077  53.643  0.00  0.00    +0.000 Br
ATOM     23  O   UNL     1      27.026  -0.589  53.478  0.00  0.00    +0.000 OA
ENDBRANCH  13  18
TORSDOF 1
ENDMDL
MODEL 3
REMARK VINA RESULT:    -8.079      3.923      6.350
REMARK INTER + INTRA:          -8.733
REMARK INTER:                  -8.548
REMARK INTRA:                  -0.186
REMARK UNBOUND:                -0.181
REMARK  Name = 
REMARK  1 active torsions:
REMARK  status: ('A' for Active; 'I' for Inactive)
REMARK    1  A    between atoms: C_13  and  C_14
REMARK                            x       y       z     vdW  Elec       q    Type
REMARK                         _______ _______ _______ _____ _____    ______ ____
ROOT
ATOM      1  N   UNL     1      23.462  -1.864  55.941  0.00  0.00    +0.000 N 
ATOM      2  C   UNL     1      23.861  -1.040  54.920  0.00  0.00    +0.000 A 
ATOM      3  N   UNL     1      25.102  -0.648  54.808  0.00  0.00    +0.000 NA
ATOM      4  C   UNL     1      25.467   0.221  53.746  0.00  0.00    +0.000 A 
ATOM      5  C   UNL     1      26.783   0.680  53.683  0.00  0.00    +0.000 A 
ATOM      6  C   UNL     1      27.175   1.560  52.671  0.00  0.00    +0.000 A 
ATOM      7  C   UNL     1      26.251   1.981  51.712  0.00  0.00    +0.000 A 
ATOM      8 CL   UNL     1      26.743   3.077  50.482  0.00  0.00    +0.000 Cl
ATOM      9  C   UNL     1      24.933   1.529  51.748  0.00  0.00    +0.000 A 
ATOM     10  C   UNL     1      24.543   0.654  52.765  0.00  0.00    +0.000 A 
ATOM     11  C   UNL     1      23.189   0.164  52.900  0.00  0.00    +0.000 A 
ATOM     12  N   UNL     1      22.099   0.334  52.181  0.00  0.00    +0.000 NA
ATOM     13  C   UNL     1      21.147  -0.368  52.899  0.00  0.00    +0.000 A 
ATOM     14  N   UNL     1      21.606  -0.995  53.993  0.00  0.00    +0.000 NA
ATOM     15  N   UNL     1      22.904  -0.629  53.972  0.00  0.00    +0.000 N 
ATOM     16  H   UNL     1      24.114  -2.163  56.615  0.00  0.00    +0.000 HD
ATOM     17  H   UNL     1      22.523  -2.156  56.000  0.00  0.00    +0.000 HD
ENDROOT
BRANCH  13  18
ATOM     18  C   UNL     1      19.707  -0.401  52.505  0.00  0.00    +0.000 A 
ATOM     19  C   UNL     1      18.677  -0.962  53.237  0.00  0.00    +0.000 A 
ATOM     20  C   UNL     1      17.496  -0.805  52.471  0.00  0.00    +0.000 A 
ATOM     21  C   UNL     1      17.875  -0.164  51.315  0.00  0.00    +0.000 A 
ATOM     22 BR   UNL     1      16.736   0.268  49.902  0.00  0.00    +0.000 Br
ATOM     23  O   UNL     1      19.206   0.107  51.336  0.00  0.00    +0.000 OA
ENDBRANCH  13  18
TORSDOF 1
ENDMDL
MODEL 4
REMARK VINA RESULT:    -7.983      2.021      2.945
REMARK INTER + INTRA:          -8.631
REMARK INTER:                  -8.446
REMARK INTRA:                  -0.185
REMARK UNBOUND:                -0.181
REMARK  Name = 
REMARK  1 active torsions:
REMARK  status: ('A' for Active; 'I' for Inactive)
REMARK    1  A    between atoms: C_13  and  C_14
REMARK                            x       y       z     vdW  Elec       q    Type
REMARK                         _______ _______ _______ _____ _____    ______ ____
ROOT
ATOM      1  N   UNL     1      23.019  -1.428  55.479  0.00  0.00    +0.000 N 
ATOM      2  C   UNL     1      22.077  -1.051  54.557  0.00  0.00    +0.000 A 
ATOM      3  N   UNL     1      20.846  -1.482  54.628  0.00  0.00    +0.000 NA
ATOM      4  C   UNL     1      19.907  -1.082  53.640  0.00  0.00    +0.000 A 
ATOM      5  C   UNL     1      18.615  -1.606  53.696  0.00  0.00    +0.000 A 
ATOM      6  C   UNL     1      17.671  -1.261  52.725  0.00  0.00    +0.000 A 
ATOM      7  C   UNL     1      18.016  -0.383  51.694  0.00  0.00    +0.000 A 
ATOM      8 CL   UNL     1      16.849   0.019  50.497  0.00  0.00    +0.000 Cl
ATOM      9  C   UNL     1      19.297   0.160  51.622  0.00  0.00    +0.000 A 
ATOM     10  C   UNL     1      20.239  -0.192  52.591  0.00  0.00    +0.000 A 
ATOM     11  C   UNL     1      21.601   0.295  52.572  0.00  0.00    +0.000 A 
ATOM     12  N   UNL     1      22.243   1.130  51.781  0.00  0.00    +0.000 NA
ATOM     13  C   UNL     1      23.529   1.109  52.293  0.00  0.00    +0.000 A 
ATOM     14  N   UNL     1      23.696   0.342  53.381  0.00  0.00    +0.000 NA
ATOM     15  N   UNL     1      22.457  -0.169  53.527  0.00  0.00    +0.000 N 
ATOM     16  H   UNL     1      22.775  -2.043  56.208  0.00  0.00    +0.000 HD
ATOM     17  H   UNL     1      23.938  -1.083  55.414  0.00  0.00    +0.000 HD
ENDROOT
BRANCH  13  18
ATOM     18  C   UNL     1      24.656   1.860  51.664  0.00  0.00    +0.000 A 
ATOM     19  C   UNL     1      26.002   1.651  51.901  0.00  0.00    +0.000 A 
ATOM     20  C   UNL     1      26.707   2.609  51.130  0.00  0.00    +0.000 A 
ATOM     21  C   UNL     1      25.751   3.349  50.475  0.00  0.00    +0.000 A 
ATOM     22 BR   UNL     1      26.095   4.793  49.346  0.00  0.00    +0.000 Br
ATOM     23  O   UNL     1      24.508   2.889  50.772  0.00  0.00    +0.000 OA
ENDBRANCH  13  18
TORSDOF 1
ENDMDL
MODEL 5
REMARK VINA RESULT:    -7.871      3.683      4.926
REMARK INTER + INTRA:          -8.512
REMARK INTER:                  -8.327
REMARK INTRA:                  -0.185
REMARK UNBOUND:                -0.181
REMARK  Name = 
REMARK  1 active torsions:
REMARK  status: ('A' for Active; 'I' for Inactive)
REMARK    1  A    between atoms: C_13  and  C_14
REMARK                            x       y       z     vdW  Elec       q    Type
REMARK                         _______ _______ _______ _____ _____    ______ ____
ROOT
ATOM      1  N   UNL     1      23.859   5.294  52.834  0.00  0.00    +0.000 N 
ATOM      2  C   UNL     1      23.012   4.261  52.524  0.00  0.00    +0.000 A 
ATOM      3  N   UNL     1      21.748   4.472  52.270  0.00  0.00    +0.000 NA
ATOM      4  C   UNL     1      20.902   3.371  51.973  0.00  0.00    +0.000 A 
ATOM      5  C   UNL     1      19.542   3.611  51.769  0.00  0.00    +0.000 A 
ATOM      6  C   UNL     1      18.671   2.550  51.504  0.00  0.00    +0.000 A 
ATOM      7  C   UNL     1      19.160   1.243  51.435  0.00  0.00    +0.000 A 
ATOM      8 CL   UNL     1      18.074  -0.053  51.125  0.00  0.00    +0.000 Cl
ATOM      9  C   UNL     1      20.515   0.980  51.626  0.00  0.00    +0.000 A 
ATOM     10  C   UNL     1      21.381   2.041  51.897  0.00  0.00    +0.000 A 
ATOM     11  C   UNL     1      22.794   1.856  52.144  0.00  0.00    +0.000 A 
ATOM     12  N   UNL     1      23.573   0.794  52.136  0.00  0.00    +0.000 NA
ATOM     13  C   UNL     1      24.801   1.312  52.508  0.00  0.00    +0.000 A 
ATOM     14  N   UNL     1      24.824   2.640  52.697  0.00  0.00    +0.000 NA
ATOM     15  N   UNL     1      23.534   2.954  52.468  0.00  0.00    +0.000 N 
ATOM     16  H   UNL     1      23.516   6.215  52.879  0.00  0.00    +0.000 HD
ATOM     17  H   UNL     1      24.811   5.114  53.012  0.00  0.00    +0.000 HD
ENDROOT
BRANCH  13  18
ATOM     18  C   UNL     1      26.006   0.454  52.714  0.00  0.00    +0.000 A 
ATOM     19  C   UNL     1      26.037  -0.927  52.665  0.00  0.00    +0.000 A 
ATOM     20  C   UNL     1      27.367  -1.318  52.960  0.00  0.00    +0.000 A 
ATOM     21  C   UNL     1      28.066  -0.154  53.179  0.00  0.00    +0.000 A 
ATOM     22 BR   UNL     1      29.866  -0.054  53.656  0.00  0.00    +0.000 Br
ATOM     23  O   UNL     1      27.258   0.925  53.009  0.00  0.00    +0.000 OA
ENDBRANCH  13  18
TORSDOF 1
ENDMDL
MODEL 6
REMARK VINA RESULT:    -7.833      3.840      5.273
REMARK INTER + INTRA:          -8.472
REMARK INTER:                  -8.299
REMARK INTRA:                  -0.173
REMARK UNBOUND:                -0.181
REMARK  Name = 
REMARK  1 active torsions:
REMARK  status: ('A' for Active; 'I' for Inactive)
REMARK    1  A    between atoms: C_13  and  C_14
REMARK                            x       y       z     vdW  Elec       q    Type
REMARK                         _______ _______ _______ _____ _____    ______ ____
ROOT
ATOM      1  N   UNL     1      21.241  -1.320  54.791  0.00  0.00    +0.000 N 
ATOM      2  C   UNL     1      21.485  -0.223  54.005  0.00  0.00    +0.000 A 
ATOM      3  N   UNL     1      20.533   0.619  53.700  0.00  0.00    +0.000 NA
ATOM      4  C   UNL     1      20.826   1.731  52.867  0.00  0.00    +0.000 A 
ATOM      5  C   UNL     1      19.782   2.581  52.498  0.00  0.00    +0.000 A 
ATOM      6  C   UNL     1      20.023   3.669  51.655  0.00  0.00    +0.000 A 
ATOM      7  C   UNL     1      21.314   3.916  51.182  0.00  0.00    +0.000 A 
ATOM      8 CL   UNL     1      21.593   5.249  50.132  0.00  0.00    +0.000 Cl
ATOM      9  C   UNL     1      22.374   3.086  51.543  0.00  0.00    +0.000 A 
ATOM     10  C   UNL     1      22.129   1.996  52.381  0.00  0.00    +0.000 A 
ATOM     11  C   UNL     1      23.161   1.064  52.776  0.00  0.00    +0.000 A 
ATOM     12  N   UNL     1      24.455   1.007  52.539  0.00  0.00    +0.000 NA
ATOM     13  C   UNL     1      24.831  -0.167  53.168  0.00  0.00    +0.000 A 
ATOM     14  N   UNL     1      23.844  -0.806  53.815  0.00  0.00    +0.000 NA
ATOM     15  N   UNL     1      22.795  -0.006  53.539  0.00  0.00    +0.000 N 
ATOM     16  H   UNL     1      20.332  -1.492  55.128  0.00  0.00    +0.000 HD
ATOM     17  H   UNL     1      21.974  -1.936  55.018  0.00  0.00    +0.000 HD
ENDROOT
BRANCH  13  18
ATOM     18  C   UNL     1      26.224  -0.702  53.106  0.00  0.00    +0.000 A 
ATOM     19  C   UNL     1      26.589  -1.969  52.692  0.00  0.00    +0.000 A 
ATOM     20  C   UNL     1      27.995  -2.058  52.836  0.00  0.00    +0.000 A 
ATOM     21  C   UNL     1      28.404  -0.844  53.336  0.00  0.00    +0.000 A 
ATOM     22 BR   UNL     1      30.162  -0.397  53.773  0.00  0.00    +0.000 Br
ATOM     23  O   UNL     1      27.343  -0.008  53.481  0.00  0.00    +0.000 OA
ENDBRANCH  13  18
TORSDOF 1
ENDMDL
MODEL 7
REMARK VINA RESULT:    -7.818      3.751      6.642
REMARK INTER + INTRA:          -8.457
REMARK INTER:                  -8.271
REMARK INTRA:                  -0.186
REMARK UNBOUND:                -0.181
REMARK  Name = 
REMARK  1 active torsions:
REMARK  status: ('A' for Active; 'I' for Inactive)
REMARK    1  A    between atoms: C_13  and  C_14
REMARK                            x       y       z     vdW  Elec       q    Type
REMARK                         _______ _______ _______ _____ _____    ______ ____
ROOT
ATOM      1  N   UNL     1      27.141   0.485  52.897  0.00  0.00    +0.000 N 
ATOM      2  C   UNL     1      26.380   1.308  52.106  0.00  0.00    +0.000 A 
ATOM      3  N   UNL     1      26.929   2.215  51.344  0.00  0.00    +0.000 NA
ATOM      4  C   UNL     1      26.103   3.059  50.555  0.00  0.00    +0.000 A 
ATOM      5  C   UNL     1      26.705   4.065  49.799  0.00  0.00    +0.000 A 
ATOM      6  C   UNL     1      25.924   4.935  49.033  0.00  0.00    +0.000 A 
ATOM      7  C   UNL     1      24.534   4.798  49.017  0.00  0.00    +0.000 A 
ATOM      8 CL   UNL     1      23.585   5.886  48.084  0.00  0.00    +0.000 Cl
ATOM      9  C   UNL     1      23.910   3.795  49.757  0.00  0.00    +0.000 A 
ATOM     10  C   UNL     1      24.693   2.931  50.525  0.00  0.00    +0.000 A 
ATOM     11  C   UNL     1      24.128   1.887  51.351  0.00  0.00    +0.000 A 
ATOM     12  N   UNL     1      22.894   1.473  51.551  0.00  0.00    +0.000 NA
ATOM     13  C   UNL     1      23.055   0.477  52.499  0.00  0.00    +0.000 A 
ATOM     14  N   UNL     1      24.326   0.230  52.853  0.00  0.00    +0.000 NA
ATOM     15  N   UNL     1      24.981   1.148  52.116  0.00  0.00    +0.000 N 
ATOM     16  H   UNL     1      28.121   0.580  52.906  0.00  0.00    +0.000 HD
ATOM     17  H   UNL     1      26.707  -0.200  53.456  0.00  0.00    +0.000 HD
ENDROOT
BRANCH  13  18
ATOM     18  C   UNL     1      21.900  -0.249  53.106  0.00  0.00    +0.000 A 
ATOM     19  C   UNL     1      21.968  -1.154  54.148  0.00  0.00    +0.000 A 
ATOM     20  C   UNL     1      20.650  -1.626  54.368  0.00  0.00    +0.000 A 
ATOM     21  C   UNL     1      19.858  -0.987  53.443  0.00  0.00    +0.000 A 
ATOM     22 BR   UNL     1      18.024  -1.254  53.230  0.00  0.00    +0.000 Br
ATOM     23  O   UNL     1      20.600  -0.134  52.690  0.00  0.00    +0.000 OA
ENDBRANCH  13  18
TORSDOF 1
ENDMDL
MODEL 8
REMARK VINA RESULT:    -7.733      3.511      4.929
REMARK INTER + INTRA:          -8.366
REMARK INTER:                  -8.191
REMARK INTRA:                  -0.175
REMARK UNBOUND:                -0.181
REMARK  Name = 
REMARK  1 active torsions:
REMARK  status: ('A' for Active; 'I' for Inactive)
REMARK    1  A    between atoms: C_13  and  C_14
REMARK                            x       y       z     vdW  Elec       q    Type
REMARK                         _______ _______ _______ _____ _____    ______ ____
ROOT
ATOM      1  N   UNL     1      23.524   2.976  49.665  0.00  0.00    +0.000 N 
ATOM      2  C   UNL     1      22.737   2.142  50.417  0.00  0.00    +0.000 A 
ATOM      3  N   UNL     1      21.453   2.040  50.199  0.00  0.00    +0.000 NA
ATOM      4  C   UNL     1      20.672   1.180  51.015  0.00  0.00    +0.000 A 
ATOM      5  C   UNL     1      19.293   1.136  50.809  0.00  0.00    +0.000 A 
ATOM      6  C   UNL     1      18.486   0.324  51.611  0.00  0.00    +0.000 A 
ATOM      7  C   UNL     1      19.058  -0.454  52.620  0.00  0.00    +0.000 A 
ATOM      8 CL   UNL     1      18.051  -1.436  53.609  0.00  0.00    +0.000 Cl
ATOM      9  C   UNL     1      20.434  -0.434  52.839  0.00  0.00    +0.000 A 
ATOM     10  C   UNL     1      21.237   0.383  52.040  0.00  0.00    +0.000 A 
ATOM     11  C   UNL     1      22.668   0.493  52.221  0.00  0.00    +0.000 A 
ATOM     12  N   UNL     1      23.515  -0.097  53.038  0.00  0.00    +0.000 NA
ATOM     13  C   UNL     1      24.719   0.506  52.718  0.00  0.00    +0.000 A 
ATOM     14  N   UNL     1      24.660   1.398  51.717  0.00  0.00    +0.000 NA
ATOM     15  N   UNL     1      23.344   1.375  51.431  0.00  0.00    +0.000 N 
ATOM     16  H   UNL     1      23.122   3.522  48.951  0.00  0.00    +0.000 HD
ATOM     17  H   UNL     1      24.492   3.030  49.838  0.00  0.00    +0.000 HD
ENDROOT
BRANCH  13  18
ATOM     18  C   UNL     1      25.986   0.209  53.451  0.00  0.00    +0.000 A 
ATOM     19  C   UNL     1      26.185   0.335  54.813  0.00  0.00    +0.000 A 
ATOM     20  C   UNL     1      27.536  -0.008  55.064  0.00  0.00    +0.000 A 
ATOM     21  C   UNL     1      28.084  -0.316  53.840  0.00  0.00    +0.000 A 
ATOM     22 BR   UNL     1      29.863  -0.797  53.549  0.00  0.00    +0.000 Br
ATOM     23  O   UNL     1      27.149  -0.211  52.861  0.00  0.00    +0.000 OA
ENDBRANCH  13  18
TORSDOF 1
ENDMDL
MODEL 9
REMARK VINA RESULT:    -7.722      3.250      4.292
REMARK INTER + INTRA:          -8.355
REMARK INTER:                  -8.169
REMARK INTRA:                  -0.186
REMARK UNBOUND:                -0.181
REMARK  Name = 
REMARK  1 active torsions:
REMARK  status: ('A' for Active; 'I' for Inactive)
REMARK    1  A    between atoms: C_13  and  C_14
REMARK                            x       y       z     vdW  Elec       q    Type
REMARK                         _______ _______ _______ _____ _____    ______ ____
ROOT
ATOM      1  N   UNL     1      22.040   3.428  52.136  0.00  0.00    +0.000 N 
ATOM      2  C   UNL     1      23.208   2.711  52.164  0.00  0.00    +0.000 A 
ATOM      3  N   UNL     1      23.310   1.604  52.852  0.00  0.00    +0.000 NA
ATOM      4  C   UNL     1      24.545   0.903  52.869  0.00  0.00    +0.000 A 
ATOM      5  C   UNL     1      24.652  -0.239  53.662  0.00  0.00    +0.000 A 
ATOM      6  C   UNL     1      25.859  -0.941  53.729  0.00  0.00    +0.000 A 
ATOM      7  C   UNL     1      26.965  -0.502  52.996  0.00  0.00    +0.000 A 
ATOM      8 CL   UNL     1      28.449  -1.365  53.102  0.00  0.00    +0.000 Cl
ATOM      9  C   UNL     1      26.880   0.631  52.190  0.00  0.00    +0.000 A 
ATOM     10  C   UNL     1      25.674   1.332  52.130  0.00  0.00    +0.000 A 
ATOM     11  C   UNL     1      25.507   2.538  51.349  0.00  0.00    +0.000 A 
ATOM     12  N   UNL     1      26.310   3.202  50.544  0.00  0.00    +0.000 NA
ATOM     13  C   UNL     1      25.539   4.288  50.169  0.00  0.00    +0.000 A 
ATOM     14  N   UNL     1      24.292   4.300  50.667  0.00  0.00    +0.000 NA
ATOM     15  N   UNL     1      24.306   3.181  51.419  0.00  0.00    +0.000 N 
ATOM     16  H   UNL     1      21.259   3.118  52.650  0.00  0.00    +0.000 HD
ATOM     17  H   UNL     1      21.981   4.254  51.603  0.00  0.00    +0.000 HD
ENDROOT
BRANCH  13  18
ATOM     18  C   UNL     1      26.063   5.385  49.302  0.00  0.00    +0.000 A 
ATOM     19  C   UNL     1      25.310   6.385  48.714  0.00  0.00    +0.000 A 
ATOM     20  C   UNL     1      26.204   7.175  47.949  0.00  0.00    +0.000 A 
ATOM     21  C   UNL     1      27.447   6.607  48.110  0.00  0.00    +0.000 A 
ATOM     22 BR   UNL     1      29.014   7.201  47.292  0.00  0.00    +0.000 Br
ATOM     23  O   UNL     1      27.376   5.538  48.945  0.00  0.00    +0.000 OA
ENDBRANCH  13  18
TORSDOF 1
ENDMDL
