MODEL 1
REMARK VINA RESULT:    -6.268      0.000      0.000
REMARK INTER + INTRA:         -11.832
REMARK INTER:                  -9.383
REMARK INTRA:                  -2.449
REMARK UNBOUND:                -2.449
REMARK  Name = 
REMARK  10 active torsions:
REMARK  status: ('A' for Active; 'I' for Inactive)
REMARK    1  A    between atoms: C_1  and  O_2
REMARK    2  A    between atoms: O_2  and  C_3
REMARK    3  A    between atoms: C_3  and  C_5
REMARK    4  A    between atoms: C_9  and  O_10
REMARK    5  A    between atoms: O_10  and  C_11
REMARK    6  A    between atoms: C_11  and  C_12
REMARK    7  A    between atoms: C_12  and  C_13
REMARK    8  A    between atoms: C_13  and  O_14
REMARK    9  A    between atoms: O_14  and  C_15
REMARK   10  A    between atoms: C_20  and  O_21
REMARK                            x       y       z     vdW  Elec       q    Type
REMARK                         _______ _______ _______ _____ _____    ______ ____
ROOT
ATOM      1  C   UNL     1      22.470   2.241  48.112  0.00  0.00    +0.000 C 
ENDROOT
BRANCH   1   2
ATOM      2  C   UNL     1      22.682   3.677  48.618  0.00  0.00    +0.000 C 
BRANCH   2   3
ATOM      3  O   UNL     1      23.998   3.842  49.190  0.00  0.00    +0.000 OA
BRANCH   3   8
ATOM      4  C   UNL     1      24.988   2.128  52.300  0.00  0.00    +0.000 A 
ATOM      5  C   UNL     1      24.288   2.871  53.259  0.00  0.00    +0.000 A 
ATOM      6  C   UNL     1      23.559   3.994  52.875  0.00  0.00    +0.000 A 
ATOM      7  C   UNL     1      23.484   4.354  51.530  0.00  0.00    +0.000 A 
ATOM      8  C   UNL     1      24.093   3.577  50.543  0.00  0.00    +0.000 A 
ATOM      9  C   UNL     1      24.882   2.479  50.937  0.00  0.00    +0.000 A 
BRANCH   4  10
ATOM     10  C   UNL     1      25.831   1.010  52.824  0.00  0.00    +0.000 C 
ATOM     11  O   UNL     1      26.231   0.092  52.134  0.00  0.00    +0.000 OA
BRANCH  10  13
ATOM     12  C   UNL     1      26.823   0.079  54.715  0.00  0.00    +0.000 C 
ATOM     13  O   UNL     1      26.054   1.145  54.159  0.00  0.00    +0.000 OA
ENDBRANCH  10  13
ENDBRANCH   4  10
ENDBRANCH   3   8
ENDBRANCH   2   3
ENDBRANCH   1   2
BRANCH   1  14
ATOM     14  C   UNL     1      21.232   1.570  48.729  0.00  0.00    +0.000 C 
BRANCH  14  15
ATOM     15  O   UNL     1      20.837   2.223  49.952  0.00  0.00    +0.000 OA
BRANCH  15  16
ATOM     16  C   UNL     1      21.039   1.560  51.140  0.00  0.00    +0.000 A 
ATOM     17  C   UNL     1      21.844   0.432  51.293  0.00  0.00    +0.000 A 
ATOM     18  C   UNL     1      21.990  -0.086  52.567  0.00  0.00    +0.000 A 
ATOM     19  C   UNL     1      21.312   0.416  53.672  0.00  0.00    +0.000 A 
ATOM     20  C   UNL     1      20.522   1.538  53.558  0.00  0.00    +0.000 A 
ATOM     21  C   UNL     1      20.421   2.121  52.288  0.00  0.00    +0.000 A 
ATOM     22  C   UNL     1      21.635  -0.441  54.840  0.00  0.00    +0.000 C 
ATOM     23  C   UNL     1      22.992  -0.921  54.331  0.00  0.00    +0.000 C 
ATOM     24  O   UNL     1      22.865  -1.097  52.895  0.00  0.00    +0.000 OA
BRANCH  21  25
ATOM     25  O   UNL     1      19.712   3.288  52.198  0.00  0.00    +0.000 OA
ATOM     26  H   UNL     1      20.130   4.066  51.888  0.00  0.00    +0.000 HD
ENDBRANCH  21  25
ENDBRANCH  15  16
ENDBRANCH  14  15
ENDBRANCH   1  14
TORSDOF 9
ENDMDL
MODEL 2
REMARK VINA RESULT:    -6.233      2.442      6.448
REMARK INTER + INTRA:         -11.779
REMARK INTER:                 -10.817
REMARK INTRA:                  -0.962
REMARK UNBOUND:                -2.449
REMARK  Name = 
REMARK  10 active torsions:
REMARK  status: ('A' for Active; 'I' for Inactive)
REMARK    1  A    between atoms: C_1  and  O_2
REMARK    2  A    between atoms: O_2  and  C_3
REMARK    3  A    between atoms: C_3  and  C_5
REMARK    4  A    between atoms: C_9  and  O_10
REMARK    5  A    between atoms: O_10  and  C_11
REMARK    6  A    between atoms: C_11  and  C_12
REMARK    7  A    between atoms: C_12  and  C_13
REMARK    8  A    between atoms: C_13  and  O_14
REMARK    9  A    between atoms: O_14  and  C_15
REMARK   10  A    between atoms: C_20  and  O_21
REMARK                            x       y       z     vdW  Elec       q    Type
REMARK                         _______ _______ _______ _____ _____    ______ ____
ROOT
ATOM      1  C   UNL     1      24.060   3.526  51.992  0.00  0.00    +0.000 C 
ENDROOT
BRANCH   1   2
ATOM      2  C   UNL     1      22.789   2.742  51.627  0.00  0.00    +0.000 C 
BRANCH   2   3
ATOM      3  O   UNL     1      23.059   1.327  51.527  0.00  0.00    +0.000 OA
BRANCH   3   8
ATOM      4  C   UNL     1      20.151  -0.428  52.962  0.00  0.00    +0.000 A 
ATOM      5  C   UNL     1      20.715  -1.006  54.106  0.00  0.00    +0.000 A 
ATOM      6  C   UNL     1      22.080  -0.882  54.349  0.00  0.00    +0.000 A 
ATOM      7  C   UNL     1      22.882  -0.142  53.480  0.00  0.00    +0.000 A 
ATOM      8  C   UNL     1      22.330   0.523  52.384  0.00  0.00    +0.000 A 
ATOM      9  C   UNL     1      20.961   0.345  52.104  0.00  0.00    +0.000 A 
BRANCH   4  10
ATOM     10  C   UNL     1      18.701  -0.712  52.730  0.00  0.00    +0.000 C 
ATOM     11  O   UNL     1      17.986  -1.257  53.550  0.00  0.00    +0.000 OA
BRANCH  10  13
ATOM     12  C   UNL     1      17.323   0.710  51.505  0.00  0.00    +0.000 C 
ATOM     13  O   UNL     1      18.313  -0.317  51.488  0.00  0.00    +0.000 OA
ENDBRANCH  10  13
ENDBRANCH   4  10
ENDBRANCH   3   8
ENDBRANCH   2   3
ENDBRANCH   1   2
BRANCH   1  14
ATOM     14  C   UNL     1      25.324   2.651  51.974  0.00  0.00    +0.000 C 
BRANCH  14  15
ATOM     15  O   UNL     1      25.669   2.203  53.300  0.00  0.00    +0.000 OA
BRANCH  15  16
ATOM     16  C   UNL     1      26.646   1.243  53.430  0.00  0.00    +0.000 A 
ATOM     17  C   UNL     1      26.472  -0.111  53.145  0.00  0.00    +0.000 A 
ATOM     18  C   UNL     1      27.570  -0.942  53.274  0.00  0.00    +0.000 A 
ATOM     19  C   UNL     1      28.802  -0.503  53.748  0.00  0.00    +0.000 A 
ATOM     20  C   UNL     1      29.010   0.830  54.024  0.00  0.00    +0.000 A 
ATOM     21  C   UNL     1      27.930   1.699  53.828  0.00  0.00    +0.000 A 
ATOM     22  C   UNL     1      29.703  -1.677  53.843  0.00  0.00    +0.000 C 
ATOM     23  C   UNL     1      29.016  -2.511  52.765  0.00  0.00    +0.000 C 
ATOM     24  O   UNL     1      27.590  -2.263  52.886  0.00  0.00    +0.000 OA
BRANCH  21  25
ATOM     25  O   UNL     1      28.169   3.033  54.013  0.00  0.00    +0.000 OA
ATOM     26  H   UNL     1      28.005   3.638  53.317  0.00  0.00    +0.000 HD
ENDBRANCH  21  25
ENDBRANCH  15  16
ENDBRANCH  14  15
ENDBRANCH   1  14
TORSDOF 9
ENDMDL
MODEL 3
REMARK VINA RESULT:    -6.149      1.770      5.482
REMARK INTER + INTRA:         -11.653
REMARK INTER:                 -10.292
REMARK INTRA:                  -1.361
REMARK UNBOUND:                -2.449
REMARK  Name = 
REMARK  10 active torsions:
REMARK  status: ('A' for Active; 'I' for Inactive)
REMARK    1  A    between atoms: C_1  and  O_2
REMARK    2  A    between atoms: O_2  and  C_3
REMARK    3  A    between atoms: C_3  and  C_5
REMARK    4  A    between atoms: C_9  and  O_10
REMARK    5  A    between atoms: O_10  and  C_11
REMARK    6  A    between atoms: C_11  and  C_12
REMARK    7  A    between atoms: C_12  and  C_13
REMARK    8  A    between atoms: C_13  and  O_14
REMARK    9  A    between atoms: O_14  and  C_15
REMARK   10  A    between atoms: C_20  and  O_21
REMARK                            x       y       z     vdW  Elec       q    Type
REMARK                         _______ _______ _______ _____ _____    ______ ____
ROOT
ATOM      1  C   UNL     1      21.887   0.024  53.624  0.00  0.00    +0.000 C 
ENDROOT
BRANCH   1   2
ATOM      2  C   UNL     1      20.939   0.110  52.418  0.00  0.00    +0.000 C 
BRANCH   2   3
ATOM      3  O   UNL     1      20.818   1.469  51.944  0.00  0.00    +0.000 OA
BRANCH   3   8
ATOM      4  C   UNL     1      23.154   3.069  49.582  0.00  0.00    +0.000 A 
ATOM      5  C   UNL     1      22.790   2.455  48.377  0.00  0.00    +0.000 A 
ATOM      6  C   UNL     1      21.828   1.448  48.369  0.00  0.00    +0.000 A 
ATOM      7  C   UNL     1      21.191   1.080  49.553  0.00  0.00    +0.000 A 
ATOM      8  C   UNL     1      21.466   1.740  50.753  0.00  0.00    +0.000 A 
ATOM      9  C   UNL     1      22.483   2.714  50.771  0.00  0.00    +0.000 A 
BRANCH   4  10
ATOM     10  C   UNL     1      24.274   4.056  49.503  0.00  0.00    +0.000 C 
ATOM     11  O   UNL     1      24.276   5.008  48.746  0.00  0.00    +0.000 OA
BRANCH  10  13
ATOM     12  C   UNL     1      26.454   3.257  49.686  0.00  0.00    +0.000 C 
ATOM     13  O   UNL     1      25.283   3.726  50.353  0.00  0.00    +0.000 OA
ENDBRANCH  10  13
ENDBRANCH   4  10
ENDBRANCH   3   8
ENDBRANCH   2   3
ENDBRANCH   1   2
BRANCH   1  14
ATOM     14  C   UNL     1      23.289  -0.479  53.243  0.00  0.00    +0.000 C 
BRANCH  14  15
ATOM     15  O   UNL     1      24.132   0.604  52.802  0.00  0.00    +0.000 OA
BRANCH  15  16
ATOM     16  C   UNL     1      25.476   0.544  53.091  0.00  0.00    +0.000 A 
ATOM     17  C   UNL     1      26.224  -0.631  53.150  0.00  0.00    +0.000 A 
ATOM     18  C   UNL     1      27.580  -0.519  53.398  0.00  0.00    +0.000 A 
ATOM     19  C   UNL     1      28.203   0.694  53.669  0.00  0.00    +0.000 A 
ATOM     20  C   UNL     1      27.496   1.874  53.604  0.00  0.00    +0.000 A 
ATOM     21  C   UNL     1      26.136   1.786  53.280  0.00  0.00    +0.000 A 
ATOM     22  C   UNL     1      29.628   0.421  53.981  0.00  0.00    +0.000 C 
ATOM     23  C   UNL     1      29.733  -0.876  53.182  0.00  0.00    +0.000 C 
ATOM     24  O   UNL     1      28.467  -1.570  53.337  0.00  0.00    +0.000 OA
BRANCH  21  25
ATOM     25  O   UNL     1      25.461   2.965  53.124  0.00  0.00    +0.000 OA
ATOM     26  H   UNL     1      25.353   3.543  53.853  0.00  0.00    +0.000 HD
ENDBRANCH  21  25
ENDBRANCH  15  16
ENDBRANCH  14  15
ENDBRANCH   1  14
TORSDOF 9
ENDMDL
MODEL 4
REMARK VINA RESULT:    -6.126      3.274      6.672
REMARK INTER + INTRA:         -11.619
REMARK INTER:                 -10.373
REMARK INTRA:                  -1.246
REMARK UNBOUND:                -2.449
REMARK  Name = 
REMARK  10 active torsions:
REMARK  status: ('A' for Active; 'I' for Inactive)
REMARK    1  A    between atoms: C_1  and  O_2
REMARK    2  A    between atoms: O_2  and  C_3
REMARK    3  A    between atoms: C_3  and  C_5
REMARK    4  A    between atoms: C_9  and  O_10
REMARK    5  A    between atoms: O_10  and  C_11
REMARK    6  A    between atoms: C_11  and  C_12
REMARK    7  A    between atoms: C_12  and  C_13
REMARK    8  A    between atoms: C_13  and  O_14
REMARK    9  A    between atoms: O_14  and  C_15
REMARK   10  A    between atoms: C_20  and  O_21
REMARK                            x       y       z     vdW  Elec       q    Type
REMARK                         _______ _______ _______ _____ _____    ______ ____
ROOT
ATOM      1  C   UNL     1      23.920   3.877  51.957  0.00  0.00    +0.000 C 
ENDROOT
BRANCH   1   2
ATOM      2  C   UNL     1      23.448   2.447  51.650  0.00  0.00    +0.000 C 
BRANCH   2   3
ATOM      3  O   UNL     1      24.566   1.573  51.382  0.00  0.00    +0.000 OA
BRANCH   3   8
ATOM      4  C   UNL     1      27.146   0.658  53.851  0.00  0.00    +0.000 A 
ATOM      5  C   UNL     1      26.440  -0.233  54.670  0.00  0.00    +0.000 A 
ATOM      6  C   UNL     1      25.084  -0.459  54.449  0.00  0.00    +0.000 A 
ATOM      7  C   UNL     1      24.436   0.164  53.383  0.00  0.00    +0.000 A 
ATOM      8  C   UNL     1      25.136   0.983  52.495  0.00  0.00    +0.000 A 
ATOM      9  C   UNL     1      26.492   1.260  52.756  0.00  0.00    +0.000 A 
BRANCH   4  10
ATOM     10  C   UNL     1      28.566   0.919  54.239  0.00  0.00    +0.000 C 
ATOM     11  O   UNL     1      29.086   2.017  54.179  0.00  0.00    +0.000 OA
BRANCH  10  13
ATOM     12  C   UNL     1      29.690  -0.994  53.530  0.00  0.00    +0.000 C 
ATOM     13  O   UNL     1      29.191  -0.226  54.624  0.00  0.00    +0.000 OA
ENDBRANCH  10  13
ENDBRANCH   4  10
ENDBRANCH   3   8
ENDBRANCH   2   3
ENDBRANCH   1   2
BRANCH   1  14
ATOM     14  C   UNL     1      23.574   4.871  50.837  0.00  0.00    +0.000 C 
BRANCH  14  15
ATOM     15  O   UNL     1      24.141   4.460  49.577  0.00  0.00    +0.000 OA
BRANCH  15  16
ATOM     16  C   UNL     1      25.302   5.066  49.156  0.00  0.00    +0.000 A 
ATOM     17  C   UNL     1      25.409   6.405  48.781  0.00  0.00    +0.000 A 
ATOM     18  C   UNL     1      26.661   6.878  48.433  0.00  0.00    +0.000 A 
ATOM     19  C   UNL     1      27.786   6.065  48.365  0.00  0.00    +0.000 A 
ATOM     20  C   UNL     1      27.718   4.742  48.743  0.00  0.00    +0.000 A 
ATOM     21  C   UNL     1      26.473   4.264  49.169  0.00  0.00    +0.000 A 
ATOM     22  C   UNL     1      28.918   6.885  47.869  0.00  0.00    +0.000 C 
ATOM     23  C   UNL     1      28.388   8.228  48.364  0.00  0.00    +0.000 C 
ATOM     24  O   UNL     1      26.946   8.202  48.188  0.00  0.00    +0.000 OA
BRANCH  21  25
ATOM     25  O   UNL     1      26.430   2.977  49.632  0.00  0.00    +0.000 OA
ATOM     26  H   UNL     1      26.859   2.754  50.435  0.00  0.00    +0.000 HD
ENDBRANCH  21  25
ENDBRANCH  15  16
ENDBRANCH  14  15
ENDBRANCH   1  14
TORSDOF 9
ENDMDL
MODEL 5
REMARK VINA RESULT:    -6.108      1.795      4.939
REMARK INTER + INTRA:         -11.592
REMARK INTER:                 -10.276
REMARK INTRA:                  -1.316
REMARK UNBOUND:                -2.449
REMARK  Name = 
REMARK  10 active torsions:
REMARK  status: ('A' for Active; 'I' for Inactive)
REMARK    1  A    between atoms: C_1  and  O_2
REMARK    2  A    between atoms: O_2  and  C_3
REMARK    3  A    between atoms: C_3  and  C_5
REMARK    4  A    between atoms: C_9  and  O_10
REMARK    5  A    between atoms: O_10  and  C_11
REMARK    6  A    between atoms: C_11  and  C_12
REMARK    7  A    between atoms: C_12  and  C_13
REMARK    8  A    between atoms: C_13  and  O_14
REMARK    9  A    between atoms: O_14  and  C_15
REMARK   10  A    between atoms: C_20  and  O_21
REMARK                            x       y       z     vdW  Elec       q    Type
REMARK                         _______ _______ _______ _____ _____    ______ ____
ROOT
ATOM      1  C   UNL     1      27.295   0.037  53.794  0.00  0.00    +0.000 C 
ENDROOT
BRANCH   1   2
ATOM      2  C   UNL     1      27.425   1.310  52.942  0.00  0.00    +0.000 C 
BRANCH   2   3
ATOM      3  O   UNL     1      26.275   2.168  53.104  0.00  0.00    +0.000 OA
BRANCH   3   8
ATOM      4  C   UNL     1      23.794   3.611  50.790  0.00  0.00    +0.000 A 
ATOM      5  C   UNL     1      24.517   3.634  49.591  0.00  0.00    +0.000 A 
ATOM      6  C   UNL     1      25.855   3.251  49.575  0.00  0.00    +0.000 A 
ATOM      7  C   UNL     1      26.467   2.797  50.743  0.00  0.00    +0.000 A 
ATOM      8  C   UNL     1      25.744   2.675  51.932  0.00  0.00    +0.000 A 
ATOM      9  C   UNL     1      24.409   3.122  51.961  0.00  0.00    +0.000 A 
BRANCH   4  10
ATOM     10  C   UNL     1      22.400   4.148  50.725  0.00  0.00    +0.000 C 
ATOM     11  O   UNL     1      21.552   3.721  49.965  0.00  0.00    +0.000 OA
BRANCH  10  13
ATOM     12  C   UNL     1      22.028   6.437  50.945  0.00  0.00    +0.000 C 
ATOM     13  O   UNL     1      22.229   5.182  51.593  0.00  0.00    +0.000 OA
ENDBRANCH  10  13
ENDBRANCH   4  10
ENDBRANCH   3   8
ENDBRANCH   2   3
ENDBRANCH   1   2
BRANCH   1  14
ATOM     14  C   UNL     1      26.156  -0.881  53.321  0.00  0.00    +0.000 C 
BRANCH  14  15
ATOM     15  O   UNL     1      25.145  -1.027  54.337  0.00  0.00    +0.000 OA
BRANCH  15  16
ATOM     16  C   UNL     1      23.844  -0.718  54.012  0.00  0.00    +0.000 A 
ATOM     17  C   UNL     1      23.453  -0.049  52.852  0.00  0.00    +0.000 A 
ATOM     18  C   UNL     1      22.098   0.138  52.644  0.00  0.00    +0.000 A 
ATOM     19  C   UNL     1      21.130  -0.235  53.569  0.00  0.00    +0.000 A 
ATOM     20  C   UNL     1      21.482  -0.911  54.717  0.00  0.00    +0.000 A 
ATOM     21  C   UNL     1      22.844  -1.175  54.909  0.00  0.00    +0.000 A 
ATOM     22  C   UNL     1      19.809   0.204  53.056  0.00  0.00    +0.000 C 
ATOM     23  C   UNL     1      20.183   0.183  51.576  0.00  0.00    +0.000 C 
ATOM     24  O   UNL     1      21.557   0.642  51.483  0.00  0.00    +0.000 OA
BRANCH  21  25
ATOM     25  O   UNL     1      23.179  -1.927  56.002  0.00  0.00    +0.000 OA
ATOM     26  H   UNL     1      22.519  -2.408  56.459  0.00  0.00    +0.000 HD
ENDBRANCH  21  25
ENDBRANCH  15  16
ENDBRANCH  14  15
ENDBRANCH   1  14
TORSDOF 9
ENDMDL
MODEL 6
REMARK VINA RESULT:    -6.089      1.720      5.520
REMARK INTER + INTRA:         -11.564
REMARK INTER:                 -10.080
REMARK INTRA:                  -1.484
REMARK UNBOUND:                -2.449
REMARK  Name = 
REMARK  10 active torsions:
REMARK  status: ('A' for Active; 'I' for Inactive)
REMARK    1  A    between atoms: C_1  and  O_2
REMARK    2  A    between atoms: O_2  and  C_3
REMARK    3  A    between atoms: C_3  and  C_5
REMARK    4  A    between atoms: C_9  and  O_10
REMARK    5  A    between atoms: O_10  and  C_11
REMARK    6  A    between atoms: C_11  and  C_12
REMARK    7  A    between atoms: C_12  and  C_13
REMARK    8  A    between atoms: C_13  and  O_14
REMARK    9  A    between atoms: O_14  and  C_15
REMARK   10  A    between atoms: C_20  and  O_21
REMARK                            x       y       z     vdW  Elec       q    Type
REMARK                         _______ _______ _______ _____ _____    ______ ____
ROOT
ATOM      1  C   UNL     1      20.904  -1.423  54.055  0.00  0.00    +0.000 C 
ENDROOT
BRANCH   1   2
ATOM      2  C   UNL     1      19.942  -0.424  53.394  0.00  0.00    +0.000 C 
BRANCH   2   3
ATOM      3  O   UNL     1      20.508   0.904  53.362  0.00  0.00    +0.000 OA
BRANCH   3   8
ATOM      4  C   UNL     1      22.712   2.758  51.059  0.00  0.00    +0.000 A 
ATOM      5  C   UNL     1      22.470   2.093  49.851  0.00  0.00    +0.000 A 
ATOM      6  C   UNL     1      21.640   0.975  49.824  0.00  0.00    +0.000 A 
ATOM      7  C   UNL     1      21.011   0.543  50.990  0.00  0.00    +0.000 A 
ATOM      8  C   UNL     1      21.160   1.242  52.190  0.00  0.00    +0.000 A 
ATOM      9  C   UNL     1      22.048   2.335  52.230  0.00  0.00    +0.000 A 
BRANCH   4  10
ATOM     10  C   UNL     1      23.705   3.875  51.006  0.00  0.00    +0.000 C 
ATOM     11  O   UNL     1      23.760   4.763  51.835  0.00  0.00    +0.000 OA
BRANCH  10  13
ATOM     12  C   UNL     1      25.260   4.958  49.651  0.00  0.00    +0.000 C 
ATOM     13  O   UNL     1      24.496   3.779  49.903  0.00  0.00    +0.000 OA
ENDBRANCH  10  13
ENDBRANCH   4  10
ENDBRANCH   3   8
ENDBRANCH   2   3
ENDBRANCH   1   2
BRANCH   1  14
ATOM     14  C   UNL     1      21.905  -0.746  55.005  0.00  0.00    +0.000 C 
BRANCH  14  15
ATOM     15  O   UNL     1      23.163  -1.448  55.029  0.00  0.00    +0.000 OA
BRANCH  15  16
ATOM     16  C   UNL     1      24.274  -0.814  54.522  0.00  0.00    +0.000 A 
ATOM     17  C   UNL     1      24.352  -0.242  53.253  0.00  0.00    +0.000 A 
ATOM     18  C   UNL     1      25.523   0.410  52.912  0.00  0.00    +0.000 A 
ATOM     19  C   UNL     1      26.640   0.445  53.740  0.00  0.00    +0.000 A 
ATOM     20  C   UNL     1      26.591  -0.098  55.005  0.00  0.00    +0.000 A 
ATOM     21  C   UNL     1      25.386  -0.697  55.396  0.00  0.00    +0.000 A 
ATOM     22  C   UNL     1      27.731   1.139  53.013  0.00  0.00    +0.000 C 
ATOM     23  C   UNL     1      26.830   1.978  52.110  0.00  0.00    +0.000 C 
ATOM     24  O   UNL     1      25.692   1.147  51.762  0.00  0.00    +0.000 OA
BRANCH  21  25
ATOM     25  O   UNL     1      25.311  -1.150  56.685  0.00  0.00    +0.000 OA
ATOM     26  H   UNL     1      25.318  -2.070  56.858  0.00  0.00    +0.000 HD
ENDBRANCH  21  25
ENDBRANCH  15  16
ENDBRANCH  14  15
ENDBRANCH   1  14
TORSDOF 9
ENDMDL
MODEL 7
REMARK VINA RESULT:    -6.025      2.138      6.433
REMARK INTER + INTRA:         -11.468
REMARK INTER:                 -10.422
REMARK INTRA:                  -1.046
REMARK UNBOUND:                -2.449
REMARK  Name = 
REMARK  10 active torsions:
REMARK  status: ('A' for Active; 'I' for Inactive)
REMARK    1  A    between atoms: C_1  and  O_2
REMARK    2  A    between atoms: O_2  and  C_3
REMARK    3  A    between atoms: C_3  and  C_5
REMARK    4  A    between atoms: C_9  and  O_10
REMARK    5  A    between atoms: O_10  and  C_11
REMARK    6  A    between atoms: C_11  and  C_12
REMARK    7  A    between atoms: C_12  and  C_13
REMARK    8  A    between atoms: C_13  and  O_14
REMARK    9  A    between atoms: O_14  and  C_15
REMARK   10  A    between atoms: C_20  and  O_21
REMARK                            x       y       z     vdW  Elec       q    Type
REMARK                         _______ _______ _______ _____ _____    ______ ____
ROOT
ATOM      1  C   UNL     1      21.724  -1.406  54.767  0.00  0.00    +0.000 C 
ENDROOT
BRANCH   1   2
ATOM      2  C   UNL     1      20.904  -0.242  54.189  0.00  0.00    +0.000 C 
BRANCH   2   3
ATOM      3  O   UNL     1      19.650  -0.705  53.643  0.00  0.00    +0.000 OA
BRANCH   3   8
ATOM      4  C   UNL     1      20.118   0.861  50.338  0.00  0.00    +0.000 A 
ATOM      5  C   UNL     1      18.801   0.905  49.865  0.00  0.00    +0.000 A 
ATOM      6  C   UNL     1      17.772   0.334  50.611  0.00  0.00    +0.000 A 
ATOM      7  C   UNL     1      18.044  -0.241  51.852  0.00  0.00    +0.000 A 
ATOM      8  C   UNL     1      19.332  -0.215  52.390  0.00  0.00    +0.000 A 
ATOM      9  C   UNL     1      20.381   0.306  51.608  0.00  0.00    +0.000 A 
BRANCH   4  10
ATOM     10  C   UNL     1      21.165   1.399  49.415  0.00  0.00    +0.000 C 
ATOM     11  O   UNL     1      22.348   1.440  49.695  0.00  0.00    +0.000 OA
BRANCH  10  13
ATOM     12  C   UNL     1      21.203   3.073  47.796  0.00  0.00    +0.000 C 
ATOM     13  O   UNL     1      20.613   1.859  48.260  0.00  0.00    +0.000 OA
ENDBRANCH  10  13
ENDBRANCH   4  10
ENDBRANCH   3   8
ENDBRANCH   2   3
ENDBRANCH   1   2
BRANCH   1  14
ATOM     14  C   UNL     1      23.220  -1.073  54.895  0.00  0.00    +0.000 C 
BRANCH  14  15
ATOM     15  O   UNL     1      23.767  -0.626  53.639  0.00  0.00    +0.000 OA
BRANCH  15  16
ATOM     16  C   UNL     1      24.952   0.073  53.655  0.00  0.00    +0.000 A 
ATOM     17  C   UNL     1      26.049  -0.242  54.457  0.00  0.00    +0.000 A 
ATOM     18  C   UNL     1      27.190   0.525  54.316  0.00  0.00    +0.000 A 
ATOM     19  C   UNL     1      27.261   1.632  53.479  0.00  0.00    +0.000 A 
ATOM     20  C   UNL     1      26.201   1.961  52.662  0.00  0.00    +0.000 A 
ATOM     21  C   UNL     1      25.062   1.149  52.738  0.00  0.00    +0.000 A 
ATOM     22  C   UNL     1      28.593   2.261  53.657  0.00  0.00    +0.000 C 
ATOM     23  C   UNL     1      29.322   0.996  54.104  0.00  0.00    +0.000 C 
ATOM     24  O   UNL     1      28.392   0.242  54.926  0.00  0.00    +0.000 OA
BRANCH  21  25
ATOM     25  O   UNL     1      24.050   1.423  51.859  0.00  0.00    +0.000 OA
ATOM     26  H   UNL     1      23.589   0.721  51.444  0.00  0.00    +0.000 HD
ENDBRANCH  21  25
ENDBRANCH  15  16
ENDBRANCH  14  15
ENDBRANCH   1  14
TORSDOF 9
ENDMDL
MODEL 8
REMARK VINA RESULT:    -5.999      1.572      2.712
REMARK INTER + INTRA:         -11.429
REMARK INTER:                  -9.608
REMARK INTRA:                  -1.821
REMARK UNBOUND:                -2.449
REMARK  Name = 
REMARK  10 active torsions:
REMARK  status: ('A' for Active; 'I' for Inactive)
REMARK    1  A    between atoms: C_1  and  O_2
REMARK    2  A    between atoms: O_2  and  C_3
REMARK    3  A    between atoms: C_3  and  C_5
REMARK    4  A    between atoms: C_9  and  O_10
REMARK    5  A    between atoms: O_10  and  C_11
REMARK    6  A    between atoms: C_11  and  C_12
REMARK    7  A    between atoms: C_12  and  C_13
REMARK    8  A    between atoms: C_13  and  O_14
REMARK    9  A    between atoms: O_14  and  C_15
REMARK   10  A    between atoms: C_20  and  O_21
REMARK                            x       y       z     vdW  Elec       q    Type
REMARK                         _______ _______ _______ _____ _____    ______ ____
ROOT
ATOM      1  C   UNL     1      21.923   5.175  51.770  0.00  0.00    +0.000 C 
ENDROOT
BRANCH   1   2
ATOM      2  C   UNL     1      23.441   5.007  51.942  0.00  0.00    +0.000 C 
BRANCH   2   3
ATOM      3  O   UNL     1      23.747   4.010  52.941  0.00  0.00    +0.000 OA
BRANCH   3   8
ATOM      4  C   UNL     1      25.966   1.076  53.186  0.00  0.00    +0.000 A 
ATOM      5  C   UNL     1      26.567   1.080  51.921  0.00  0.00    +0.000 A 
ATOM      6  C   UNL     1      26.169   2.006  50.961  0.00  0.00    +0.000 A 
ATOM      7  C   UNL     1      25.203   2.963  51.271  0.00  0.00    +0.000 A 
ATOM      8  C   UNL     1      24.655   3.043  52.553  0.00  0.00    +0.000 A 
ATOM      9  C   UNL     1      25.012   2.066  53.504  0.00  0.00    +0.000 A 
BRANCH   4  10
ATOM     10  C   UNL     1      26.380  -0.027  54.106  0.00  0.00    +0.000 C 
ATOM     11  O   UNL     1      25.649  -0.502  54.954  0.00  0.00    +0.000 OA
BRANCH  10  13
ATOM     12  C   UNL     1      28.587   0.186  54.820  0.00  0.00    +0.000 C 
ATOM     13  O   UNL     1      27.673  -0.391  53.889  0.00  0.00    +0.000 OA
ENDBRANCH  10  13
ENDBRANCH   4  10
ENDBRANCH   3   8
ENDBRANCH   2   3
ENDBRANCH   1   2
BRANCH   1  14
ATOM     14  C   UNL     1      21.392   4.505  50.492  0.00  0.00    +0.000 C 
BRANCH  14  15
ATOM     15  O   UNL     1      20.474   3.438  50.803  0.00  0.00    +0.000 OA
BRANCH  15  16
ATOM     16  C   UNL     1      20.948   2.354  51.505  0.00  0.00    +0.000 A 
ATOM     17  C   UNL     1      20.601   2.047  52.821  0.00  0.00    +0.000 A 
ATOM     18  C   UNL     1      21.120   0.888  53.369  0.00  0.00    +0.000 A 
ATOM     19  C   UNL     1      22.024   0.072  52.700  0.00  0.00    +0.000 A 
ATOM     20  C   UNL     1      22.376   0.338  51.395  0.00  0.00    +0.000 A 
ATOM     21  C   UNL     1      21.801   1.468  50.799  0.00  0.00    +0.000 A 
ATOM     22  C   UNL     1      22.435  -1.015  53.623  0.00  0.00    +0.000 C 
ATOM     23  C   UNL     1      21.167  -1.006  54.475  0.00  0.00    +0.000 C 
ATOM     24  O   UNL     1      20.751   0.380  54.595  0.00  0.00    +0.000 OA
BRANCH  21  25
ATOM     25  O   UNL     1      22.079   1.675  49.475  0.00  0.00    +0.000 OA
ATOM     26  H   UNL     1      21.435   1.475  48.825  0.00  0.00    +0.000 HD
ENDBRANCH  21  25
ENDBRANCH  15  16
ENDBRANCH  14  15
ENDBRANCH   1  14
TORSDOF 9
ENDMDL
MODEL 9
REMARK VINA RESULT:    -5.878      1.630      4.130
REMARK INTER + INTRA:         -11.247
REMARK INTER:                  -9.762
REMARK INTRA:                  -1.486
REMARK UNBOUND:                -2.449
REMARK  Name = 
REMARK  10 active torsions:
REMARK  status: ('A' for Active; 'I' for Inactive)
REMARK    1  A    between atoms: C_1  and  O_2
REMARK    2  A    between atoms: O_2  and  C_3
REMARK    3  A    between atoms: C_3  and  C_5
REMARK    4  A    between atoms: C_9  and  O_10
REMARK    5  A    between atoms: O_10  and  C_11
REMARK    6  A    between atoms: C_11  and  C_12
REMARK    7  A    between atoms: C_12  and  C_13
REMARK    8  A    between atoms: C_13  and  O_14
REMARK    9  A    between atoms: O_14  and  C_15
REMARK   10  A    between atoms: C_20  and  O_21
REMARK                            x       y       z     vdW  Elec       q    Type
REMARK                         _______ _______ _______ _____ _____    ______ ____
ROOT
ATOM      1  C   UNL     1      20.446   0.185  54.091  0.00  0.00    +0.000 C 
ENDROOT
BRANCH   1   2
ATOM      2  C   UNL     1      21.697  -0.694  54.251  0.00  0.00    +0.000 C 
BRANCH   2   3
ATOM      3  O   UNL     1      22.460  -0.744  53.026  0.00  0.00    +0.000 OA
BRANCH   3   8
ATOM      4  C   UNL     1      25.986   0.333  53.085  0.00  0.00    +0.000 A 
ATOM      5  C   UNL     1      25.850   1.724  52.982  0.00  0.00    +0.000 A 
ATOM      6  C   UNL     1      24.591   2.291  52.806  0.00  0.00    +0.000 A 
ATOM      7  C   UNL     1      23.456   1.481  52.779  0.00  0.00    +0.000 A 
ATOM      8  C   UNL     1      23.552   0.101  52.973  0.00  0.00    +0.000 A 
ATOM      9  C   UNL     1      24.831  -0.478  53.088  0.00  0.00    +0.000 A 
BRANCH   4  10
ATOM     10  C   UNL     1      27.386  -0.185  53.158  0.00  0.00    +0.000 C 
ATOM     11  O   UNL     1      27.691  -1.332  52.888  0.00  0.00    +0.000 OA
BRANCH  10  13
ATOM     12  C   UNL     1      28.927   0.421  54.796  0.00  0.00    +0.000 C 
ATOM     13  O   UNL     1      28.246   0.775  53.593  0.00  0.00    +0.000 OA
ENDBRANCH  10  13
ENDBRANCH   4  10
ENDBRANCH   3   8
ENDBRANCH   2   3
ENDBRANCH   1   2
BRANCH   1  14
ATOM     14  C   UNL     1      19.504  -0.317  52.985  0.00  0.00    +0.000 C 
BRANCH  14  15
ATOM     15  O   UNL     1      19.057   0.766  52.146  0.00  0.00    +0.000 OA
BRANCH  15  16
ATOM     16  C   UNL     1      19.969   1.362  51.307  0.00  0.00    +0.000 A 
ATOM     17  C   UNL     1      20.594   0.726  50.234  0.00  0.00    +0.000 A 
ATOM     18  C   UNL     1      21.448   1.479  49.449  0.00  0.00    +0.000 A 
ATOM     19  C   UNL     1      21.767   2.803  49.730  0.00  0.00    +0.000 A 
ATOM     20  C   UNL     1      21.156   3.464  50.772  0.00  0.00    +0.000 A 
ATOM     21  C   UNL     1      20.232   2.737  51.534  0.00  0.00    +0.000 A 
ATOM     22  C   UNL     1      22.776   3.254  48.740  0.00  0.00    +0.000 C 
ATOM     23  C   UNL     1      22.376   2.284  47.632  0.00  0.00    +0.000 C 
ATOM     24  O   UNL     1      22.015   1.034  48.276  0.00  0.00    +0.000 OA
BRANCH  21  25
ATOM     25  O   UNL     1      19.559   3.424  52.508  0.00  0.00    +0.000 OA
ATOM     26  H   UNL     1      19.947   3.539  53.352  0.00  0.00    +0.000 HD
ENDBRANCH  21  25
ENDBRANCH  15  16
ENDBRANCH  14  15
ENDBRANCH   1  14
TORSDOF 9
ENDMDL
