MODEL 1
REMARK VINA RESULT:    -8.001      0.000      0.000
REMARK INTER + INTRA:         -10.317
REMARK INTER:                  -9.872
REMARK INTRA:                  -0.445
REMARK UNBOUND:                -0.445
REMARK  Name = 
REMARK  6 active torsions:
REMARK  status: ('A' for Active; 'I' for Inactive)
REMARK    1  A    between atoms: C_1  and  N_2
REMARK    2  A    between atoms: N_2  and  C_3
REMARK    3  A    between atoms: N_2  and  C_4
REMARK    4  A    between atoms: C_9  and  S_10
REMARK    5  A    between atoms: S_10  and  N_13
REMARK    6  A    between atoms: N_13  and  C_14
REMARK                            x       y       z     vdW  Elec       q    Type
REMARK                         _______ _______ _______ _____ _____    ______ ____
ROOT
ATOM      1  C   UNL     1      25.869   0.029  53.220  0.00  0.00    +0.000 A 
ATOM      2  C   UNL     1      25.883   0.896  52.111  0.00  0.00    +0.000 A 
ATOM      3  C   UNL     1      24.738   1.546  51.679  0.00  0.00    +0.000 A 
ATOM      4  C   UNL     1      23.516   1.239  52.258  0.00  0.00    +0.000 A 
ATOM      5  C   UNL     1      23.386   0.248  53.253  0.00  0.00    +0.000 A 
ATOM      6  C   UNL     1      22.126  -0.191  53.770  0.00  0.00    +0.000 A 
ATOM      7  C   UNL     1      22.057  -1.012  54.898  0.00  0.00    +0.000 A 
ATOM      8  C   UNL     1      23.224  -1.425  55.519  0.00  0.00    +0.000 A 
ATOM      9  C   UNL     1      24.463  -1.077  54.975  0.00  0.00    +0.000 A 
ATOM     10  C   UNL     1      24.589  -0.289  53.810  0.00  0.00    +0.000 A 
ENDROOT
BRANCH   1  12
ATOM     11  C   UNL     1      27.947   0.566  54.410  0.00  0.00    +0.000 C 
ATOM     12  N   UNL     1      27.099  -0.442  53.758  0.00  0.00    +0.000 N 
ATOM     13  C   UNL     1      27.846  -1.385  52.916  0.00  0.00    +0.000 C 
ENDBRANCH   1  12
BRANCH   6  14
ATOM     14  S   UNL     1      20.566   0.300  53.027  0.00  0.00    +0.000 S 
ATOM     15  O   UNL     1      20.429   1.735  53.171  0.00  0.00    +0.000 OA
ATOM     16  O   UNL     1      20.521  -0.311  51.715  0.00  0.00    +0.000 OA
BRANCH  14  17
ATOM     17  N   UNL     1      19.353  -0.416  53.922  0.00  0.00    +0.000 N 
ATOM     18  H   UNL     1      19.336  -0.288  54.898  0.00  0.00    +0.000 HD
BRANCH  17  19
ATOM     19  C   UNL     1      18.355  -1.199  53.317  0.00  0.00    +0.000 A 
ATOM     20  C   UNL     1      18.170  -2.525  53.665  0.00  0.00    +0.000 A 
ATOM     21  C   UNL     1      16.996  -3.158  53.258  0.00  0.00    +0.000 A 
ATOM     22  C   UNL     1      16.084  -2.439  52.506  0.00  0.00    +0.000 A 
ATOM     23 BR   UNL     1      14.448  -3.245  52.001  0.00  0.00    +0.000 Br
ATOM     24  N   UNL     1      16.307  -1.152  52.162  0.00  0.00    +0.000 NA
ATOM     25  N   UNL     1      17.456  -0.520  52.585  0.00  0.00    +0.000 NA
ENDBRANCH  17  19
ENDBRANCH  14  17
ENDBRANCH   6  14
TORSDOF 4
ENDMDL
MODEL 2
REMARK VINA RESULT:    -7.653      2.168      3.619
REMARK INTER + INTRA:          -9.887
REMARK INTER:                  -9.572
REMARK INTRA:                  -0.315
REMARK UNBOUND:                -0.445
REMARK  Name = 
REMARK  6 active torsions:
REMARK  status: ('A' for Active; 'I' for Inactive)
REMARK    1  A    between atoms: C_1  and  N_2
REMARK    2  A    between atoms: N_2  and  C_3
REMARK    3  A    between atoms: N_2  and  C_4
REMARK    4  A    between atoms: C_9  and  S_10
REMARK    5  A    between atoms: S_10  and  N_13
REMARK    6  A    between atoms: N_13  and  C_14
REMARK                            x       y       z     vdW  Elec       q    Type
REMARK                         _______ _______ _______ _____ _____    ______ ____
ROOT
ATOM      1  C   UNL     1      26.590   0.141  53.379  0.00  0.00    +0.000 A 
ATOM      2  C   UNL     1      25.685  -0.642  54.119  0.00  0.00    +0.000 A 
ATOM      3  C   UNL     1      24.331  -0.667  53.825  0.00  0.00    +0.000 A 
ATOM      4  C   UNL     1      23.822   0.198  52.869  0.00  0.00    +0.000 A 
ATOM      5  C   UNL     1      24.632   1.145  52.207  0.00  0.00    +0.000 A 
ATOM      6  C   UNL     1      24.116   2.144  51.322  0.00  0.00    +0.000 A 
ATOM      7  C   UNL     1      24.971   2.913  50.529  0.00  0.00    +0.000 A 
ATOM      8  C   UNL     1      26.340   2.724  50.610  0.00  0.00    +0.000 A 
ATOM      9  C   UNL     1      26.863   1.814  51.532  0.00  0.00    +0.000 A 
ATOM     10  C   UNL     1      26.047   1.045  52.391  0.00  0.00    +0.000 A 
ENDROOT
BRANCH   1  12
ATOM     11  C   UNL     1      28.534  -1.349  53.226  0.00  0.00    +0.000 C 
ATOM     12  N   UNL     1      27.990  -0.029  53.574  0.00  0.00    +0.000 N 
ATOM     13  C   UNL     1      28.534   0.522  54.822  0.00  0.00    +0.000 C 
ENDBRANCH   1  12
BRANCH   6  14
ATOM     14  S   UNL     1      22.356   2.453  51.153  0.00  0.00    +0.000 S 
ATOM     15  O   UNL     1      21.850   2.902  52.435  0.00  0.00    +0.000 OA
ATOM     16  O   UNL     1      22.190   3.277  49.973  0.00  0.00    +0.000 OA
BRANCH  14  17
ATOM     17  N   UNL     1      21.633   0.989  50.810  0.00  0.00    +0.000 N 
ATOM     18  H   UNL     1      22.138   0.310  50.305  0.00  0.00    +0.000 HD
BRANCH  17  19
ATOM     19  C   UNL     1      20.322   0.699  51.221  0.00  0.00    +0.000 A 
ATOM     20  C   UNL     1      19.245   0.866  50.368  0.00  0.00    +0.000 A 
ATOM     21  C   UNL     1      18.025   0.292  50.722  0.00  0.00    +0.000 A 
ATOM     22  C   UNL     1      17.941  -0.396  51.921  0.00  0.00    +0.000 A 
ATOM     23 BR   UNL     1      16.321  -1.250  52.396  0.00  0.00    +0.000 Br
ATOM     24  N   UNL     1      19.005  -0.519  52.743  0.00  0.00    +0.000 NA
ATOM     25  N   UNL     1      20.217   0.027  52.381  0.00  0.00    +0.000 NA
ENDBRANCH  17  19
ENDBRANCH  14  17
ENDBRANCH   6  14
TORSDOF 4
ENDMDL
MODEL 3
REMARK VINA RESULT:    -7.567      4.236      5.444
REMARK INTER + INTRA:          -9.781
REMARK INTER:                  -9.516
REMARK INTRA:                  -0.265
REMARK UNBOUND:                -0.445
REMARK  Name = 
REMARK  6 active torsions:
REMARK  status: ('A' for Active; 'I' for Inactive)
REMARK    1  A    between atoms: C_1  and  N_2
REMARK    2  A    between atoms: N_2  and  C_3
REMARK    3  A    between atoms: N_2  and  C_4
REMARK    4  A    between atoms: C_9  and  S_10
REMARK    5  A    between atoms: S_10  and  N_13
REMARK    6  A    between atoms: N_13  and  C_14
REMARK                            x       y       z     vdW  Elec       q    Type
REMARK                         _______ _______ _______ _____ _____    ______ ____
ROOT
ATOM      1  C   UNL     1      26.850   0.263  53.108  0.00  0.00    +0.000 A 
ATOM      2  C   UNL     1      27.243   1.177  52.113  0.00  0.00    +0.000 A 
ATOM      3  C   UNL     1      26.327   1.992  51.467  0.00  0.00    +0.000 A 
ATOM      4  C   UNL     1      24.972   1.817  51.699  0.00  0.00    +0.000 A 
ATOM      5  C   UNL     1      24.481   0.802  52.546  0.00  0.00    +0.000 A 
ATOM      6  C   UNL     1      23.090   0.504  52.698  0.00  0.00    +0.000 A 
ATOM      7  C   UNL     1      22.643  -0.358  53.702  0.00  0.00    +0.000 A 
ATOM      8  C   UNL     1      23.559  -0.952  54.555  0.00  0.00    +0.000 A 
ATOM      9  C   UNL     1      24.926  -0.740  54.365  0.00  0.00    +0.000 A 
ATOM     10  C   UNL     1      25.433   0.084  53.336  0.00  0.00    +0.000 A 
ENDROOT
BRANCH   1  12
ATOM     11  C   UNL     1      28.646   0.471  54.766  0.00  0.00    +0.000 C 
ATOM     12  N   UNL     1      27.840  -0.392  53.893  0.00  0.00    +0.000 N 
ATOM     13  C   UNL     1      28.622  -1.426  53.202  0.00  0.00    +0.000 C 
ENDBRANCH   1  12
BRANCH   6  14
ATOM     14  S   UNL     1      21.837   1.232  51.637  0.00  0.00    +0.000 S 
ATOM     15  O   UNL     1      22.485   1.708  50.432  0.00  0.00    +0.000 OA
ATOM     16  O   UNL     1      20.754   0.272  51.554  0.00  0.00    +0.000 OA
BRANCH  14  17
ATOM     17  N   UNL     1      21.227   2.560  52.442  0.00  0.00    +0.000 N 
ATOM     18  H   UNL     1      20.542   2.428  53.137  0.00  0.00    +0.000 HD
BRANCH  17  19
ATOM     19  C   UNL     1      21.664   3.863  52.151  0.00  0.00    +0.000 A 
ATOM     20  C   UNL     1      22.915   4.307  52.541  0.00  0.00    +0.000 A 
ATOM     21  C   UNL     1      23.405   5.485  51.978  0.00  0.00    +0.000 A 
ATOM     22  C   UNL     1      22.607   6.167  51.076  0.00  0.00    +0.000 A 
ATOM     23 BR   UNL     1      23.271   7.728  50.237  0.00  0.00    +0.000 Br
ATOM     24  N   UNL     1      21.379   5.719  50.736  0.00  0.00    +0.000 NA
ATOM     25  N   UNL     1      20.907   4.542  51.273  0.00  0.00    +0.000 NA
ENDBRANCH  17  19
ENDBRANCH  14  17
ENDBRANCH   6  14
TORSDOF 4
ENDMDL
MODEL 4
REMARK VINA RESULT:    -7.478      3.794      4.677
REMARK INTER + INTRA:          -9.673
REMARK INTER:                  -9.195
REMARK INTRA:                  -0.478
REMARK UNBOUND:                -0.445
REMARK  Name = 
REMARK  6 active torsions:
REMARK  status: ('A' for Active; 'I' for Inactive)
REMARK    1  A    between atoms: C_1  and  N_2
REMARK    2  A    between atoms: N_2  and  C_3
REMARK    3  A    between atoms: N_2  and  C_4
REMARK    4  A    between atoms: C_9  and  S_10
REMARK    5  A    between atoms: S_10  and  N_13
REMARK    6  A    between atoms: N_13  and  C_14
REMARK                            x       y       z     vdW  Elec       q    Type
REMARK                         _______ _______ _______ _____ _____    ______ ____
ROOT
ATOM      1  C   UNL     1      25.005   0.085  53.060  0.00  0.00    +0.000 A 
ATOM      2  C   UNL     1      25.343   1.095  52.139  0.00  0.00    +0.000 A 
ATOM      3  C   UNL     1      24.392   1.962  51.625  0.00  0.00    +0.000 A 
ATOM      4  C   UNL     1      23.052   1.756  51.910  0.00  0.00    +0.000 A 
ATOM      5  C   UNL     1      22.609   0.659  52.678  0.00  0.00    +0.000 A 
ATOM      6  C   UNL     1      21.228   0.338  52.873  0.00  0.00    +0.000 A 
ATOM      7  C   UNL     1      20.837  -0.621  53.810  0.00  0.00    +0.000 A 
ATOM      8  C   UNL     1      21.798  -1.288  54.552  0.00  0.00    +0.000 A 
ATOM      9  C   UNL     1      23.153  -1.049  54.311  0.00  0.00    +0.000 A 
ATOM     10  C   UNL     1      23.603  -0.125  53.342  0.00  0.00    +0.000 A 
ENDROOT
BRANCH   1  12
ATOM     11  C   UNL     1      26.784   0.105  54.749  0.00  0.00    +0.000 C 
ATOM     12  N   UNL     1      26.037  -0.635  53.723  0.00  0.00    +0.000 N 
ATOM     13  C   UNL     1      26.885  -1.473  52.865  0.00  0.00    +0.000 C 
ENDBRANCH   1  12
BRANCH   6  14
ATOM     14  S   UNL     1      19.919   1.156  51.955  0.00  0.00    +0.000 S 
ATOM     15  O   UNL     1      20.339   1.271  50.573  0.00  0.00    +0.000 OA
ATOM     16  O   UNL     1      18.687   0.471  52.289  0.00  0.00    +0.000 OA
BRANCH  14  17
ATOM     17  N   UNL     1      19.781   2.700  52.573  0.00  0.00    +0.000 N 
ATOM     18  H   UNL     1      19.750   2.826  53.549  0.00  0.00    +0.000 HD
BRANCH  17  19
ATOM     19  C   UNL     1      19.705   3.825  51.735  0.00  0.00    +0.000 A 
ATOM     20  C   UNL     1      20.837   4.540  51.386  0.00  0.00    +0.000 A 
ATOM     21  C   UNL     1      20.746   5.451  50.334  0.00  0.00    +0.000 A 
ATOM     22  C   UNL     1      19.524   5.613  49.704  0.00  0.00    +0.000 A 
ATOM     23 BR   UNL     1      19.384   6.784  48.224  0.00  0.00    +0.000 Br
ATOM     24  N   UNL     1      18.432   4.916  50.086  0.00  0.00    +0.000 NA
ATOM     25  N   UNL     1      18.528   3.999  51.109  0.00  0.00    +0.000 NA
ENDBRANCH  17  19
ENDBRANCH  14  17
ENDBRANCH   6  14
TORSDOF 4
ENDMDL
MODEL 5
REMARK VINA RESULT:    -7.453      3.983      8.360
REMARK INTER + INTRA:          -9.641
REMARK INTER:                  -9.320
REMARK INTRA:                  -0.320
REMARK UNBOUND:                -0.445
REMARK  Name = 
REMARK  6 active torsions:
REMARK  status: ('A' for Active; 'I' for Inactive)
REMARK    1  A    between atoms: C_1  and  N_2
REMARK    2  A    between atoms: N_2  and  C_3
REMARK    3  A    between atoms: N_2  and  C_4
REMARK    4  A    between atoms: C_9  and  S_10
REMARK    5  A    between atoms: S_10  and  N_13
REMARK    6  A    between atoms: N_13  and  C_14
REMARK                            x       y       z     vdW  Elec       q    Type
REMARK                         _______ _______ _______ _____ _____    ______ ____
ROOT
ATOM      1  C   UNL     1      17.562  -0.092  50.948  0.00  0.00    +0.000 A 
ATOM      2  C   UNL     1      17.081  -0.884  52.007  0.00  0.00    +0.000 A 
ATOM      3  C   UNL     1      17.824  -1.092  53.158  0.00  0.00    +0.000 A 
ATOM      4  C   UNL     1      19.127  -0.627  53.225  0.00  0.00    +0.000 A 
ATOM      5  C   UNL     1      19.749   0.021  52.137  0.00  0.00    +0.000 A 
ATOM      6  C   UNL     1      21.133   0.386  52.122  0.00  0.00    +0.000 A 
ATOM      7  C   UNL     1      21.648   1.211  51.120  0.00  0.00    +0.000 A 
ATOM      8  C   UNL     1      20.817   1.670  50.113  0.00  0.00    +0.000 A 
ATOM      9  C   UNL     1      19.485   1.252  50.065  0.00  0.00    +0.000 A 
ATOM     10  C   UNL     1      18.925   0.381  51.026  0.00  0.00    +0.000 A 
ENDROOT
BRANCH   1  12
ATOM     11  C   UNL     1      15.776   1.394  50.157  0.00  0.00    +0.000 C 
ATOM     12  N   UNL     1      16.685   0.271  49.887  0.00  0.00    +0.000 N 
ATOM     13  C   UNL     1      16.049  -0.844  49.174  0.00  0.00    +0.000 C 
ENDBRANCH   1  12
BRANCH   6  14
ATOM     14  S   UNL     1      22.280  -0.163  53.391  0.00  0.00    +0.000 S 
ATOM     15  O   UNL     1      21.660   0.049  54.683  0.00  0.00    +0.000 OA
ATOM     16  O   UNL     1      22.726  -1.485  53.003  0.00  0.00    +0.000 OA
BRANCH  14  17
ATOM     17  N   UNL     1      23.618   0.830  53.302  0.00  0.00    +0.000 N 
ATOM     18  H   UNL     1      23.491   1.806  53.264  0.00  0.00    +0.000 HD
BRANCH  17  19
ATOM     19  C   UNL     1      24.922   0.309  53.280  0.00  0.00    +0.000 A 
ATOM     20  C   UNL     1      25.714   0.397  52.149  0.00  0.00    +0.000 A 
ATOM     21  C   UNL     1      27.078   0.134  52.273  0.00  0.00    +0.000 A 
ATOM     22  C   UNL     1      27.571  -0.224  53.516  0.00  0.00    +0.000 A 
ATOM     23 BR   UNL     1      29.428  -0.513  53.736  0.00  0.00    +0.000 Br
ATOM     24  N   UNL     1      26.766  -0.325  54.596  0.00  0.00    +0.000 NA
ATOM     25  N   UNL     1      25.423  -0.042  54.477  0.00  0.00    +0.000 NA
ENDBRANCH  17  19
ENDBRANCH  14  17
ENDBRANCH   6  14
TORSDOF 4
ENDMDL
MODEL 6
REMARK VINA RESULT:    -7.333      2.057      2.224
REMARK INTER + INTRA:          -9.493
REMARK INTER:                  -9.107
REMARK INTRA:                  -0.386
REMARK UNBOUND:                -0.445
REMARK  Name = 
REMARK  6 active torsions:
REMARK  status: ('A' for Active; 'I' for Inactive)
REMARK    1  A    between atoms: C_1  and  N_2
REMARK    2  A    between atoms: N_2  and  C_3
REMARK    3  A    between atoms: N_2  and  C_4
REMARK    4  A    between atoms: C_9  and  S_10
REMARK    5  A    between atoms: S_10  and  N_13
REMARK    6  A    between atoms: N_13  and  C_14
REMARK                            x       y       z     vdW  Elec       q    Type
REMARK                         _______ _______ _______ _____ _____    ______ ____
ROOT
ATOM      1  C   UNL     1      26.750   0.230  53.199  0.00  0.00    +0.000 A 
ATOM      2  C   UNL     1      27.089   1.147  52.186  0.00  0.00    +0.000 A 
ATOM      3  C   UNL     1      26.137   1.957  51.587  0.00  0.00    +0.000 A 
ATOM      4  C   UNL     1      24.796   1.774  51.886  0.00  0.00    +0.000 A 
ATOM      5  C   UNL     1      24.354   0.755  52.756  0.00  0.00    +0.000 A 
ATOM      6  C   UNL     1      22.973   0.450  52.976  0.00  0.00    +0.000 A 
ATOM      7  C   UNL     1      22.583  -0.416  54.001  0.00  0.00    +0.000 A 
ATOM      8  C   UNL     1      23.543  -1.004  54.807  0.00  0.00    +0.000 A 
ATOM      9  C   UNL     1      24.898  -0.785  54.549  0.00  0.00    +0.000 A 
ATOM     10  C   UNL     1      25.348   0.043  53.496  0.00  0.00    +0.000 A 
ENDROOT
BRANCH   1  12
ATOM     11  C   UNL     1      28.632   0.449  54.759  0.00  0.00    +0.000 C 
ATOM     12  N   UNL     1      27.783  -0.420  53.932  0.00  0.00    +0.000 N 
ATOM     13  C   UNL     1      28.529  -1.455  53.205  0.00  0.00    +0.000 C 
ENDBRANCH   1  12
BRANCH   6  14
ATOM     14  S   UNL     1      21.665   1.171  51.980  0.00  0.00    +0.000 S 
ATOM     15  O   UNL     1      21.701   2.608  52.158  0.00  0.00    +0.000 OA
ATOM     16  O   UNL     1      21.786   0.595  50.656  0.00  0.00    +0.000 OA
BRANCH  14  17
ATOM     17  N   UNL     1      20.217   0.620  52.601  0.00  0.00    +0.000 N 
ATOM     18  H   UNL     1      20.208   0.188  53.487  0.00  0.00    +0.000 HD
BRANCH  17  19
ATOM     19  C   UNL     1      19.012   0.756  51.893  0.00  0.00    +0.000 A 
ATOM     20  C   UNL     1      18.246  -0.346  51.558  0.00  0.00    +0.000 A 
ATOM     21  C   UNL     1      16.937  -0.135  51.125  0.00  0.00    +0.000 A 
ATOM     22  C   UNL     1      16.474   1.166  51.029  0.00  0.00    +0.000 A 
ATOM     23 BR   UNL     1      14.680   1.484  50.519  0.00  0.00    +0.000 Br
ATOM     24  N   UNL     1      17.257   2.221  51.341  0.00  0.00    +0.000 NA
ATOM     25  N   UNL     1      18.542   2.011  51.792  0.00  0.00    +0.000 NA
ENDBRANCH  17  19
ENDBRANCH  14  17
ENDBRANCH   6  14
TORSDOF 4
ENDMDL
MODEL 7
REMARK VINA RESULT:    -7.204      4.944      6.629
REMARK INTER + INTRA:          -9.333
REMARK INTER:                  -8.810
REMARK INTRA:                  -0.524
REMARK UNBOUND:                -0.445
REMARK  Name = 
REMARK  6 active torsions:
REMARK  status: ('A' for Active; 'I' for Inactive)
REMARK    1  A    between atoms: C_1  and  N_2
REMARK    2  A    between atoms: N_2  and  C_3
REMARK    3  A    between atoms: N_2  and  C_4
REMARK    4  A    between atoms: C_9  and  S_10
REMARK    5  A    between atoms: S_10  and  N_13
REMARK    6  A    between atoms: N_13  and  C_14
REMARK                            x       y       z     vdW  Elec       q    Type
REMARK                         _______ _______ _______ _____ _____    ______ ____
ROOT
ATOM      1  C   UNL     1      26.051   0.146  53.190  0.00  0.00    +0.000 A 
ATOM      2  C   UNL     1      25.016  -0.517  53.875  0.00  0.00    +0.000 A 
ATOM      3  C   UNL     1      23.686  -0.354  53.523  0.00  0.00    +0.000 A 
ATOM      4  C   UNL     1      23.342   0.585  52.564  0.00  0.00    +0.000 A 
ATOM      5  C   UNL     1      24.301   1.422  51.956  0.00  0.00    +0.000 A 
ATOM      6  C   UNL     1      23.965   2.495  51.070  0.00  0.00    +0.000 A 
ATOM      7  C   UNL     1      24.950   3.152  50.330  0.00  0.00    +0.000 A 
ATOM      8  C   UNL     1      26.276   2.777  50.465  0.00  0.00    +0.000 A 
ATOM      9  C   UNL     1      26.630   1.792  51.390  0.00  0.00    +0.000 A 
ATOM     10  C   UNL     1      25.679   1.129  52.198  0.00  0.00    +0.000 A 
ENDROOT
BRANCH   1  12
ATOM     11  C   UNL     1      27.821  -1.537  52.949  0.00  0.00    +0.000 C 
ATOM     12  N   UNL     1      27.405  -0.216  53.440  0.00  0.00    +0.000 N 
ATOM     13  C   UNL     1      27.914   0.102  54.781  0.00  0.00    +0.000 C 
ENDBRANCH   1  12
BRANCH   6  14
ATOM     14  S   UNL     1      22.271   3.042  50.833  0.00  0.00    +0.000 S 
ATOM     15  O   UNL     1      21.530   1.964  50.211  0.00  0.00    +0.000 OA
ATOM     16  O   UNL     1      21.833   3.596  52.099  0.00  0.00    +0.000 OA
BRANCH  14  17
ATOM     17  N   UNL     1      22.315   4.314  49.754  0.00  0.00    +0.000 N 
ATOM     18  H   UNL     1      22.852   4.229  48.932  0.00  0.00    +0.000 HD
BRANCH  17  19
ATOM     19  C   UNL     1      21.608   5.505  49.988  0.00  0.00    +0.000 A 
ATOM     20  C   UNL     1      22.251   6.655  50.407  0.00  0.00    +0.000 A 
ATOM     21  C   UNL     1      21.559   7.864  50.338  0.00  0.00    +0.000 A 
ATOM     22  C   UNL     1      20.254   7.852  49.877  0.00  0.00    +0.000 A 
ATOM     23 BR   UNL     1      19.311   9.483  49.700  0.00  0.00    +0.000 Br
ATOM     24  N   UNL     1      19.646   6.707  49.499  0.00  0.00    +0.000 NA
ATOM     25  N   UNL     1      20.339   5.517  49.543  0.00  0.00    +0.000 NA
ENDBRANCH  17  19
ENDBRANCH  14  17
ENDBRANCH   6  14
TORSDOF 4
ENDMDL
MODEL 8
REMARK VINA RESULT:    -7.109      5.895      8.721
REMARK INTER + INTRA:          -9.216
REMARK INTER:                  -9.323
REMARK INTRA:                   0.106
REMARK UNBOUND:                -0.445
REMARK  Name = 
REMARK  6 active torsions:
REMARK  status: ('A' for Active; 'I' for Inactive)
REMARK    1  A    between atoms: C_1  and  N_2
REMARK    2  A    between atoms: N_2  and  C_3
REMARK    3  A    between atoms: N_2  and  C_4
REMARK    4  A    between atoms: C_9  and  S_10
REMARK    5  A    between atoms: S_10  and  N_13
REMARK    6  A    between atoms: N_13  and  C_14
REMARK                            x       y       z     vdW  Elec       q    Type
REMARK                         _______ _______ _______ _____ _____    ______ ____
ROOT
ATOM      1  C   UNL     1      25.687   7.494  49.173  0.00  0.00    +0.000 A 
ATOM      2  C   UNL     1      24.723   8.220  49.897  0.00  0.00    +0.000 A 
ATOM      3  C   UNL     1      24.038   7.660  50.964  0.00  0.00    +0.000 A 
ATOM      4  C   UNL     1      24.199   6.314  51.251  0.00  0.00    +0.000 A 
ATOM      5  C   UNL     1      25.010   5.471  50.462  0.00  0.00    +0.000 A 
ATOM      6  C   UNL     1      25.088   4.054  50.645  0.00  0.00    +0.000 A 
ATOM      7  C   UNL     1      26.059   3.296  49.987  0.00  0.00    +0.000 A 
ATOM      8  C   UNL     1      26.952   3.917  49.131  0.00  0.00    +0.000 A 
ATOM      9  C   UNL     1      26.834   5.285  48.875  0.00  0.00    +0.000 A 
ATOM     10  C   UNL     1      25.840   6.090  49.476  0.00  0.00    +0.000 A 
ENDROOT
BRANCH   1  12
ATOM     11  C   UNL     1      27.698   8.845  48.783  0.00  0.00    +0.000 C 
ATOM     12  N   UNL     1      26.515   8.170  48.233  0.00  0.00    +0.000 N 
ATOM     13  C   UNL     1      25.811   8.954  47.209  0.00  0.00    +0.000 C 
ENDBRANCH   1  12
BRANCH   6  14
ATOM     14  S   UNL     1      23.971   3.169  51.738  0.00  0.00    +0.000 S 
ATOM     15  O   UNL     1      22.771   3.965  51.900  0.00  0.00    +0.000 OA
ATOM     16  O   UNL     1      23.886   1.813  51.237  0.00  0.00    +0.000 OA
BRANCH  14  17
ATOM     17  N   UNL     1      24.719   3.074  53.227  0.00  0.00    +0.000 N 
ATOM     18  H   UNL     1      24.488   3.731  53.924  0.00  0.00    +0.000 HD
BRANCH  17  19
ATOM     19  C   UNL     1      25.672   2.082  53.511  0.00  0.00    +0.000 A 
ATOM     20  C   UNL     1      25.314   0.750  53.622  0.00  0.00    +0.000 A 
ATOM     21  C   UNL     1      26.325  -0.210  53.610  0.00  0.00    +0.000 A 
ATOM     22  C   UNL     1      27.639   0.215  53.512  0.00  0.00    +0.000 A 
ATOM     23 BR   UNL     1      29.030  -1.064  53.418  0.00  0.00    +0.000 Br
ATOM     24  N   UNL     1      27.955   1.526  53.432  0.00  0.00    +0.000 NA
ATOM     25  N   UNL     1      26.955   2.472  53.418  0.00  0.00    +0.000 NA
ENDBRANCH  17  19
ENDBRANCH  14  17
ENDBRANCH   6  14
TORSDOF 4
ENDMDL
MODEL 9
REMARK VINA RESULT:    -7.103      5.649      7.641
REMARK INTER + INTRA:          -9.210
REMARK INTER:                  -8.881
REMARK INTRA:                  -0.329
REMARK UNBOUND:                -0.445
REMARK  Name = 
REMARK  6 active torsions:
REMARK  status: ('A' for Active; 'I' for Inactive)
REMARK    1  A    between atoms: C_1  and  N_2
REMARK    2  A    between atoms: N_2  and  C_3
REMARK    3  A    between atoms: N_2  and  C_4
REMARK    4  A    between atoms: C_9  and  S_10
REMARK    5  A    between atoms: S_10  and  N_13
REMARK    6  A    between atoms: N_13  and  C_14
REMARK                            x       y       z     vdW  Elec       q    Type
REMARK                         _______ _______ _______ _____ _____    ______ ____
ROOT
ATOM      1  C   UNL     1      26.548   7.710  48.953  0.00  0.00    +0.000 A 
ATOM      2  C   UNL     1      25.625   8.650  49.447  0.00  0.00    +0.000 A 
ATOM      3  C   UNL     1      24.588   8.281  50.289  0.00  0.00    +0.000 A 
ATOM      4  C   UNL     1      24.362   6.938  50.549  0.00  0.00    +0.000 A 
ATOM      5  C   UNL     1      25.130   5.918  49.950  0.00  0.00    +0.000 A 
ATOM      6  C   UNL     1      24.836   4.525  50.085  0.00  0.00    +0.000 A 
ATOM      7  C   UNL     1      25.742   3.553  49.655  0.00  0.00    +0.000 A 
ATOM      8  C   UNL     1      26.937   3.938  49.072  0.00  0.00    +0.000 A 
ATOM      9  C   UNL     1      27.200   5.292  48.853  0.00  0.00    +0.000 A 
ATOM     10  C   UNL     1      26.298   6.313  49.225  0.00  0.00    +0.000 A 
ENDROOT
BRANCH   1  12
ATOM     11  C   UNL     1      28.743   8.796  49.110  0.00  0.00    +0.000 C 
ATOM     12  N   UNL     1      27.715   8.161  48.274  0.00  0.00    +0.000 N 
ATOM     13  C   UNL     1      27.486   8.850  46.997  0.00  0.00    +0.000 C 
ENDBRANCH   1  12
BRANCH   6  14
ATOM     14  S   UNL     1      23.311   3.939  50.832  0.00  0.00    +0.000 S 
ATOM     15  O   UNL     1      23.459   4.006  52.272  0.00  0.00    +0.000 OA
ATOM     16  O   UNL     1      22.229   4.643  50.175  0.00  0.00    +0.000 OA
BRANCH  14  17
ATOM     17  N   UNL     1      23.148   2.332  50.415  0.00  0.00    +0.000 N 
ATOM     18  H   UNL     1      23.035   2.091  49.466  0.00  0.00    +0.000 HD
BRANCH  17  19
ATOM     19  C   UNL     1      23.167   1.313  51.382  0.00  0.00    +0.000 A 
ATOM     20  C   UNL     1      24.302   1.047  52.126  0.00  0.00    +0.000 A 
ATOM     21  C   UNL     1      24.178   0.241  53.257  0.00  0.00    +0.000 A 
ATOM     22  C   UNL     1      22.931  -0.274  53.568  0.00  0.00    +0.000 A 
ATOM     23 BR   UNL     1      22.713  -1.310  55.137  0.00  0.00    +0.000 Br
ATOM     24  N   UNL     1      21.847  -0.015  52.805  0.00  0.00    +0.000 NA
ATOM     25  N   UNL     1      21.966   0.802  51.702  0.00  0.00    +0.000 NA
ENDBRANCH  17  19
ENDBRANCH  14  17
ENDBRANCH   6  14
TORSDOF 4
ENDMDL
