MODEL 1
REMARK VINA RESULT:   -10.021      0.000      0.000
REMARK INTER + INTRA:         -11.747
REMARK INTER:                 -11.193
REMARK INTRA:                  -0.554
REMARK UNBOUND:                -0.554
REMARK  Name = 
REMARK  2 active torsions:
REMARK  status: ('A' for Active; 'I' for Inactive)
REMARK    1  A    between atoms: N_5  and  C_6
REMARK    2  A    between atoms: C_9  and  C_10
REMARK                            x       y       z     vdW  Elec       q    Type
REMARK                         _______ _______ _______ _____ _____    ______ ____
ROOT
ATOM      1  C   UNL     1      20.736   0.680  52.643  0.00  0.00    +0.000 A 
ATOM      2  C   UNL     1      20.223   1.989  52.540  0.00  0.00    +0.000 A 
ATOM      3  C   UNL     1      19.096   2.248  51.801  0.00  0.00    +0.000 A 
ATOM      4  C   UNL     1      18.371   1.170  51.367  0.00  0.00    +0.000 A 
ATOM      5  O   UNL     1      17.343   1.377  50.504  0.00  0.00    +0.000 OA
ATOM      6  C   UNL     1      16.168   1.279  51.182  0.00  0.00    +0.000 A 
ATOM      7  C   UNL     1      15.309   2.358  51.014  0.00  0.00    +0.000 A 
ATOM      8  C   UNL     1      14.263   2.497  51.904  0.00  0.00    +0.000 A 
ATOM      9  C   UNL     1      14.063   1.514  52.884  0.00  0.00    +0.000 A 
ATOM     10 CL   UNL     1      12.798   1.774  54.025  0.00  0.00    +0.000 Cl
ATOM     11  C   UNL     1      14.904   0.385  53.000  0.00  0.00    +0.000 A 
ATOM     12  C   UNL     1      16.001   0.276  52.150  0.00  0.00    +0.000 A 
ATOM     13  C   UNL     1      17.187  -0.671  52.353  0.00  0.00    +0.000 A 
ATOM     14  O   UNL     1      17.079  -1.762  52.904  0.00  0.00    +0.000 OA
ATOM     15  C   UNL     1      18.526  -0.055  51.994  0.00  0.00    +0.000 A 
ATOM     16  C   UNL     1      19.789  -0.367  52.519  0.00  0.00    +0.000 A 
ENDROOT
BRANCH   1  20
ATOM     17  C   UNL     1      25.030   0.121  53.246  0.00  0.00    +0.000 A 
ATOM     18  C   UNL     1      24.549   1.171  52.444  0.00  0.00    +0.000 A 
ATOM     19  C   UNL     1      23.167   1.387  52.228  0.00  0.00    +0.000 A 
ATOM     20  C   UNL     1      22.212   0.568  52.826  0.00  0.00    +0.000 A 
ATOM     21  C   UNL     1      22.719  -0.403  53.727  0.00  0.00    +0.000 A 
ATOM     22  C   UNL     1      24.075  -0.656  53.903  0.00  0.00    +0.000 A 
BRANCH  17  27
ATOM     23  O   UNL     1      30.238  -0.901  54.231  0.00  0.00    +0.000 OA
ATOM     24  C   UNL     1      29.075  -0.721  53.927  0.00  0.00    +0.000 A 
ATOM     25  C   UNL     1      28.358   0.483  54.427  0.00  0.00    +0.000 A 
ATOM     26  N   UNL     1      27.122   0.726  54.158  0.00  0.00    +0.000 NA
ATOM     27  N   UNL     1      26.416  -0.199  53.393  0.00  0.00    +0.000 N 
ATOM     28  C   UNL     1      27.008  -1.345  52.841  0.00  0.00    +0.000 A 
ATOM     29  O   UNL     1      26.465  -2.160  52.093  0.00  0.00    +0.000 OA
ATOM     30  N   UNL     1      28.321  -1.549  53.153  0.00  0.00    +0.000 N 
ATOM     31  H   UNL     1      28.755  -2.356  52.790  0.00  0.00    +0.000 HD
ENDBRANCH  17  27
ENDBRANCH   1  20
TORSDOF 2
ENDMDL
MODEL 2
REMARK VINA RESULT:    -9.795      4.831     10.497
REMARK INTER + INTRA:         -11.494
REMARK INTER:                 -11.149
REMARK INTRA:                  -0.345
REMARK UNBOUND:                -0.554
REMARK  Name = 
REMARK  2 active torsions:
REMARK  status: ('A' for Active; 'I' for Inactive)
REMARK    1  A    between atoms: N_5  and  C_6
REMARK    2  A    between atoms: C_9  and  C_10
REMARK                            x       y       z     vdW  Elec       q    Type
REMARK                         _______ _______ _______ _____ _____    ______ ____
ROOT
ATOM      1  C   UNL     1      23.034   0.267  52.672  0.00  0.00    +0.000 A 
ATOM      2  C   UNL     1      23.641  -0.526  53.668  0.00  0.00    +0.000 A 
ATOM      3  C   UNL     1      24.946  -0.930  53.547  0.00  0.00    +0.000 A 
ATOM      4  C   UNL     1      25.692  -0.351  52.555  0.00  0.00    +0.000 A 
ATOM      5  O   UNL     1      26.935  -0.836  52.303  0.00  0.00    +0.000 OA
ATOM      6  C   UNL     1      27.858   0.017  52.825  0.00  0.00    +0.000 A 
ATOM      7  C   UNL     1      28.798  -0.583  53.654  0.00  0.00    +0.000 A 
ATOM      8  C   UNL     1      29.553   0.232  54.473  0.00  0.00    +0.000 A 
ATOM      9  C   UNL     1      29.399   1.623  54.383  0.00  0.00    +0.000 A 
ATOM     10 CL   UNL     1      30.299   2.596  55.485  0.00  0.00    +0.000 Cl
ATOM     11  C   UNL     1      28.487   2.223  53.487  0.00  0.00    +0.000 A 
ATOM     12  C   UNL     1      27.674   1.403  52.708  0.00  0.00    +0.000 A 
ATOM     13  C   UNL     1      26.420   1.857  51.957  0.00  0.00    +0.000 A 
ATOM     14  O   UNL     1      26.293   2.989  51.500  0.00  0.00    +0.000 OA
ATOM     15  C   UNL     1      25.284   0.854  52.008  0.00  0.00    +0.000 A 
ATOM     16  C   UNL     1      23.905   1.104  51.932  0.00  0.00    +0.000 A 
ENDROOT
BRANCH   1  20
ATOM     17  C   UNL     1      18.702  -0.264  52.408  0.00  0.00    +0.000 A 
ATOM     18  C   UNL     1      19.429   0.251  51.321  0.00  0.00    +0.000 A 
ATOM     19  C   UNL     1      20.832   0.434  51.365  0.00  0.00    +0.000 A 
ATOM     20  C   UNL     1      21.564   0.088  52.499  0.00  0.00    +0.000 A 
ATOM     21  C   UNL     1      20.825  -0.544  53.533  0.00  0.00    +0.000 A 
ATOM     22  C   UNL     1      19.441  -0.678  53.518  0.00  0.00    +0.000 A 
BRANCH  17  27
ATOM     23  O   UNL     1      13.310  -0.300  52.173  0.00  0.00    +0.000 OA
ATOM     24  C   UNL     1      14.517  -0.361  52.292  0.00  0.00    +0.000 A 
ATOM     25  C   UNL     1      15.351   0.838  52.010  0.00  0.00    +0.000 A 
ATOM     26  N   UNL     1      16.636   0.836  52.100  0.00  0.00    +0.000 NA
ATOM     27  N   UNL     1      17.276  -0.353  52.442  0.00  0.00    +0.000 N 
ATOM     28  C   UNL     1      16.581  -1.528  52.765  0.00  0.00    +0.000 A 
ATOM     29  O   UNL     1      17.077  -2.588  53.151  0.00  0.00    +0.000 OA
ATOM     30  N   UNL     1      15.221  -1.468  52.660  0.00  0.00    +0.000 N 
ATOM     31  H   UNL     1      14.712  -2.285  52.867  0.00  0.00    +0.000 HD
ENDBRANCH  17  27
ENDBRANCH   1  20
TORSDOF 2
ENDMDL
MODEL 3
REMARK VINA RESULT:    -9.608      1.073      1.566
REMARK INTER + INTRA:         -11.286
REMARK INTER:                 -10.797
REMARK INTRA:                  -0.489
REMARK UNBOUND:                -0.554
REMARK  Name = 
REMARK  2 active torsions:
REMARK  status: ('A' for Active; 'I' for Inactive)
REMARK    1  A    between atoms: N_5  and  C_6
REMARK    2  A    between atoms: C_9  and  C_10
REMARK                            x       y       z     vdW  Elec       q    Type
REMARK                         _______ _______ _______ _____ _____    ______ ____
ROOT
ATOM      1  C   UNL     1      20.572   0.582  52.678  0.00  0.00    +0.000 A 
ATOM      2  C   UNL     1      20.186   1.935  52.586  0.00  0.00    +0.000 A 
ATOM      3  C   UNL     1      19.104   2.308  51.831  0.00  0.00    +0.000 A 
ATOM      4  C   UNL     1      18.290   1.310  51.366  0.00  0.00    +0.000 A 
ATOM      5  O   UNL     1      17.304   1.625  50.486  0.00  0.00    +0.000 OA
ATOM      6  C   UNL     1      16.111   1.628  51.141  0.00  0.00    +0.000 A 
ATOM      7  C   UNL     1      15.361   2.786  50.974  0.00  0.00    +0.000 A 
ATOM      8  C   UNL     1      14.315   3.010  51.845  0.00  0.00    +0.000 A 
ATOM      9  C   UNL     1      14.003   2.036  52.805  0.00  0.00    +0.000 A 
ATOM     10 CL   UNL     1      12.745   2.397  53.926  0.00  0.00    +0.000 Cl
ATOM     11  C   UNL     1      14.732   0.831  52.919  0.00  0.00    +0.000 A 
ATOM     12  C   UNL     1      15.831   0.631  52.088  0.00  0.00    +0.000 A 
ATOM     13  C   UNL     1      16.918  -0.425  52.298  0.00  0.00    +0.000 A 
ATOM     14  O   UNL     1      16.698  -1.509  52.830  0.00  0.00    +0.000 OA
ATOM     15  C   UNL     1      18.316   0.067  51.976  0.00  0.00    +0.000 A 
ATOM     16  C   UNL     1      19.534  -0.370  52.519  0.00  0.00    +0.000 A 
ENDROOT
BRANCH   1  20
ATOM     17  C   UNL     1      24.882   0.057  53.187  0.00  0.00    +0.000 A 
ATOM     18  C   UNL     1      23.973  -0.689  53.957  0.00  0.00    +0.000 A 
ATOM     19  C   UNL     1      22.572  -0.552  53.819  0.00  0.00    +0.000 A 
ATOM     20  C   UNL     1      22.027   0.329  52.887  0.00  0.00    +0.000 A 
ATOM     21  C   UNL     1      22.963   0.976  52.040  0.00  0.00    +0.000 A 
ATOM     22  C   UNL     1      24.340   0.886  52.204  0.00  0.00    +0.000 A 
BRANCH  17  27
ATOM     23  O   UNL     1      30.251  -0.354  53.561  0.00  0.00    +0.000 OA
ATOM     24  C   UNL     1      29.048  -0.191  53.541  0.00  0.00    +0.000 A 
ATOM     25  C   UNL     1      28.152  -1.326  53.195  0.00  0.00    +0.000 A 
ATOM     26  N   UNL     1      26.870  -1.217  53.139  0.00  0.00    +0.000 NA
ATOM     27  N   UNL     1      26.299   0.031  53.379  0.00  0.00    +0.000 N 
ATOM     28  C   UNL     1      27.051   1.155  53.751  0.00  0.00    +0.000 A 
ATOM     29  O   UNL     1      26.606   2.264  54.053  0.00  0.00    +0.000 OA
ATOM     30  N   UNL     1      28.404   0.981  53.801  0.00  0.00    +0.000 N 
ATOM     31  H   UNL     1      28.954   1.760  54.045  0.00  0.00    +0.000 HD
ENDBRANCH  17  27
ENDBRANCH   1  20
TORSDOF 2
ENDMDL
MODEL 4
REMARK VINA RESULT:    -9.470      5.146     10.454
REMARK INTER + INTRA:         -11.131
REMARK INTER:                 -10.514
REMARK INTRA:                  -0.617
REMARK UNBOUND:                -0.554
REMARK  Name = 
REMARK  2 active torsions:
REMARK  status: ('A' for Active; 'I' for Inactive)
REMARK    1  A    between atoms: N_5  and  C_6
REMARK    2  A    between atoms: C_9  and  C_10
REMARK                            x       y       z     vdW  Elec       q    Type
REMARK                         _______ _______ _______ _____ _____    ______ ____
ROOT
ATOM      1  C   UNL     1      22.381   0.705  52.029  0.00  0.00    +0.000 A 
ATOM      2  C   UNL     1      23.333   1.395  51.250  0.00  0.00    +0.000 A 
ATOM      3  C   UNL     1      24.405   2.018  51.836  0.00  0.00    +0.000 A 
ATOM      4  C   UNL     1      24.636   1.753  53.160  0.00  0.00    +0.000 A 
ATOM      5  O   UNL     1      25.587   2.469  53.815  0.00  0.00    +0.000 OA
ATOM      6  C   UNL     1      26.696   1.697  53.968  0.00  0.00    +0.000 A 
ATOM      7  C   UNL     1      27.876   2.282  53.526  0.00  0.00    +0.000 A 
ATOM      8  C   UNL     1      28.973   1.466  53.339  0.00  0.00    +0.000 A 
ATOM      9  C   UNL     1      28.880   0.107  53.672  0.00  0.00    +0.000 A 
ATOM     10 CL   UNL     1      30.246  -0.890  53.342  0.00  0.00    +0.000 Cl
ATOM     11  C   UNL     1      27.693  -0.462  54.186  0.00  0.00    +0.000 A 
ATOM     12  C   UNL     1      26.563   0.342  54.311  0.00  0.00    +0.000 A 
ATOM     13  C   UNL     1      25.134  -0.166  54.514  0.00  0.00    +0.000 A 
ATOM     14  O   UNL     1      24.876  -1.203  55.118  0.00  0.00    +0.000 OA
ATOM     15  C   UNL     1      24.094   0.616  53.734  0.00  0.00    +0.000 A 
ATOM     16  C   UNL     1      22.856   0.165  53.250  0.00  0.00    +0.000 A 
ENDROOT
BRANCH   1  20
ATOM     17  C   UNL     1      18.228   0.587  50.671  0.00  0.00    +0.000 A 
ATOM     18  C   UNL     1      19.234   1.133  49.855  0.00  0.00    +0.000 A 
ATOM     19  C   UNL     1      20.590   1.185  50.256  0.00  0.00    +0.000 A 
ATOM     20  C   UNL     1      20.992   0.674  51.488  0.00  0.00    +0.000 A 
ATOM     21  C   UNL     1      19.981   0.019  52.236  0.00  0.00    +0.000 A 
ATOM     22  C   UNL     1      18.638   0.009  51.873  0.00  0.00    +0.000 A 
BRANCH  17  27
ATOM     23  O   UNL     1      12.980   0.249  49.453  0.00  0.00    +0.000 OA
ATOM     24  C   UNL     1      14.148   0.420  49.737  0.00  0.00    +0.000 A 
ATOM     25  C   UNL     1      15.180  -0.524  49.229  0.00  0.00    +0.000 A 
ATOM     26  N   UNL     1      16.433  -0.411  49.505  0.00  0.00    +0.000 NA
ATOM     27  N   UNL     1      16.835   0.622  50.349  0.00  0.00    +0.000 N 
ATOM     28  C   UNL     1      15.949   1.587  50.851  0.00  0.00    +0.000 A 
ATOM     29  O   UNL     1      16.247   2.568  51.535  0.00  0.00    +0.000 OA
ATOM     30  N   UNL     1      14.634   1.423  50.520  0.00  0.00    +0.000 N 
ATOM     31  H   UNL     1      13.991   2.079  50.874  0.00  0.00    +0.000 HD
ENDBRANCH  17  27
ENDBRANCH   1  20
TORSDOF 2
ENDMDL
MODEL 5
REMARK VINA RESULT:    -9.179      7.039     10.651
REMARK INTER + INTRA:         -10.807
REMARK INTER:                 -10.216
REMARK INTRA:                  -0.591
REMARK UNBOUND:                -0.554
REMARK  Name = 
REMARK  2 active torsions:
REMARK  status: ('A' for Active; 'I' for Inactive)
REMARK    1  A    between atoms: N_5  and  C_6
REMARK    2  A    between atoms: C_9  and  C_10
REMARK                            x       y       z     vdW  Elec       q    Type
REMARK                         _______ _______ _______ _____ _____    ______ ____
ROOT
ATOM      1  C   UNL     1      24.793   4.390  50.660  0.00  0.00    +0.000 A 
ATOM      2  C   UNL     1      26.053   3.909  50.248  0.00  0.00    +0.000 A 
ATOM      3  C   UNL     1      26.737   4.514  49.225  0.00  0.00    +0.000 A 
ATOM      4  C   UNL     1      26.264   5.721  48.783  0.00  0.00    +0.000 A 
ATOM      5  O   UNL     1      26.816   6.273  47.671  0.00  0.00    +0.000 OA
ATOM      6  C   UNL     1      27.646   7.285  48.045  0.00  0.00    +0.000 A 
ATOM      7  C   UNL     1      28.929   7.208  47.519  0.00  0.00    +0.000 A 
ATOM      8  C   UNL     1      29.912   7.988  48.093  0.00  0.00    +0.000 A 
ATOM      9  C   UNL     1      29.567   8.876  49.122  0.00  0.00    +0.000 A 
ATOM     10 CL   UNL     1      30.842   9.766  49.866  0.00  0.00    +0.000 Cl
ATOM     11  C   UNL     1      28.244   8.995  49.601  0.00  0.00    +0.000 A 
ATOM     12  C   UNL     1      27.262   8.160  49.073  0.00  0.00    +0.000 A 
ATOM     13  C   UNL     1      25.886   7.909  49.695  0.00  0.00    +0.000 A 
ATOM     14  O   UNL     1      25.289   8.756  50.352  0.00  0.00    +0.000 OA
ATOM     15  C   UNL     1      25.427   6.467  49.595  0.00  0.00    +0.000 A 
ATOM     16  C   UNL     1      24.562   5.773  50.455  0.00  0.00    +0.000 A 
ENDROOT
BRANCH   1  20
ATOM     17  C   UNL     1      21.859   1.567  52.252  0.00  0.00    +0.000 A 
ATOM     18  C   UNL     1      23.112   1.120  51.797  0.00  0.00    +0.000 A 
ATOM     19  C   UNL     1      24.089   2.002  51.279  0.00  0.00    +0.000 A 
ATOM     20  C   UNL     1      23.854   3.374  51.215  0.00  0.00    +0.000 A 
ATOM     21  C   UNL     1      22.635   3.811  51.794  0.00  0.00    +0.000 A 
ATOM     22  C   UNL     1      21.649   2.947  52.256  0.00  0.00    +0.000 A 
BRANCH  17  27
ATOM     23  O   UNL     1      17.814  -1.824  53.381  0.00  0.00    +0.000 OA
ATOM     24  C   UNL     1      18.740  -1.054  53.222  0.00  0.00    +0.000 A 
ATOM     25  C   UNL     1      18.779  -0.182  52.018  0.00  0.00    +0.000 A 
ATOM     26  N   UNL     1      19.738   0.644  51.779  0.00  0.00    +0.000 NA
ATOM     27  N   UNL     1      20.806   0.696  52.672  0.00  0.00    +0.000 N 
ATOM     28  C   UNL     1      20.848  -0.055  53.856  0.00  0.00    +0.000 A 
ATOM     29  O   UNL     1      21.719   0.000  54.726  0.00  0.00    +0.000 OA
ATOM     30  N   UNL     1      19.802  -0.908  54.062  0.00  0.00    +0.000 N 
ATOM     31  H   UNL     1      19.817  -1.458  54.879  0.00  0.00    +0.000 HD
ENDBRANCH  17  27
ENDBRANCH   1  20
TORSDOF 2
ENDMDL
MODEL 6
REMARK VINA RESULT:    -9.156      4.975     10.662
REMARK INTER + INTRA:         -10.781
REMARK INTER:                 -10.342
REMARK INTRA:                  -0.439
REMARK UNBOUND:                -0.554
REMARK  Name = 
REMARK  2 active torsions:
REMARK  status: ('A' for Active; 'I' for Inactive)
REMARK    1  A    between atoms: N_5  and  C_6
REMARK    2  A    between atoms: C_9  and  C_10
REMARK                            x       y       z     vdW  Elec       q    Type
REMARK                         _______ _______ _______ _____ _____    ______ ____
ROOT
ATOM      1  C   UNL     1      22.724   1.156  52.364  0.00  0.00    +0.000 A 
ATOM      2  C   UNL     1      23.138   0.371  53.460  0.00  0.00    +0.000 A 
ATOM      3  C   UNL     1      24.351  -0.270  53.448  0.00  0.00    +0.000 A 
ATOM      4  C   UNL     1      25.226   0.064  52.449  0.00  0.00    +0.000 A 
ATOM      5  O   UNL     1      26.368  -0.659  52.310  0.00  0.00    +0.000 OA
ATOM      6  C   UNL     1      27.411   0.062  52.802  0.00  0.00    +0.000 A 
ATOM      7  C   UNL     1      28.195  -0.610  53.732  0.00  0.00    +0.000 A 
ATOM      8  C   UNL     1      29.056   0.135  54.512  0.00  0.00    +0.000 A 
ATOM      9  C   UNL     1      29.163   1.515  54.286  0.00  0.00    +0.000 A 
ATOM     10 CL   UNL     1      30.185   2.417  55.341  0.00  0.00    +0.000 Cl
ATOM     11  C   UNL     1      28.410   2.176  53.290  0.00  0.00    +0.000 A 
ATOM     12  C   UNL     1      27.489   1.441  52.547  0.00  0.00    +0.000 A 
ATOM     13  C   UNL     1      26.368   2.034  51.691  0.00  0.00    +0.000 A 
ATOM     14  O   UNL     1      26.468   3.118  51.125  0.00  0.00    +0.000 OA
ATOM     15  C   UNL     1      25.066   1.261  51.772  0.00  0.00    +0.000 A 
ATOM     16  C   UNL     1      23.761   1.745  51.599  0.00  0.00    +0.000 A 
ENDROOT
BRANCH   1  20
ATOM     17  C   UNL     1      18.437   1.603  51.635  0.00  0.00    +0.000 A 
ATOM     18  C   UNL     1      19.054   0.343  51.535  0.00  0.00    +0.000 A 
ATOM     19  C   UNL     1      20.437   0.157  51.768  0.00  0.00    +0.000 A 
ATOM     20  C   UNL     1      21.253   1.227  52.129  0.00  0.00    +0.000 A 
ATOM     21  C   UNL     1      20.584   2.459  52.343  0.00  0.00    +0.000 A 
ATOM     22  C   UNL     1      19.236   2.661  52.066  0.00  0.00    +0.000 A 
BRANCH  17  27
ATOM     23  O   UNL     1      13.173   2.461  50.804  0.00  0.00    +0.000 OA
ATOM     24  C   UNL     1      14.372   2.295  50.900  0.00  0.00    +0.000 A 
ATOM     25  C   UNL     1      14.907   1.306  51.874  0.00  0.00    +0.000 A 
ATOM     26  N   UNL     1      16.166   1.092  52.038  0.00  0.00    +0.000 NA
ATOM     27  N   UNL     1      17.070   1.849  51.295  0.00  0.00    +0.000 N 
ATOM     28  C   UNL     1      16.670   2.778  50.323  0.00  0.00    +0.000 A 
ATOM     29  O   UNL     1      17.411   3.421  49.577  0.00  0.00    +0.000 OA
ATOM     30  N   UNL     1      15.323   2.959  50.186  0.00  0.00    +0.000 N 
ATOM     31  H   UNL     1      15.018   3.618  49.521  0.00  0.00    +0.000 HD
ENDBRANCH  17  27
ENDBRANCH   1  20
TORSDOF 2
ENDMDL
MODEL 7
REMARK VINA RESULT:    -9.088      7.448      9.100
REMARK INTER + INTRA:         -10.704
REMARK INTER:                 -10.196
REMARK INTRA:                  -0.508
REMARK UNBOUND:                -0.554
REMARK  Name = 
REMARK  2 active torsions:
REMARK  status: ('A' for Active; 'I' for Inactive)
REMARK    1  A    between atoms: N_5  and  C_6
REMARK    2  A    between atoms: C_9  and  C_10
REMARK                            x       y       z     vdW  Elec       q    Type
REMARK                         _______ _______ _______ _____ _____    ______ ____
ROOT
ATOM      1  C   UNL     1      25.118   5.043  50.152  0.00  0.00    +0.000 A 
ATOM      2  C   UNL     1      23.722   5.225  50.079  0.00  0.00    +0.000 A 
ATOM      3  C   UNL     1      22.886   4.167  49.828  0.00  0.00    +0.000 A 
ATOM      4  C   UNL     1      23.432   2.912  49.880  0.00  0.00    +0.000 A 
ATOM      5  O   UNL     1      22.679   1.853  49.483  0.00  0.00    +0.000 OA
ATOM      6  C   UNL     1      22.244   1.182  50.584  0.00  0.00    +0.000 A 
ATOM      7  C   UNL     1      20.874   0.960  50.624  0.00  0.00    +0.000 A 
ATOM      8  C   UNL     1      20.313   0.589  51.830  0.00  0.00    +0.000 A 
ATOM      9  C   UNL     1      21.148   0.377  52.936  0.00  0.00    +0.000 A 
ATOM     10 CL   UNL     1      20.397   0.000  54.441  0.00  0.00    +0.000 Cl
ATOM     11  C   UNL     1      22.550   0.540  52.864  0.00  0.00    +0.000 A 
ATOM     12  C   UNL     1      23.113   0.981  51.669  0.00  0.00    +0.000 A 
ATOM     13  C   UNL     1      24.531   1.534  51.509  0.00  0.00    +0.000 A 
ATOM     14  O   UNL     1      25.470   1.163  52.207  0.00  0.00    +0.000 OA
ATOM     15  C   UNL     1      24.622   2.712  50.559  0.00  0.00    +0.000 A 
ATOM     16  C   UNL     1      25.554   3.761  50.569  0.00  0.00    +0.000 A 
ENDROOT
BRANCH   1  20
ATOM     17  C   UNL     1      27.519   8.560  49.159  0.00  0.00    +0.000 A 
ATOM     18  C   UNL     1      27.681   7.357  48.449  0.00  0.00    +0.000 A 
ATOM     19  C   UNL     1      26.920   6.199  48.737  0.00  0.00    +0.000 A 
ATOM     20  C   UNL     1      25.952   6.208  49.739  0.00  0.00    +0.000 A 
ATOM     21  C   UNL     1      25.723   7.467  50.354  0.00  0.00    +0.000 A 
ATOM     22  C   UNL     1      26.502   8.594  50.113  0.00  0.00    +0.000 A 
BRANCH  17  27
ATOM     23  O   UNL     1      30.277  13.166  48.597  0.00  0.00    +0.000 OA
ATOM     24  C   UNL     1      29.738  12.082  48.706  0.00  0.00    +0.000 A 
ATOM     25  C   UNL     1      28.290  11.941  48.400  0.00  0.00    +0.000 A 
ATOM     26  N   UNL     1      27.653  10.827  48.511  0.00  0.00    +0.000 NA
ATOM     27  N   UNL     1      28.347   9.711  48.975  0.00  0.00    +0.000 N 
ATOM     28  C   UNL     1      29.721   9.728  49.255  0.00  0.00    +0.000 A 
ATOM     29  O   UNL     1      30.411   8.763  49.590  0.00  0.00    +0.000 OA
ATOM     30  N   UNL     1      30.347  10.933  49.112  0.00  0.00    +0.000 N 
ATOM     31  H   UNL     1      31.309  10.974  49.318  0.00  0.00    +0.000 HD
ENDBRANCH  17  27
ENDBRANCH   1  20
TORSDOF 2
ENDMDL
MODEL 8
REMARK VINA RESULT:    -8.945      2.417      3.362
REMARK INTER + INTRA:         -10.545
REMARK INTER:                 -10.081
REMARK INTRA:                  -0.464
REMARK UNBOUND:                -0.554
REMARK  Name = 
REMARK  2 active torsions:
REMARK  status: ('A' for Active; 'I' for Inactive)
REMARK    1  A    between atoms: N_5  and  C_6
REMARK    2  A    between atoms: C_9  and  C_10
REMARK                            x       y       z     vdW  Elec       q    Type
REMARK                         _______ _______ _______ _____ _____    ______ ____
ROOT
ATOM      1  C   UNL     1      19.578  -0.380  52.335  0.00  0.00    +0.000 A 
ATOM      2  C   UNL     1      18.903  -1.355  53.098  0.00  0.00    +0.000 A 
ATOM      3  C   UNL     1      17.559  -1.248  53.348  0.00  0.00    +0.000 A 
ATOM      4  C   UNL     1      16.866  -0.298  52.646  0.00  0.00    +0.000 A 
ATOM      5  O   UNL     1      15.571  -0.054  52.978  0.00  0.00    +0.000 OA
ATOM      6  C   UNL     1      14.760  -0.632  52.052  0.00  0.00    +0.000 A 
ATOM      7  C   UNL     1      13.773  -1.456  52.578  0.00  0.00    +0.000 A 
ATOM      8  C   UNL     1      13.129  -2.325  51.720  0.00  0.00    +0.000 A 
ATOM      9  C   UNL     1      13.437  -2.289  50.352  0.00  0.00    +0.000 A 
ATOM     10 CL   UNL     1      12.673  -3.450  49.333  0.00  0.00    +0.000 Cl
ATOM     11  C   UNL     1      14.395  -1.397  49.819  0.00  0.00    +0.000 A 
ATOM     12  C   UNL     1      15.096  -0.568  50.690  0.00  0.00    +0.000 A 
ATOM     13  C   UNL     1      16.380   0.192  50.347  0.00  0.00    +0.000 A 
ATOM     14  O   UNL     1      16.625   0.606  49.218  0.00  0.00    +0.000 OA
ATOM     15  C   UNL     1      17.397   0.208  51.472  0.00  0.00    +0.000 A 
ATOM     16  C   UNL     1      18.793   0.305  51.374  0.00  0.00    +0.000 A 
ENDROOT
BRANCH   1  20
ATOM     17  C   UNL     1      23.786   0.449  53.180  0.00  0.00    +0.000 A 
ATOM     18  C   UNL     1      23.044  -0.410  54.010  0.00  0.00    +0.000 A 
ATOM     19  C   UNL     1      21.681  -0.706  53.767  0.00  0.00    +0.000 A 
ATOM     20  C   UNL     1      21.015  -0.166  52.670  0.00  0.00    +0.000 A 
ATOM     21  C   UNL     1      21.819   0.595  51.782  0.00  0.00    +0.000 A 
ATOM     22  C   UNL     1      23.143   0.933  52.041  0.00  0.00    +0.000 A 
BRANCH  17  27
ATOM     23  O   UNL     1      28.990   1.655  53.956  0.00  0.00    +0.000 OA
ATOM     24  C   UNL     1      27.797   1.464  53.830  0.00  0.00    +0.000 A 
ATOM     25  C   UNL     1      27.280   0.077  53.687  0.00  0.00    +0.000 A 
ATOM     26  N   UNL     1      26.031  -0.195  53.532  0.00  0.00    +0.000 NA
ATOM     27  N   UNL     1      25.127   0.862  53.458  0.00  0.00    +0.000 N 
ATOM     28  C   UNL     1      25.505   2.203  53.619  0.00  0.00    +0.000 A 
ATOM     29  O   UNL     1      24.751   3.178  53.645  0.00  0.00    +0.000 OA
ATOM     30  N   UNL     1      26.841   2.433  53.788  0.00  0.00    +0.000 N 
ATOM     31  H   UNL     1      27.132   3.368  53.887  0.00  0.00    +0.000 HD
ENDBRANCH  17  27
ENDBRANCH   1  20
TORSDOF 2
ENDMDL
MODEL 9
REMARK VINA RESULT:    -8.896      7.290      8.900
REMARK INTER + INTRA:         -10.490
REMARK INTER:                 -10.025
REMARK INTRA:                  -0.465
REMARK UNBOUND:                -0.554
REMARK  Name = 
REMARK  2 active torsions:
REMARK  status: ('A' for Active; 'I' for Inactive)
REMARK    1  A    between atoms: N_5  and  C_6
REMARK    2  A    between atoms: C_9  and  C_10
REMARK                            x       y       z     vdW  Elec       q    Type
REMARK                         _______ _______ _______ _____ _____    ______ ____
ROOT
ATOM      1  C   UNL     1      25.343   4.925  49.978  0.00  0.00    +0.000 A 
ATOM      2  C   UNL     1      25.530   3.531  49.884  0.00  0.00    +0.000 A 
ATOM      3  C   UNL     1      25.024   2.687  50.839  0.00  0.00    +0.000 A 
ATOM      4  C   UNL     1      24.147   3.221  51.745  0.00  0.00    +0.000 A 
ATOM      5  O   UNL     1      23.749   2.460  52.798  0.00  0.00    +0.000 OA
ATOM      6  C   UNL     1      22.483   2.015  52.568  0.00  0.00    +0.000 A 
ATOM      7  C   UNL     1      22.318   0.643  52.702  0.00  0.00    +0.000 A 
ATOM      8  C   UNL     1      21.175   0.074  52.177  0.00  0.00    +0.000 A 
ATOM      9  C   UNL     1      20.199   0.904  51.605  0.00  0.00    +0.000 A 
ATOM     10 CL   UNL     1      18.830   0.143  50.886  0.00  0.00    +0.000 Cl
ATOM     11  C   UNL     1      20.349   2.307  51.538  0.00  0.00    +0.000 A 
ATOM     12  C   UNL     1      21.531   2.878  52.003  0.00  0.00    +0.000 A 
ATOM     13  C   UNL     1      22.004   4.302  51.701  0.00  0.00    +0.000 A 
ATOM     14  O   UNL     1      21.229   5.235  51.520  0.00  0.00    +0.000 OA
ATOM     15  C   UNL     1      23.496   4.407  51.450  0.00  0.00    +0.000 A 
ATOM     16  C   UNL     1      24.177   5.348  50.662  0.00  0.00    +0.000 A 
ENDROOT
BRANCH   1  20
ATOM     17  C   UNL     1      28.436   7.579  48.396  0.00  0.00    +0.000 A 
ATOM     18  C   UNL     1      28.489   6.194  48.158  0.00  0.00    +0.000 A 
ATOM     19  C   UNL     1      27.505   5.304  48.649  0.00  0.00    +0.000 A 
ATOM     20  C   UNL     1      26.418   5.771  49.383  0.00  0.00    +0.000 A 
ATOM     21  C   UNL     1      26.324   7.182  49.502  0.00  0.00    +0.000 A 
ATOM     22  C   UNL     1      27.312   8.058  49.069  0.00  0.00    +0.000 A 
BRANCH  17  27
ATOM     23  O   UNL     1      32.015  11.367  46.988  0.00  0.00    +0.000 OA
ATOM     24  C   UNL     1      31.283  10.453  47.309  0.00  0.00    +0.000 A 
ATOM     25  C   UNL     1      29.855  10.466  46.893  0.00  0.00    +0.000 A 
ATOM     26  N   UNL     1      29.021   9.538  47.213  0.00  0.00    +0.000 NA
ATOM     27  N   UNL     1      29.470   8.492  48.017  0.00  0.00    +0.000 N 
ATOM     28  C   UNL     1      30.804   8.365  48.431  0.00  0.00    +0.000 A 
ATOM     29  O   UNL     1      31.285   7.430  49.073  0.00  0.00    +0.000 OA
ATOM     30  N   UNL     1      31.646   9.374  48.057  0.00  0.00    +0.000 N 
ATOM     31  H   UNL     1      32.584   9.315  48.349  0.00  0.00    +0.000 HD
ENDBRANCH  17  27
ENDBRANCH   1  20
TORSDOF 2
ENDMDL
