MODEL 1
REMARK VINA RESULT:    -9.304      0.000      0.000
REMARK INTER + INTRA:         -15.250
REMARK INTER:                 -13.927
REMARK INTRA:                  -1.322
REMARK UNBOUND:                -1.322
REMARK  Name = 
REMARK  10 active torsions:
REMARK  status: ('A' for Active; 'I' for Inactive)
REMARK    1  A    between atoms: C_2  and  C_3
REMARK    2  A    between atoms: C_3  and  N_4
REMARK    3  A    between atoms: N_4  and  C_5
REMARK    4  A    between atoms: N_4  and  C_18
REMARK    5  A    between atoms: C_5  and  C_6
REMARK    6  A    between atoms: C_11  and  C_12
REMARK    7  A    between atoms: C_14  and  O_15
REMARK    8  A    between atoms: C_21  and  C_22
REMARK    9  A    between atoms: N_24  and  C_25
REMARK   10  A    between atoms: C_25  and  C_26
REMARK                            x       y       z     vdW  Elec       q    Type
REMARK                         _______ _______ _______ _____ _____    ______ ____
ROOT
ATOM      1  N   UNL     1      23.216   2.737  51.175  0.00  0.00    +0.000 N 
ENDROOT
BRANCH   1   2
ATOM      2  C   UNL     1      24.129   3.703  50.759  0.00  0.00    +0.000 A 
ATOM      3  C   UNL     1      24.039   5.058  51.087  0.00  0.00    +0.000 A 
ATOM      4  C   UNL     1      24.797   6.075  50.501  0.00  0.00    +0.000 A 
ATOM      5  C   UNL     1      25.794   5.758  49.598  0.00  0.00    +0.000 A 
ATOM      6  C   UNL     1      26.089   4.411  49.421  0.00  0.00    +0.000 A 
ATOM      7  C   UNL     1      25.268   3.411  49.991  0.00  0.00    +0.000 A 
BRANCH   5   8
ATOM      8  C   UNL     1      26.442   6.894  48.870  0.00  0.00    +0.000 C 
ATOM      9  O   UNL     1      26.112   7.161  47.717  0.00  0.00    +0.000 OA
ATOM     10  N   UNL     1      27.447   7.559  49.528  0.00  0.00    +0.000 N 
ATOM     11  H   UNL     1      27.615   7.344  50.475  0.00  0.00    +0.000 HD
BRANCH  10  12
ATOM     12  C   UNL     1      28.266   8.561  48.889  0.00  0.00    +0.000 C 
BRANCH  12  13
ATOM     13  C   UNL     1      29.680   8.125  48.970  0.00  0.00    +0.000 A 
ATOM     14  C   UNL     1      30.855   8.772  49.292  0.00  0.00    +0.000 A 
ATOM     15  C   UNL     1      31.885   7.807  49.188  0.00  0.00    +0.000 A 
ATOM     16  C   UNL     1      31.275   6.634  48.808  0.00  0.00    +0.000 A 
ATOM     17  O   UNL     1      29.935   6.816  48.678  0.00  0.00    +0.000 OA
ENDBRANCH  12  13
ENDBRANCH  10  12
ENDBRANCH   5   8
ENDBRANCH   1   2
BRANCH   1  18
ATOM     18  C   UNL     1      22.408   1.803  50.318  0.00  0.00    +0.000 C 
BRANCH  18  20
ATOM     19  C   UNL     1      22.336   2.193  47.674  0.00  0.00    +0.000 C 
ATOM     20  C   UNL     1      22.403   1.965  48.848  0.00  0.00    +0.000 C 
ENDBRANCH  18  20
ENDBRANCH   1  18
BRANCH   1  21
ATOM     21  C   UNL     1      23.233   2.297  52.602  0.00  0.00    +0.000 C 
BRANCH  21  22
ATOM     22  C   UNL     1      24.424   1.420  52.949  0.00  0.00    +0.000 A 
ATOM     23  C   UNL     1      24.358   0.026  52.895  0.00  0.00    +0.000 A 
ATOM     24  C   UNL     1      25.514  -0.749  52.995  0.00  0.00    +0.000 A 
ATOM     25  C   UNL     1      26.751  -0.185  53.244  0.00  0.00    +0.000 A 
ATOM     26  N   UNL     1      27.821  -0.984  53.329  0.00  0.00    +0.000 NA
ATOM     27  C   UNL     1      28.998  -0.428  53.663  0.00  0.00    +0.000 A 
ATOM     28  C   UNL     1      30.158  -1.360  53.798  0.00  0.00    +0.000 C 
ATOM     29  N   UNL     1      29.177   0.876  53.915  0.00  0.00    +0.000 NA
ATOM     30  C   UNL     1      28.090   1.639  53.791  0.00  0.00    +0.000 A 
ATOM     31  C   UNL     1      26.817   1.192  53.428  0.00  0.00    +0.000 A 
ATOM     32  C   UNL     1      25.669   2.001  53.259  0.00  0.00    +0.000 A 
BRANCH  30  33
ATOM     33  O   UNL     1      28.308   2.943  54.109  0.00  0.00    +0.000 OA
ATOM     34  H   UNL     1      29.171   3.234  54.331  0.00  0.00    +0.000 HD
ENDBRANCH  30  33
ENDBRANCH  21  22
ENDBRANCH   1  21
TORSDOF 9
ENDMDL
MODEL 2
REMARK VINA RESULT:    -8.959      4.650      8.777
REMARK INTER + INTRA:         -14.733
REMARK INTER:                 -13.267
REMARK INTRA:                  -1.466
REMARK UNBOUND:                -1.322
REMARK  Name = 
REMARK  10 active torsions:
REMARK  status: ('A' for Active; 'I' for Inactive)
REMARK    1  A    between atoms: C_2  and  C_3
REMARK    2  A    between atoms: C_3  and  N_4
REMARK    3  A    between atoms: N_4  and  C_5
REMARK    4  A    between atoms: N_4  and  C_18
REMARK    5  A    between atoms: C_5  and  C_6
REMARK    6  A    between atoms: C_11  and  C_12
REMARK    7  A    between atoms: C_14  and  O_15
REMARK    8  A    between atoms: C_21  and  C_22
REMARK    9  A    between atoms: N_24  and  C_25
REMARK   10  A    between atoms: C_25  and  C_26
REMARK                            x       y       z     vdW  Elec       q    Type
REMARK                         _______ _______ _______ _____ _____    ______ ____
ROOT
ATOM      1  N   UNL     1      23.396   3.163  51.484  0.00  0.00    +0.000 N 
ENDROOT
BRANCH   1   2
ATOM      2  C   UNL     1      22.147   2.615  51.204  0.00  0.00    +0.000 A 
ATOM      3  C   UNL     1      20.970   2.967  51.870  0.00  0.00    +0.000 A 
ATOM      4  C   UNL     1      19.760   2.278  51.774  0.00  0.00    +0.000 A 
ATOM      5  C   UNL     1      19.636   1.221  50.892  0.00  0.00    +0.000 A 
ATOM      6  C   UNL     1      20.700   0.985  50.028  0.00  0.00    +0.000 A 
ATOM      7  C   UNL     1      21.926   1.670  50.189  0.00  0.00    +0.000 A 
BRANCH   5   8
ATOM      8  C   UNL     1      18.380   0.410  50.968  0.00  0.00    +0.000 C 
ATOM      9  O   UNL     1      17.841   0.005  49.943  0.00  0.00    +0.000 OA
ATOM     10  N   UNL     1      17.848   0.209  52.218  0.00  0.00    +0.000 N 
ATOM     11  H   UNL     1      18.366   0.499  53.005  0.00  0.00    +0.000 HD
BRANCH  10  12
ATOM     12  C   UNL     1      16.560  -0.409  52.424  0.00  0.00    +0.000 C 
BRANCH  12  13
ATOM     13  C   UNL     1      16.781  -1.806  52.868  0.00  0.00    +0.000 A 
ATOM     14  C   UNL     1      17.786  -2.429  53.578  0.00  0.00    +0.000 A 
ATOM     15  C   UNL     1      17.419  -3.791  53.680  0.00  0.00    +0.000 A 
ATOM     16  C   UNL     1      16.215  -3.915  53.026  0.00  0.00    +0.000 A 
ATOM     17  O   UNL     1      15.816  -2.713  52.534  0.00  0.00    +0.000 OA
ENDBRANCH  12  13
ENDBRANCH  10  12
ENDBRANCH   5   8
ENDBRANCH   1   2
BRANCH   1  18
ATOM     18  C   UNL     1      24.195   4.116  50.638  0.00  0.00    +0.000 C 
BRANCH  18  20
ATOM     19  C   UNL     1      26.473   3.276  49.516  0.00  0.00    +0.000 C 
ATOM     20  C   UNL     1      25.487   3.686  50.060  0.00  0.00    +0.000 C 
ENDBRANCH  18  20
ENDBRANCH   1  18
BRANCH   1  21
ATOM     21  C   UNL     1      23.907   3.114  52.886  0.00  0.00    +0.000 C 
BRANCH  21  22
ATOM     22  C   UNL     1      24.900   1.990  53.127  0.00  0.00    +0.000 A 
ATOM     23  C   UNL     1      24.562   0.649  52.928  0.00  0.00    +0.000 A 
ATOM     24  C   UNL     1      25.543  -0.344  52.936  0.00  0.00    +0.000 A 
ATOM     25  C   UNL     1      26.864  -0.062  53.229  0.00  0.00    +0.000 A 
ATOM     26  N   UNL     1      27.756  -1.060  53.218  0.00  0.00    +0.000 NA
ATOM     27  C   UNL     1      29.015  -0.783  53.597  0.00  0.00    +0.000 A 
ATOM     28  C   UNL     1      29.969  -1.933  53.622  0.00  0.00    +0.000 C 
ATOM     29  N   UNL     1      29.444   0.427  53.982  0.00  0.00    +0.000 NA
ATOM     30  C   UNL     1      28.529   1.397  53.949  0.00  0.00    +0.000 A 
ATOM     31  C   UNL     1      27.197   1.248  53.555  0.00  0.00    +0.000 A 
ATOM     32  C   UNL     1      26.231   2.280  53.483  0.00  0.00    +0.000 A 
BRANCH  30  33
ATOM     33  O   UNL     1      28.994   2.593  54.400  0.00  0.00    +0.000 OA
ATOM     34  H   UNL     1      28.818   3.376  53.917  0.00  0.00    +0.000 HD
ENDBRANCH  30  33
ENDBRANCH  21  22
ENDBRANCH   1  21
TORSDOF 9
ENDMDL
MODEL 3
REMARK VINA RESULT:    -8.825      5.517      9.526
REMARK INTER + INTRA:         -14.532
REMARK INTER:                 -13.392
REMARK INTRA:                  -1.139
REMARK UNBOUND:                -1.322
REMARK  Name = 
REMARK  10 active torsions:
REMARK  status: ('A' for Active; 'I' for Inactive)
REMARK    1  A    between atoms: C_2  and  C_3
REMARK    2  A    between atoms: C_3  and  N_4
REMARK    3  A    between atoms: N_4  and  C_5
REMARK    4  A    between atoms: N_4  and  C_18
REMARK    5  A    between atoms: C_5  and  C_6
REMARK    6  A    between atoms: C_11  and  C_12
REMARK    7  A    between atoms: C_14  and  O_15
REMARK    8  A    between atoms: C_21  and  C_22
REMARK    9  A    between atoms: N_24  and  C_25
REMARK   10  A    between atoms: C_25  and  C_26
REMARK                            x       y       z     vdW  Elec       q    Type
REMARK                         _______ _______ _______ _____ _____    ______ ____
ROOT
ATOM      1  N   UNL     1      22.183   1.291  51.554  0.00  0.00    +0.000 N 
ENDROOT
BRANCH   1   2
ATOM      2  C   UNL     1      20.993   0.608  51.793  0.00  0.00    +0.000 A 
ATOM      3  C   UNL     1      19.943   0.518  50.874  0.00  0.00    +0.000 A 
ATOM      4  C   UNL     1      18.662   0.046  51.166  0.00  0.00    +0.000 A 
ATOM      5  C   UNL     1      18.389  -0.477  52.416  0.00  0.00    +0.000 A 
ATOM      6  C   UNL     1      19.460  -0.638  53.288  0.00  0.00    +0.000 A 
ATOM      7  C   UNL     1      20.731  -0.101  52.976  0.00  0.00    +0.000 A 
BRANCH   5   8
ATOM      8  C   UNL     1      16.959  -0.794  52.727  0.00  0.00    +0.000 C 
ATOM      9  O   UNL     1      16.604  -1.958  52.889  0.00  0.00    +0.000 OA
ATOM     10  N   UNL     1      16.082   0.263  52.753  0.00  0.00    +0.000 N 
ATOM     11  H   UNL     1      16.442   1.177  52.686  0.00  0.00    +0.000 HD
BRANCH  10  12
ATOM     12  C   UNL     1      14.655   0.085  52.875  0.00  0.00    +0.000 C 
BRANCH  12  13
ATOM     13  C   UNL     1      14.041   1.413  53.115  0.00  0.00    +0.000 A 
ATOM     14  C   UNL     1      12.813   1.817  53.595  0.00  0.00    +0.000 A 
ATOM     15  C   UNL     1      12.827   3.232  53.589  0.00  0.00    +0.000 A 
ATOM     16  C   UNL     1      14.060   3.602  53.106  0.00  0.00    +0.000 A 
ATOM     17  O   UNL     1      14.807   2.504  52.820  0.00  0.00    +0.000 OA
ENDBRANCH  12  13
ENDBRANCH  10  12
ENDBRANCH   5   8
ENDBRANCH   1   2
BRANCH   1  18
ATOM     18  C   UNL     1      22.686   1.835  50.246  0.00  0.00    +0.000 C 
BRANCH  18  20
ATOM     19  C   UNL     1      24.451   3.841  50.139  0.00  0.00    +0.000 C 
ATOM     20  C   UNL     1      23.630   2.974  50.234  0.00  0.00    +0.000 C 
ENDBRANCH  18  20
ENDBRANCH   1  18
BRANCH   1  21
ATOM     21  C   UNL     1      22.926   1.870  52.712  0.00  0.00    +0.000 C 
BRANCH  21  22
ATOM     22  C   UNL     1      24.206   1.121  53.044  0.00  0.00    +0.000 A 
ATOM     23  C   UNL     1      24.278  -0.273  53.004  0.00  0.00    +0.000 A 
ATOM     24  C   UNL     1      25.508  -0.927  53.089  0.00  0.00    +0.000 A 
ATOM     25  C   UNL     1      26.687  -0.239  53.308  0.00  0.00    +0.000 A 
ATOM     26  N   UNL     1      27.833  -0.927  53.379  0.00  0.00    +0.000 NA
ATOM     27  C   UNL     1      28.954  -0.251  53.684  0.00  0.00    +0.000 A 
ATOM     28  C   UNL     1      30.205  -1.061  53.806  0.00  0.00    +0.000 C 
ATOM     29  N   UNL     1      29.006   1.067  53.921  0.00  0.00    +0.000 NA
ATOM     30  C   UNL     1      27.846   1.716  53.811  0.00  0.00    +0.000 A 
ATOM     31  C   UNL     1      26.618   1.140  53.477  0.00  0.00    +0.000 A 
ATOM     32  C   UNL     1      25.391   1.828  53.323  0.00  0.00    +0.000 A 
BRANCH  30  33
ATOM     33  O   UNL     1      27.938   3.039  54.113  0.00  0.00    +0.000 OA
ATOM     34  H   UNL     1      27.404   3.403  54.791  0.00  0.00    +0.000 HD
ENDBRANCH  30  33
ENDBRANCH  21  22
ENDBRANCH   1  21
TORSDOF 9
ENDMDL
MODEL 4
REMARK VINA RESULT:    -8.712      2.062      7.514
REMARK INTER + INTRA:         -14.363
REMARK INTER:                 -13.052
REMARK INTRA:                  -1.311
REMARK UNBOUND:                -1.322
REMARK  Name = 
REMARK  10 active torsions:
REMARK  status: ('A' for Active; 'I' for Inactive)
REMARK    1  A    between atoms: C_2  and  C_3
REMARK    2  A    between atoms: C_3  and  N_4
REMARK    3  A    between atoms: N_4  and  C_5
REMARK    4  A    between atoms: N_4  and  C_18
REMARK    5  A    between atoms: C_5  and  C_6
REMARK    6  A    between atoms: C_11  and  C_12
REMARK    7  A    between atoms: C_14  and  O_15
REMARK    8  A    between atoms: C_21  and  C_22
REMARK    9  A    between atoms: N_24  and  C_25
REMARK   10  A    between atoms: C_25  and  C_26
REMARK                            x       y       z     vdW  Elec       q    Type
REMARK                         _______ _______ _______ _____ _____    ______ ____
ROOT
ATOM      1  N   UNL     1      22.816   4.778  50.258  0.00  0.00    +0.000 N 
ENDROOT
BRANCH   1   2
ATOM      2  C   UNL     1      23.067   3.651  51.037  0.00  0.00    +0.000 A 
ATOM      3  C   UNL     1      23.831   3.663  52.208  0.00  0.00    +0.000 A 
ATOM      4  C   UNL     1      24.288   2.525  52.875  0.00  0.00    +0.000 A 
ATOM      5  C   UNL     1      23.900   1.270  52.445  0.00  0.00    +0.000 A 
ATOM      6  C   UNL     1      22.945   1.210  51.437  0.00  0.00    +0.000 A 
ATOM      7  C   UNL     1      22.544   2.380  50.751  0.00  0.00    +0.000 A 
BRANCH   5   8
ATOM      8  C   UNL     1      24.568   0.092  53.083  0.00  0.00    +0.000 C 
ATOM      9  O   UNL     1      24.079  -0.433  54.079  0.00  0.00    +0.000 OA
ATOM     10  N   UNL     1      25.763  -0.312  52.540  0.00  0.00    +0.000 N 
ATOM     11  H   UNL     1      26.066   0.105  51.700  0.00  0.00    +0.000 HD
BRANCH  10  12
ATOM     12  C   UNL     1      26.593  -1.322  53.152  0.00  0.00    +0.000 C 
BRANCH  12  13
ATOM     13  C   UNL     1      27.937  -0.742  53.383  0.00  0.00    +0.000 A 
ATOM     14  C   UNL     1      29.216  -1.253  53.310  0.00  0.00    +0.000 A 
ATOM     15  C   UNL     1      30.090  -0.193  53.649  0.00  0.00    +0.000 A 
ATOM     16  C   UNL     1      29.291   0.896  53.909  0.00  0.00    +0.000 A 
ATOM     17  O   UNL     1      27.981   0.574  53.744  0.00  0.00    +0.000 OA
ENDBRANCH  12  13
ENDBRANCH  10  12
ENDBRANCH   5   8
ENDBRANCH   1   2
BRANCH   1  18
ATOM     18  C   UNL     1      21.748   4.957  49.214  0.00  0.00    +0.000 C 
BRANCH  18  20
ATOM     19  C   UNL     1      22.448   6.143  46.922  0.00  0.00    +0.000 C 
ATOM     20  C   UNL     1      22.078   5.596  47.922  0.00  0.00    +0.000 C 
ENDBRANCH  18  20
ENDBRANCH   1  18
BRANCH   1  21
ATOM     21  C   UNL     1      23.403   6.086  50.672  0.00  0.00    +0.000 C 
BRANCH  21  22
ATOM     22  C   UNL     1      24.803   6.318  50.131  0.00  0.00    +0.000 A 
ATOM     23  C   UNL     1      25.428   5.404  49.279  0.00  0.00    +0.000 A 
ATOM     24  C   UNL     1      26.610   5.738  48.617  0.00  0.00    +0.000 A 
ATOM     25  C   UNL     1      27.260   6.937  48.841  0.00  0.00    +0.000 A 
ATOM     26  N   UNL     1      28.390   7.196  48.173  0.00  0.00    +0.000 NA
ATOM     27  C   UNL     1      29.054   8.324  48.474  0.00  0.00    +0.000 A 
ATOM     28  C   UNL     1      30.339   8.553  47.744  0.00  0.00    +0.000 C 
ATOM     29  N   UNL     1      28.662   9.214  49.396  0.00  0.00    +0.000 NA
ATOM     30  C   UNL     1      27.516   8.930  50.017  0.00  0.00    +0.000 A 
ATOM     31  C   UNL     1      26.719   7.807  49.782  0.00  0.00    +0.000 A 
ATOM     32  C   UNL     1      25.484   7.519  50.411  0.00  0.00    +0.000 A 
BRANCH  30  33
ATOM     33  O   UNL     1      27.188   9.831  50.981  0.00  0.00    +0.000 OA
ATOM     34  H   UNL     1      26.381   9.743  51.450  0.00  0.00    +0.000 HD
ENDBRANCH  30  33
ENDBRANCH  21  22
ENDBRANCH   1  21
TORSDOF 9
ENDMDL
MODEL 5
REMARK VINA RESULT:    -8.706      2.963      5.141
REMARK INTER + INTRA:         -14.355
REMARK INTER:                 -13.054
REMARK INTRA:                  -1.301
REMARK UNBOUND:                -1.322
REMARK  Name = 
REMARK  10 active torsions:
REMARK  status: ('A' for Active; 'I' for Inactive)
REMARK    1  A    between atoms: C_2  and  C_3
REMARK    2  A    between atoms: C_3  and  N_4
REMARK    3  A    between atoms: N_4  and  C_5
REMARK    4  A    between atoms: N_4  and  C_18
REMARK    5  A    between atoms: C_5  and  C_6
REMARK    6  A    between atoms: C_11  and  C_12
REMARK    7  A    between atoms: C_14  and  O_15
REMARK    8  A    between atoms: C_21  and  C_22
REMARK    9  A    between atoms: N_24  and  C_25
REMARK   10  A    between atoms: C_25  and  C_26
REMARK                            x       y       z     vdW  Elec       q    Type
REMARK                         _______ _______ _______ _____ _____    ______ ____
ROOT
ATOM      1  N   UNL     1      25.565   1.556  51.813  0.00  0.00    +0.000 N 
ENDROOT
BRANCH   1   2
ATOM      2  C   UNL     1      25.592   2.670  50.977  0.00  0.00    +0.000 A 
ATOM      3  C   UNL     1      26.579   2.905  50.016  0.00  0.00    +0.000 A 
ATOM      4  C   UNL     1      26.759   4.109  49.333  0.00  0.00    +0.000 A 
ATOM      5  C   UNL     1      25.861   5.144  49.511  0.00  0.00    +0.000 A 
ATOM      6  C   UNL     1      24.724   4.878  50.267  0.00  0.00    +0.000 A 
ATOM      7  C   UNL     1      24.602   3.665  50.984  0.00  0.00    +0.000 A 
BRANCH   5   8
ATOM      8  C   UNL     1      26.209   6.465  48.899  0.00  0.00    +0.000 C 
ATOM      9  O   UNL     1      25.471   6.973  48.060  0.00  0.00    +0.000 OA
ATOM     10  N   UNL     1      27.406   7.025  49.274  0.00  0.00    +0.000 N 
ATOM     11  H   UNL     1      27.917   6.603  50.002  0.00  0.00    +0.000 HD
BRANCH  10  12
ATOM     12  C   UNL     1      27.942   8.207  48.642  0.00  0.00    +0.000 C 
BRANCH  12  13
ATOM     13  C   UNL     1      29.411   8.214  48.841  0.00  0.00    +0.000 A 
ATOM     14  C   UNL     1      30.308   9.176  49.257  0.00  0.00    +0.000 A 
ATOM     15  C   UNL     1      31.585   8.566  49.241  0.00  0.00    +0.000 A 
ATOM     16  C   UNL     1      31.388   7.273  48.815  0.00  0.00    +0.000 A 
ATOM     17  O   UNL     1      30.070   7.047  48.575  0.00  0.00    +0.000 OA
ENDBRANCH  12  13
ENDBRANCH  10  12
ENDBRANCH   5   8
ENDBRANCH   1   2
BRANCH   1  18
ATOM     18  C   UNL     1      26.452   0.342  51.759  0.00  0.00    +0.000 C 
BRANCH  18  20
ATOM     19  C   UNL     1      28.014  -0.171  53.868  0.00  0.00    +0.000 C 
ATOM     20  C   UNL     1      27.363   0.042  52.885  0.00  0.00    +0.000 C 
ENDBRANCH  18  20
ENDBRANCH   1  18
BRANCH   1  21
ATOM     21  C   UNL     1      24.841   1.648  53.115  0.00  0.00    +0.000 C 
BRANCH  21  22
ATOM     22  C   UNL     1      23.630   0.734  53.199  0.00  0.00    +0.000 A 
ATOM     23  C   UNL     1      23.616  -0.401  54.012  0.00  0.00    +0.000 A 
ATOM     24  C   UNL     1      22.428  -1.095  54.249  0.00  0.00    +0.000 A 
ATOM     25  C   UNL     1      21.244  -0.751  53.624  0.00  0.00    +0.000 A 
ATOM     26  N   UNL     1      20.141  -1.457  53.896  0.00  0.00    +0.000 NA
ATOM     27  C   UNL     1      19.023  -1.167  53.209  0.00  0.00    +0.000 A 
ATOM     28  C   UNL     1      17.825  -2.011  53.503  0.00  0.00    +0.000 C 
ATOM     29  N   UNL     1      18.934  -0.215  52.270  0.00  0.00    +0.000 NA
ATOM     30  C   UNL     1      20.050   0.483  52.053  0.00  0.00    +0.000 A 
ATOM     31  C   UNL     1      21.268   0.299  52.713  0.00  0.00    +0.000 A 
ATOM     32  C   UNL     1      22.444   1.059  52.513  0.00  0.00    +0.000 A 
BRANCH  30  33
ATOM     33  O   UNL     1      19.927   1.399  51.056  0.00  0.00    +0.000 OA
ATOM     34  H   UNL     1      19.706   1.121  50.188  0.00  0.00    +0.000 HD
ENDBRANCH  30  33
ENDBRANCH  21  22
ENDBRANCH   1  21
TORSDOF 9
ENDMDL
MODEL 6
REMARK VINA RESULT:    -8.411      4.648      8.663
REMARK INTER + INTRA:         -13.913
REMARK INTER:                 -12.489
REMARK INTRA:                  -1.424
REMARK UNBOUND:                -1.322
REMARK  Name = 
REMARK  10 active torsions:
REMARK  status: ('A' for Active; 'I' for Inactive)
REMARK    1  A    between atoms: C_2  and  C_3
REMARK    2  A    between atoms: C_3  and  N_4
REMARK    3  A    between atoms: N_4  and  C_5
REMARK    4  A    between atoms: N_4  and  C_18
REMARK    5  A    between atoms: C_5  and  C_6
REMARK    6  A    between atoms: C_11  and  C_12
REMARK    7  A    between atoms: C_14  and  O_15
REMARK    8  A    between atoms: C_21  and  C_22
REMARK    9  A    between atoms: N_24  and  C_25
REMARK   10  A    between atoms: C_25  and  C_26
REMARK                            x       y       z     vdW  Elec       q    Type
REMARK                         _______ _______ _______ _____ _____    ______ ____
ROOT
ATOM      1  N   UNL     1      23.316   3.323  51.533  0.00  0.00    +0.000 N 
ENDROOT
BRANCH   1   2
ATOM      2  C   UNL     1      22.081   2.746  51.247  0.00  0.00    +0.000 A 
ATOM      3  C   UNL     1      20.927   2.948  52.008  0.00  0.00    +0.000 A 
ATOM      4  C   UNL     1      19.748   2.211  51.884  0.00  0.00    +0.000 A 
ATOM      5  C   UNL     1      19.627   1.267  50.881  0.00  0.00    +0.000 A 
ATOM      6  C   UNL     1      20.652   1.199  49.944  0.00  0.00    +0.000 A 
ATOM      7  C   UNL     1      21.851   1.924  50.132  0.00  0.00    +0.000 A 
BRANCH   5   8
ATOM      8  C   UNL     1      18.418   0.386  50.914  0.00  0.00    +0.000 C 
ATOM      9  O   UNL     1      17.954  -0.070  49.873  0.00  0.00    +0.000 OA
ATOM     10  N   UNL     1      17.837   0.177  52.142  0.00  0.00    +0.000 N 
ATOM     11  H   UNL     1      18.297   0.511  52.946  0.00  0.00    +0.000 HD
BRANCH  10  12
ATOM     12  C   UNL     1      16.578  -0.511  52.298  0.00  0.00    +0.000 C 
BRANCH  12  13
ATOM     13  C   UNL     1      15.528   0.497  52.576  0.00  0.00    +0.000 A 
ATOM     14  C   UNL     1      14.281   0.432  53.162  0.00  0.00    +0.000 A 
ATOM     15  C   UNL     1      13.758   1.746  53.136  0.00  0.00    +0.000 A 
ATOM     16  C   UNL     1      14.716   2.530  52.536  0.00  0.00    +0.000 A 
ATOM     17  O   UNL     1      15.798   1.781  52.197  0.00  0.00    +0.000 OA
ENDBRANCH  12  13
ENDBRANCH  10  12
ENDBRANCH   5   8
ENDBRANCH   1   2
BRANCH   1  18
ATOM     18  C   UNL     1      24.079   4.325  50.711  0.00  0.00    +0.000 C 
BRANCH  18  20
ATOM     19  C   UNL     1      26.417   3.575  49.653  0.00  0.00    +0.000 C 
ATOM     20  C   UNL     1      25.397   3.967  50.144  0.00  0.00    +0.000 C 
ENDBRANCH  18  20
ENDBRANCH   1  18
BRANCH   1  21
ATOM     21  C   UNL     1      23.841   3.245  52.929  0.00  0.00    +0.000 C 
BRANCH  21  22
ATOM     22  C   UNL     1      24.822   2.105  53.143  0.00  0.00    +0.000 A 
ATOM     23  C   UNL     1      24.469   0.773  52.916  0.00  0.00    +0.000 A 
ATOM     24  C   UNL     1      25.439  -0.230  52.898  0.00  0.00    +0.000 A 
ATOM     25  C   UNL     1      26.764   0.030  53.192  0.00  0.00    +0.000 A 
ATOM     26  N   UNL     1      27.645  -0.977  53.157  0.00  0.00    +0.000 NA
ATOM     27  C   UNL     1      28.908  -0.722  53.536  0.00  0.00    +0.000 A 
ATOM     28  C   UNL     1      29.850  -1.883  53.533  0.00  0.00    +0.000 C 
ATOM     29  N   UNL     1      29.352   0.475  53.945  0.00  0.00    +0.000 NA
ATOM     30  C   UNL     1      28.447   1.455  53.937  0.00  0.00    +0.000 A 
ATOM     31  C   UNL     1      27.112   1.330  53.545  0.00  0.00    +0.000 A 
ATOM     32  C   UNL     1      26.158   2.373  53.499  0.00  0.00    +0.000 A 
BRANCH  30  33
ATOM     33  O   UNL     1      28.928   2.636  54.411  0.00  0.00    +0.000 OA
ATOM     34  H   UNL     1      28.459   3.099  55.077  0.00  0.00    +0.000 HD
ENDBRANCH  30  33
ENDBRANCH  21  22
ENDBRANCH   1  21
TORSDOF 9
ENDMDL
MODEL 7
REMARK VINA RESULT:    -8.264      2.987      4.593
REMARK INTER + INTRA:         -13.692
REMARK INTER:                 -12.246
REMARK INTRA:                  -1.446
REMARK UNBOUND:                -1.322
REMARK  Name = 
REMARK  10 active torsions:
REMARK  status: ('A' for Active; 'I' for Inactive)
REMARK    1  A    between atoms: C_2  and  C_3
REMARK    2  A    between atoms: C_3  and  N_4
REMARK    3  A    between atoms: N_4  and  C_5
REMARK    4  A    between atoms: N_4  and  C_18
REMARK    5  A    between atoms: C_5  and  C_6
REMARK    6  A    between atoms: C_11  and  C_12
REMARK    7  A    between atoms: C_14  and  O_15
REMARK    8  A    between atoms: C_21  and  C_22
REMARK    9  A    between atoms: N_24  and  C_25
REMARK   10  A    between atoms: C_25  and  C_26
REMARK                            x       y       z     vdW  Elec       q    Type
REMARK                         _______ _______ _______ _____ _____    ______ ____
ROOT
ATOM      1  N   UNL     1      24.403   4.681  49.815  0.00  0.00    +0.000 N 
ENDROOT
BRANCH   1   2
ATOM      2  C   UNL     1      25.553   5.183  49.212  0.00  0.00    +0.000 A 
ATOM      3  C   UNL     1      26.735   4.454  49.051  0.00  0.00    +0.000 A 
ATOM      4  C   UNL     1      27.963   4.996  48.666  0.00  0.00    +0.000 A 
ATOM      5  C   UNL     1      28.047   6.329  48.310  0.00  0.00    +0.000 A 
ATOM      6  C   UNL     1      26.856   7.040  48.216  0.00  0.00    +0.000 A 
ATOM      7  C   UNL     1      25.640   6.472  48.662  0.00  0.00    +0.000 A 
BRANCH   5   8
ATOM      8  C   UNL     1      29.416   6.892  48.087  0.00  0.00    +0.000 C 
ATOM      9  O   UNL     1      30.060   6.579  47.090  0.00  0.00    +0.000 OA
ATOM     10  N   UNL     1      29.919   7.705  49.073  0.00  0.00    +0.000 N 
ATOM     11  H   UNL     1      29.326   7.974  49.813  0.00  0.00    +0.000 HD
BRANCH  10  12
ATOM     12  C   UNL     1      31.282   8.181  49.069  0.00  0.00    +0.000 C 
BRANCH  12  13
ATOM     13  C   UNL     1      31.273   9.612  48.683  0.00  0.00    +0.000 A 
ATOM     14  C   UNL     1      31.877  10.325  47.668  0.00  0.00    +0.000 A 
ATOM     15  C   UNL     1      31.478  11.673  47.835  0.00  0.00    +0.000 A 
ATOM     16  C   UNL     1      30.659  11.697  48.940  0.00  0.00    +0.000 A 
ATOM     17  O   UNL     1      30.524  10.450  49.459  0.00  0.00    +0.000 OA
ENDBRANCH  12  13
ENDBRANCH  10  12
ENDBRANCH   5   8
ENDBRANCH   1   2
BRANCH   1  18
ATOM     18  C   UNL     1      23.430   5.413  50.698  0.00  0.00    +0.000 C 
BRANCH  18  20
ATOM     19  C   UNL     1      23.418   4.860  53.314  0.00  0.00    +0.000 C 
ATOM     20  C   UNL     1      23.428   5.170  52.157  0.00  0.00    +0.000 C 
ENDBRANCH  18  20
ENDBRANCH   1  18
BRANCH   1  21
ATOM     21  C   UNL     1      23.831   3.395  49.317  0.00  0.00    +0.000 C 
BRANCH  21  22
ATOM     22  C   UNL     1      23.729   2.324  50.390  0.00  0.00    +0.000 A 
ATOM     23  C   UNL     1      24.823   1.959  51.177  0.00  0.00    +0.000 A 
ATOM     24  C   UNL     1      24.657   1.144  52.299  0.00  0.00    +0.000 A 
ATOM     25  C   UNL     1      23.432   0.592  52.624  0.00  0.00    +0.000 A 
ATOM     26  N   UNL     1      23.340  -0.179  53.714  0.00  0.00    +0.000 NA
ATOM     27  C   UNL     1      22.164  -0.781  53.961  0.00  0.00    +0.000 A 
ATOM     28  C   UNL     1      22.115  -1.677  55.157  0.00  0.00    +0.000 C 
ATOM     29  N   UNL     1      21.072  -0.660  53.193  0.00  0.00    +0.000 NA
ATOM     30  C   UNL     1      21.201   0.142  52.135  0.00  0.00    +0.000 A 
ATOM     31  C   UNL     1      22.356   0.843  51.779  0.00  0.00    +0.000 A 
ATOM     32  C   UNL     1      22.489   1.723  50.679  0.00  0.00    +0.000 A 
BRANCH  30  33
ATOM     33  O   UNL     1      20.087   0.190  51.356  0.00  0.00    +0.000 OA
ATOM     34  H   UNL     1      19.913   0.948  50.833  0.00  0.00    +0.000 HD
ENDBRANCH  30  33
ENDBRANCH  21  22
ENDBRANCH   1  21
TORSDOF 9
ENDMDL
MODEL 8
REMARK VINA RESULT:    -8.176      1.701      2.274
REMARK INTER + INTRA:         -13.561
REMARK INTER:                 -12.164
REMARK INTRA:                  -1.397
REMARK UNBOUND:                -1.322
REMARK  Name = 
REMARK  10 active torsions:
REMARK  status: ('A' for Active; 'I' for Inactive)
REMARK    1  A    between atoms: C_2  and  C_3
REMARK    2  A    between atoms: C_3  and  N_4
REMARK    3  A    between atoms: N_4  and  C_5
REMARK    4  A    between atoms: N_4  and  C_18
REMARK    5  A    between atoms: C_5  and  C_6
REMARK    6  A    between atoms: C_11  and  C_12
REMARK    7  A    between atoms: C_14  and  O_15
REMARK    8  A    between atoms: C_21  and  C_22
REMARK    9  A    between atoms: N_24  and  C_25
REMARK   10  A    between atoms: C_25  and  C_26
REMARK                            x       y       z     vdW  Elec       q    Type
REMARK                         _______ _______ _______ _____ _____    ______ ____
ROOT
ATOM      1  N   UNL     1      21.949   3.032  51.606  0.00  0.00    +0.000 N 
ENDROOT
BRANCH   1   2
ATOM      2  C   UNL     1      22.527   4.104  50.932  0.00  0.00    +0.000 A 
ATOM      3  C   UNL     1      22.742   4.137  49.551  0.00  0.00    +0.000 A 
ATOM      4  C   UNL     1      23.520   5.086  48.885  0.00  0.00    +0.000 A 
ATOM      5  C   UNL     1      24.056   6.151  49.584  0.00  0.00    +0.000 A 
ATOM      6  C   UNL     1      23.670   6.302  50.911  0.00  0.00    +0.000 A 
ATOM      7  C   UNL     1      22.923   5.294  51.564  0.00  0.00    +0.000 A 
BRANCH   5   8
ATOM      8  C   UNL     1      25.027   7.027  48.855  0.00  0.00    +0.000 C 
ATOM      9  O   UNL     1      24.799   7.380  47.702  0.00  0.00    +0.000 OA
ATOM     10  N   UNL     1      26.187   7.349  49.517  0.00  0.00    +0.000 N 
ATOM     11  H   UNL     1      26.277   7.095  50.464  0.00  0.00    +0.000 HD
BRANCH  10  12
ATOM     12  C   UNL     1      27.278   8.044  48.877  0.00  0.00    +0.000 C 
BRANCH  12  13
ATOM     13  C   UNL     1      28.324   7.052  48.534  0.00  0.00    +0.000 A 
ATOM     14  C   UNL     1      28.312   5.684  48.356  0.00  0.00    +0.000 A 
ATOM     15  C   UNL     1      29.639   5.310  48.037  0.00  0.00    +0.000 A 
ATOM     16  C   UNL     1      30.377   6.472  48.042  0.00  0.00    +0.000 A 
ATOM     17  O   UNL     1      29.586   7.536  48.337  0.00  0.00    +0.000 OA
ENDBRANCH  12  13
ENDBRANCH  10  12
ENDBRANCH   5   8
ENDBRANCH   1   2
BRANCH   1  18
ATOM     18  C   UNL     1      20.692   3.031  52.432  0.00  0.00    +0.000 C 
BRANCH  18  20
ATOM     19  C   UNL     1      18.765   1.307  51.749  0.00  0.00    +0.000 C 
ATOM     20  C   UNL     1      19.586   2.108  52.095  0.00  0.00    +0.000 C 
ENDBRANCH  18  20
ENDBRANCH   1  18
BRANCH   1  21
ATOM     21  C   UNL     1      22.373   1.645  51.251  0.00  0.00    +0.000 C 
BRANCH  21  22
ATOM     22  C   UNL     1      23.587   1.167  52.028  0.00  0.00    +0.000 A 
ATOM     23  C   UNL     1      23.529   0.068  52.889  0.00  0.00    +0.000 A 
ATOM     24  C   UNL     1      24.695  -0.491  53.414  0.00  0.00    +0.000 A 
ATOM     25  C   UNL     1      25.939   0.066  53.185  0.00  0.00    +0.000 A 
ATOM     26  N   UNL     1      27.018  -0.519  53.717  0.00  0.00    +0.000 NA
ATOM     27  C   UNL     1      28.206   0.090  53.561  0.00  0.00    +0.000 A 
ATOM     28  C   UNL     1      29.379  -0.567  54.214  0.00  0.00    +0.000 C 
ATOM     29  N   UNL     1      28.388   1.244  52.904  0.00  0.00    +0.000 NA
ATOM     30  C   UNL     1      27.290   1.776  52.366  0.00  0.00    +0.000 A 
ATOM     31  C   UNL     1      26.003   1.235  52.434  0.00  0.00    +0.000 A 
ATOM     32  C   UNL     1      24.841   1.776  51.834  0.00  0.00    +0.000 A 
BRANCH  30  33
ATOM     33  O   UNL     1      27.513   2.972  51.758  0.00  0.00    +0.000 OA
ATOM     34  H   UNL     1      28.244   3.500  52.016  0.00  0.00    +0.000 HD
ENDBRANCH  30  33
ENDBRANCH  21  22
ENDBRANCH   1  21
TORSDOF 9
ENDMDL
MODEL 9
REMARK VINA RESULT:    -8.066      2.134      3.075
REMARK INTER + INTRA:         -13.396
REMARK INTER:                 -11.715
REMARK INTRA:                  -1.681
REMARK UNBOUND:                -1.322
REMARK  Name = 
REMARK  10 active torsions:
REMARK  status: ('A' for Active; 'I' for Inactive)
REMARK    1  A    between atoms: C_2  and  C_3
REMARK    2  A    between atoms: C_3  and  N_4
REMARK    3  A    between atoms: N_4  and  C_5
REMARK    4  A    between atoms: N_4  and  C_18
REMARK    5  A    between atoms: C_5  and  C_6
REMARK    6  A    between atoms: C_11  and  C_12
REMARK    7  A    between atoms: C_14  and  O_15
REMARK    8  A    between atoms: C_21  and  C_22
REMARK    9  A    between atoms: N_24  and  C_25
REMARK   10  A    between atoms: C_25  and  C_26
REMARK                            x       y       z     vdW  Elec       q    Type
REMARK                         _______ _______ _______ _____ _____    ______ ____
ROOT
ATOM      1  N   UNL     1      21.771   2.332  51.991  0.00  0.00    +0.000 N 
ENDROOT
BRANCH   1   2
ATOM      2  C   UNL     1      22.201   3.637  51.761  0.00  0.00    +0.000 A 
ATOM      3  C   UNL     1      21.922   4.359  50.597  0.00  0.00    +0.000 A 
ATOM      4  C   UNL     1      22.527   5.567  50.242  0.00  0.00    +0.000 A 
ATOM      5  C   UNL     1      23.398   6.186  51.118  0.00  0.00    +0.000 A 
ATOM      6  C   UNL     1      23.522   5.636  52.389  0.00  0.00    +0.000 A 
ATOM      7  C   UNL     1      22.934   4.386  52.695  0.00  0.00    +0.000 A 
BRANCH   5   8
ATOM      8  C   UNL     1      24.151   7.375  50.608  0.00  0.00    +0.000 C 
ATOM      9  O   UNL     1      23.551   8.319  50.103  0.00  0.00    +0.000 OA
ATOM     10  N   UNL     1      25.522   7.315  50.676  0.00  0.00    +0.000 N 
ATOM     11  H   UNL     1      25.939   6.563  51.156  0.00  0.00    +0.000 HD
BRANCH  10  12
ATOM     12  C   UNL     1      26.374   8.312  50.073  0.00  0.00    +0.000 C 
BRANCH  12  13
ATOM     13  C   UNL     1      27.369   7.619  49.221  0.00  0.00    +0.000 A 
ATOM     14  C   UNL     1      27.371   6.410  48.556  0.00  0.00    +0.000 A 
ATOM     15  C   UNL     1      28.626   6.312  47.909  0.00  0.00    +0.000 A 
ATOM     16  C   UNL     1      29.310   7.464  48.221  0.00  0.00    +0.000 A 
ATOM     17  O   UNL     1      28.553   8.267  49.013  0.00  0.00    +0.000 OA
ENDBRANCH  12  13
ENDBRANCH  10  12
ENDBRANCH   5   8
ENDBRANCH   1   2
BRANCH   1  18
ATOM     18  C   UNL     1      20.444   1.882  52.537  0.00  0.00    +0.000 C 
BRANCH  18  20
ATOM     19  C   UNL     1      20.401  -0.362  53.990  0.00  0.00    +0.000 C 
ATOM     20  C   UNL     1      20.360   0.656  53.360  0.00  0.00    +0.000 C 
ENDBRANCH  18  20
ENDBRANCH   1  18
BRANCH   1  21
ATOM     21  C   UNL     1      22.510   1.205  51.348  0.00  0.00    +0.000 C 
BRANCH  21  22
ATOM     22  C   UNL     1      23.985   1.166  51.709  0.00  0.00    +0.000 A 
ATOM     23  C   UNL     1      24.948   1.839  50.954  0.00  0.00    +0.000 A 
ATOM     24  C   UNL     1      26.255   1.979  51.425  0.00  0.00    +0.000 A 
ATOM     25  C   UNL     1      26.674   1.385  52.601  0.00  0.00    +0.000 A 
ATOM     26  N   UNL     1      27.941   1.558  52.997  0.00  0.00    +0.000 NA
ATOM     27  C   UNL     1      28.354   0.897  54.091  0.00  0.00    +0.000 A 
ATOM     28  C   UNL     1      29.789   1.074  54.472  0.00  0.00    +0.000 C 
ATOM     29  N   UNL     1      27.584   0.077  54.819  0.00  0.00    +0.000 NA
ATOM     30  C   UNL     1      26.321  -0.043  54.405  0.00  0.00    +0.000 A 
ATOM     31  C   UNL     1      25.761   0.604  53.301  0.00  0.00    +0.000 A 
ATOM     32  C   UNL     1      24.414   0.510  52.878  0.00  0.00    +0.000 A 
BRANCH  30  33
ATOM     33  O   UNL     1      25.594  -0.926  55.140  0.00  0.00    +0.000 OA
ATOM     34  H   UNL     1      24.668  -0.992  55.013  0.00  0.00    +0.000 HD
ENDBRANCH  30  33
ENDBRANCH  21  22
ENDBRANCH   1  21
TORSDOF 9
ENDMDL
