MODEL 1
REMARK VINA RESULT:    -8.130      0.000      0.000
REMARK INTER + INTRA:         -11.769
REMARK INTER:                 -10.982
REMARK INTRA:                  -0.786
REMARK UNBOUND:                -0.786
REMARK  Name = 
REMARK  9 active torsions:
REMARK  status: ('A' for Active; 'I' for Inactive)
REMARK    1  A    between atoms: C_1  and  C_2
REMARK    2  A    between atoms: C_2  and  N_3
REMARK    3  A    between atoms: N_3  and  C_4
REMARK    4  A    between atoms: N_3  and  C_6
REMARK    5  A    between atoms: C_4  and  C_5
REMARK    6  A    between atoms: C_6  and  C_7
REMARK    7  A    between atoms: C_7  and  N_8
REMARK    8  A    between atoms: N_8  and  C_9
REMARK    9  A    between atoms: C_19  and  C_20
REMARK                            x       y       z     vdW  Elec       q    Type
REMARK                         _______ _______ _______ _____ _____    ______ ____
ROOT
ATOM      1  C   UNL     1      23.585  -0.583  53.817  0.00  0.00    +0.000 A 
ATOM      2  C   UNL     1      22.632  -1.060  54.747  0.00  0.00    +0.000 A 
ATOM      3  C   UNL     1      21.230  -0.942  54.559  0.00  0.00    +0.000 A 
ATOM      4  C   UNL     1      20.778  -0.401  53.358  0.00  0.00    +0.000 A 
ATOM      5  N   UNL     1      19.525  -0.203  52.820  0.00  0.00    +0.000 NA
ATOM      6  C   UNL     1      19.734   0.337  51.628  0.00  0.00    +0.000 A 
ATOM      7  N   UNL     1      21.067   0.457  51.373  0.00  0.00    +0.000 N 
ATOM      8  C   UNL     1      21.770   1.038  50.312  0.00  0.00    +0.000 A 
ATOM      9  C   UNL     1      21.258   1.170  49.032  0.00  0.00    +0.000 A 
ATOM     10  C   UNL     1      21.863   2.146  48.261  0.00  0.00    +0.000 A 
ATOM     11  C   UNL     1      22.430   3.201  48.974  0.00  0.00    +0.000 A 
ATOM     12  C   UNL     1      21.313   4.175  49.478  0.00  0.00    +0.000 C 
ATOM     13  C   UNL     1      23.335   2.790  49.961  0.00  0.00    +0.000 A 
ATOM     14  C   UNL     1      23.002   1.627  50.649  0.00  0.00    +0.000 A 
ATOM     15  C   UNL     1      23.825   1.056  51.777  0.00  0.00    +0.000 A 
ATOM     16  O   UNL     1      25.012   1.320  51.884  0.00  0.00    +0.000 OA
ATOM     17  C   UNL     1      23.095   0.170  52.741  0.00  0.00    +0.000 A 
ATOM     18  C   UNL     1      21.737   0.093  52.500  0.00  0.00    +0.000 A 
ENDROOT
BRANCH   1  19
ATOM     19  N   UNL     1      24.956  -0.789  53.985  0.00  0.00    +0.000 N 
ATOM     20  H   UNL     1      25.433  -1.363  53.343  0.00  0.00    +0.000 HD
BRANCH  19  21
ATOM     21  C   UNL     1      25.711  -0.180  55.089  0.00  0.00    +0.000 C 
BRANCH  21  22
ATOM     22  C   UNL     1      27.096   0.430  54.717  0.00  0.00    +0.000 C 
BRANCH  22  23
ATOM     23  N   UNL     1      27.596   0.206  53.342  0.00  0.00    +0.000 N 
ATOM     24  H   UNL     1      26.785   0.049  52.743  0.00  0.00    +0.000 HD
BRANCH  23  26
ATOM     25  C   UNL     1      28.569   2.449  53.847  0.00  0.00    +0.000 C 
ATOM     26  C   UNL     1      28.263   1.393  52.785  0.00  0.00    +0.000 C 
ENDBRANCH  23  26
BRANCH  23  27
ATOM     27  C   UNL     1      28.420  -1.020  53.261  0.00  0.00    +0.000 C 
ATOM     28  C   UNL     1      29.904  -0.901  53.615  0.00  0.00    +0.000 C 
ENDBRANCH  23  27
ENDBRANCH  22  23
ENDBRANCH  21  22
ENDBRANCH  19  21
ENDBRANCH   1  19
TORSDOF 6
ENDMDL
MODEL 2
REMARK VINA RESULT:    -7.928      2.002      5.703
REMARK INTER + INTRA:         -11.495
REMARK INTER:                 -10.463
REMARK INTRA:                  -1.032
REMARK UNBOUND:                -0.786
REMARK  Name = 
REMARK  9 active torsions:
REMARK  status: ('A' for Active; 'I' for Inactive)
REMARK    1  A    between atoms: C_1  and  C_2
REMARK    2  A    between atoms: C_2  and  N_3
REMARK    3  A    between atoms: N_3  and  C_4
REMARK    4  A    between atoms: N_3  and  C_6
REMARK    5  A    between atoms: C_4  and  C_5
REMARK    6  A    between atoms: C_6  and  C_7
REMARK    7  A    between atoms: C_7  and  N_8
REMARK    8  A    between atoms: N_8  and  C_9
REMARK    9  A    between atoms: C_19  and  C_20
REMARK                            x       y       z     vdW  Elec       q    Type
REMARK                         _______ _______ _______ _____ _____    ______ ____
ROOT
ATOM      1  C   UNL     1      21.594   1.678  52.336  0.00  0.00    +0.000 A 
ATOM      2  C   UNL     1      20.424   1.070  52.848  0.00  0.00    +0.000 A 
ATOM      3  C   UNL     1      20.445  -0.030  53.745  0.00  0.00    +0.000 A 
ATOM      4  C   UNL     1      21.683  -0.474  54.202  0.00  0.00    +0.000 A 
ATOM      5  N   UNL     1      22.069  -1.442  55.104  0.00  0.00    +0.000 NA
ATOM      6  C   UNL     1      23.393  -1.386  55.137  0.00  0.00    +0.000 A 
ATOM      7  N   UNL     1      23.861  -0.399  54.321  0.00  0.00    +0.000 N 
ATOM      8  C   UNL     1      25.157  -0.019  53.958  0.00  0.00    +0.000 A 
ATOM      9  C   UNL     1      26.272  -0.239  54.748  0.00  0.00    +0.000 A 
ATOM     10  C   UNL     1      27.477  -0.236  54.070  0.00  0.00    +0.000 A 
ATOM     11  C   UNL     1      27.405  -0.601  52.727  0.00  0.00    +0.000 A 
ATOM     12  C   UNL     1      27.241  -2.153  52.597  0.00  0.00    +0.000 C 
ATOM     13  C   UNL     1      26.477   0.147  51.990  0.00  0.00    +0.000 A 
ATOM     14  C   UNL     1      25.300   0.483  52.652  0.00  0.00    +0.000 A 
ATOM     15  C   UNL     1      24.165   1.241  52.010  0.00  0.00    +0.000 A 
ATOM     16  O   UNL     1      24.358   1.957  51.039  0.00  0.00    +0.000 OA
ATOM     17  C   UNL     1      22.813   1.049  52.627  0.00  0.00    +0.000 A 
ATOM     18  C   UNL     1      22.798   0.114  53.644  0.00  0.00    +0.000 A 
ENDROOT
BRANCH   1  19
ATOM     19  N   UNL     1      21.547   2.813  51.524  0.00  0.00    +0.000 N 
ATOM     20  H   UNL     1      21.271   2.715  50.584  0.00  0.00    +0.000 HD
BRANCH  19  21
ATOM     21  C   UNL     1      21.896   4.151  52.025  0.00  0.00    +0.000 C 
BRANCH  21  22
ATOM     22  C   UNL     1      22.507   5.135  50.982  0.00  0.00    +0.000 C 
BRANCH  22  23
ATOM     23  N   UNL     1      23.543   4.606  50.066  0.00  0.00    +0.000 N 
ATOM     24  H   UNL     1      23.695   3.626  50.309  0.00  0.00    +0.000 HD
BRANCH  23  26
ATOM     25  C   UNL     1      22.705   3.197  48.183  0.00  0.00    +0.000 C 
ATOM     26  C   UNL     1      23.101   4.593  48.663  0.00  0.00    +0.000 C 
ENDBRANCH  23  26
BRANCH  23  27
ATOM     27  C   UNL     1      24.838   5.293  50.265  0.00  0.00    +0.000 C 
ATOM     28  C   UNL     1      25.993   4.912  49.336  0.00  0.00    +0.000 C 
ENDBRANCH  23  27
ENDBRANCH  22  23
ENDBRANCH  21  22
ENDBRANCH  19  21
ENDBRANCH   1  19
TORSDOF 6
ENDMDL
MODEL 3
REMARK VINA RESULT:    -7.592      2.370      5.967
REMARK INTER + INTRA:         -11.041
REMARK INTER:                 -10.343
REMARK INTRA:                  -0.698
REMARK UNBOUND:                -0.786
REMARK  Name = 
REMARK  9 active torsions:
REMARK  status: ('A' for Active; 'I' for Inactive)
REMARK    1  A    between atoms: C_1  and  C_2
REMARK    2  A    between atoms: C_2  and  N_3
REMARK    3  A    between atoms: N_3  and  C_4
REMARK    4  A    between atoms: N_3  and  C_6
REMARK    5  A    between atoms: C_4  and  C_5
REMARK    6  A    between atoms: C_6  and  C_7
REMARK    7  A    between atoms: C_7  and  N_8
REMARK    8  A    between atoms: N_8  and  C_9
REMARK    9  A    between atoms: C_19  and  C_20
REMARK                            x       y       z     vdW  Elec       q    Type
REMARK                         _______ _______ _______ _____ _____    ______ ____
ROOT
ATOM      1  C   UNL     1      21.574   1.878  52.160  0.00  0.00    +0.000 A 
ATOM      2  C   UNL     1      20.368   1.298  52.616  0.00  0.00    +0.000 A 
ATOM      3  C   UNL     1      20.320   0.175  53.483  0.00  0.00    +0.000 A 
ATOM      4  C   UNL     1      21.526  -0.323  53.970  0.00  0.00    +0.000 A 
ATOM      5  N   UNL     1      21.848  -1.326  54.858  0.00  0.00    +0.000 NA
ATOM      6  C   UNL     1      23.171  -1.318  54.937  0.00  0.00    +0.000 A 
ATOM      7  N   UNL     1      23.699  -0.327  54.164  0.00  0.00    +0.000 N 
ATOM      8  C   UNL     1      25.019   0.017  53.855  0.00  0.00    +0.000 A 
ATOM      9  C   UNL     1      26.099  -0.262  54.676  0.00  0.00    +0.000 A 
ATOM     10  C   UNL     1      27.326  -0.283  54.039  0.00  0.00    +0.000 A 
ATOM     11  C   UNL     1      27.287  -0.611  52.685  0.00  0.00    +0.000 A 
ATOM     12  C   UNL     1      27.076  -2.152  52.508  0.00  0.00    +0.000 C 
ATOM     13  C   UNL     1      26.412   0.188  51.938  0.00  0.00    +0.000 A 
ATOM     14  C   UNL     1      25.224   0.547  52.568  0.00  0.00    +0.000 A 
ATOM     15  C   UNL     1      24.138   1.360  51.908  0.00  0.00    +0.000 A 
ATOM     16  O   UNL     1      24.389   2.093  50.965  0.00  0.00    +0.000 OA
ATOM     17  C   UNL     1      22.760   1.200  52.475  0.00  0.00    +0.000 A 
ATOM     18  C   UNL     1      22.678   0.240  53.466  0.00  0.00    +0.000 A 
ENDROOT
BRANCH   1  19
ATOM     19  N   UNL     1      21.594   3.034  51.377  0.00  0.00    +0.000 N 
ATOM     20  H   UNL     1      21.589   2.946  50.396  0.00  0.00    +0.000 HD
BRANCH  19  21
ATOM     21  C   UNL     1      21.621   4.380  51.967  0.00  0.00    +0.000 C 
BRANCH  21  22
ATOM     22  C   UNL     1      23.015   5.077  52.022  0.00  0.00    +0.000 C 
BRANCH  22  23
ATOM     23  N   UNL     1      23.352   6.019  50.930  0.00  0.00    +0.000 N 
ATOM     24  H   UNL     1      24.078   6.645  51.280  0.00  0.00    +0.000 HD
BRANCH  23  26
ATOM     25  C   UNL     1      25.477   5.430  49.759  0.00  0.00    +0.000 C 
ATOM     26  C   UNL     1      23.952   5.343  49.769  0.00  0.00    +0.000 C 
ENDBRANCH  23  26
BRANCH  23  27
ATOM     27  C   UNL     1      22.196   6.872  50.578  0.00  0.00    +0.000 C 
ATOM     28  C   UNL     1      22.485   8.217  49.909  0.00  0.00    +0.000 C 
ENDBRANCH  23  27
ENDBRANCH  22  23
ENDBRANCH  21  22
ENDBRANCH  19  21
ENDBRANCH   1  19
TORSDOF 6
ENDMDL
MODEL 4
REMARK VINA RESULT:    -7.369      2.346      7.082
REMARK INTER + INTRA:         -10.740
REMARK INTER:                 -10.285
REMARK INTRA:                  -0.456
REMARK UNBOUND:                -0.786
REMARK  Name = 
REMARK  9 active torsions:
REMARK  status: ('A' for Active; 'I' for Inactive)
REMARK    1  A    between atoms: C_1  and  C_2
REMARK    2  A    between atoms: C_2  and  N_3
REMARK    3  A    between atoms: N_3  and  C_4
REMARK    4  A    between atoms: N_3  and  C_6
REMARK    5  A    between atoms: C_4  and  C_5
REMARK    6  A    between atoms: C_6  and  C_7
REMARK    7  A    between atoms: C_7  and  N_8
REMARK    8  A    between atoms: N_8  and  C_9
REMARK    9  A    between atoms: C_19  and  C_20
REMARK                            x       y       z     vdW  Elec       q    Type
REMARK                         _______ _______ _______ _____ _____    ______ ____
ROOT
ATOM      1  C   UNL     1      21.513   1.587  52.454  0.00  0.00    +0.000 A 
ATOM      2  C   UNL     1      20.374   0.952  52.999  0.00  0.00    +0.000 A 
ATOM      3  C   UNL     1      20.446  -0.153  53.887  0.00  0.00    +0.000 A 
ATOM      4  C   UNL     1      21.707  -0.575  54.300  0.00  0.00    +0.000 A 
ATOM      5  N   UNL     1      22.143  -1.541  55.181  0.00  0.00    +0.000 NA
ATOM      6  C   UNL     1      23.465  -1.459  55.171  0.00  0.00    +0.000 A 
ATOM      7  N   UNL     1      23.885  -0.457  54.347  0.00  0.00    +0.000 N 
ATOM      8  C   UNL     1      25.161  -0.049  53.944  0.00  0.00    +0.000 A 
ATOM      9  C   UNL     1      26.306  -0.251  54.696  0.00  0.00    +0.000 A 
ATOM     10  C   UNL     1      27.488  -0.219  53.978  0.00  0.00    +0.000 A 
ATOM     11  C   UNL     1      27.378  -0.576  52.636  0.00  0.00    +0.000 A 
ATOM     12  C   UNL     1      27.241  -2.130  52.499  0.00  0.00    +0.000 C 
ATOM     13  C   UNL     1      26.412   0.158  51.936  0.00  0.00    +0.000 A 
ATOM     14  C   UNL     1      25.251   0.465  52.638  0.00  0.00    +0.000 A 
ATOM     15  C   UNL     1      24.080   1.204  52.039  0.00  0.00    +0.000 A 
ATOM     16  O   UNL     1      24.226   1.931  51.069  0.00  0.00    +0.000 OA
ATOM     17  C   UNL     1      22.753   0.981  52.700  0.00  0.00    +0.000 A 
ATOM     18  C   UNL     1      22.791   0.039  53.710  0.00  0.00    +0.000 A 
ENDROOT
BRANCH   1  19
ATOM     19  N   UNL     1      21.416   2.727  51.652  0.00  0.00    +0.000 N 
ATOM     20  H   UNL     1      22.104   2.886  50.966  0.00  0.00    +0.000 HD
BRANCH  19  21
ATOM     21  C   UNL     1      20.322   3.697  51.799  0.00  0.00    +0.000 C 
BRANCH  21  22
ATOM     22  C   UNL     1      19.022   3.391  50.994  0.00  0.00    +0.000 C 
BRANCH  22  23
ATOM     23  N   UNL     1      17.784   3.138  51.765  0.00  0.00    +0.000 N 
ATOM     24  H   UNL     1      18.040   3.101  52.752  0.00  0.00    +0.000 HD
BRANCH  23  26
ATOM     25  C   UNL     1      15.596   4.047  52.551  0.00  0.00    +0.000 C 
ATOM     26  C   UNL     1      16.819   4.244  51.658  0.00  0.00    +0.000 C 
ENDBRANCH  23  26
BRANCH  23  27
ATOM     27  C   UNL     1      17.202   1.819  51.433  0.00  0.00    +0.000 C 
ATOM     28  C   UNL     1      17.907   0.982  50.363  0.00  0.00    +0.000 C 
ENDBRANCH  23  27
ENDBRANCH  22  23
ENDBRANCH  21  22
ENDBRANCH  19  21
ENDBRANCH   1  19
TORSDOF 6
ENDMDL
MODEL 5
REMARK VINA RESULT:    -7.330      2.271      5.956
REMARK INTER + INTRA:         -10.688
REMARK INTER:                  -9.554
REMARK INTRA:                  -1.134
REMARK UNBOUND:                -0.786
REMARK  Name = 
REMARK  9 active torsions:
REMARK  status: ('A' for Active; 'I' for Inactive)
REMARK    1  A    between atoms: C_1  and  C_2
REMARK    2  A    between atoms: C_2  and  N_3
REMARK    3  A    between atoms: N_3  and  C_4
REMARK    4  A    between atoms: N_3  and  C_6
REMARK    5  A    between atoms: C_4  and  C_5
REMARK    6  A    between atoms: C_6  and  C_7
REMARK    7  A    between atoms: C_7  and  N_8
REMARK    8  A    between atoms: N_8  and  C_9
REMARK    9  A    between atoms: C_19  and  C_20
REMARK                            x       y       z     vdW  Elec       q    Type
REMARK                         _______ _______ _______ _____ _____    ______ ____
ROOT
ATOM      1  C   UNL     1      26.394   2.157  51.457  0.00  0.00    +0.000 A 
ATOM      2  C   UNL     1      27.567   2.304  52.233  0.00  0.00    +0.000 A 
ATOM      3  C   UNL     1      27.731   1.723  53.518  0.00  0.00    +0.000 A 
ATOM      4  C   UNL     1      26.714   0.902  53.996  0.00  0.00    +0.000 A 
ATOM      5  N   UNL     1      26.566   0.141  55.135  0.00  0.00    +0.000 NA
ATOM      6  C   UNL     1      25.381  -0.440  55.021  0.00  0.00    +0.000 A 
ATOM      7  N   UNL     1      24.786  -0.108  53.840  0.00  0.00    +0.000 N 
ATOM      8  C   UNL     1      23.521  -0.392  53.316  0.00  0.00    +0.000 A 
ATOM      9  C   UNL     1      22.776  -1.505  53.666  0.00  0.00    +0.000 A 
ATOM     10  C   UNL     1      21.417  -1.394  53.433  0.00  0.00    +0.000 A 
ATOM     11  C   UNL     1      20.914  -0.095  53.459  0.00  0.00    +0.000 A 
ATOM     12  C   UNL     1      20.785   0.406  54.936  0.00  0.00    +0.000 C 
ATOM     13  C   UNL     1      21.586   0.785  52.601  0.00  0.00    +0.000 A 
ATOM     14  C   UNL     1      22.962   0.609  52.500  0.00  0.00    +0.000 A 
ATOM     15  C   UNL     1      23.861   1.488  51.667  0.00  0.00    +0.000 A 
ATOM     16  O   UNL     1      23.418   2.125  50.724  0.00  0.00    +0.000 OA
ATOM     17  C   UNL     1      25.303   1.530  52.075  0.00  0.00    +0.000 A 
ATOM     18  C   UNL     1      25.570   0.823  53.231  0.00  0.00    +0.000 A 
ENDROOT
BRANCH   1  19
ATOM     19  N   UNL     1      26.291   2.666  50.161  0.00  0.00    +0.000 N 
ATOM     20  H   UNL     1      25.930   2.088  49.450  0.00  0.00    +0.000 HD
BRANCH  19  21
ATOM     21  C   UNL     1      26.705   4.035  49.820  0.00  0.00    +0.000 C 
BRANCH  21  22
ATOM     22  C   UNL     1      25.609   4.943  49.184  0.00  0.00    +0.000 C 
BRANCH  22  23
ATOM     23  N   UNL     1      24.270   4.945  49.816  0.00  0.00    +0.000 N 
ATOM     24  H   UNL     1      24.092   4.000  50.158  0.00  0.00    +0.000 HD
BRANCH  23  26
ATOM     25  C   UNL     1      23.459   5.155  52.167  0.00  0.00    +0.000 C 
ATOM     26  C   UNL     1      24.211   5.806  51.007  0.00  0.00    +0.000 C 
ENDBRANCH  23  26
BRANCH  23  27
ATOM     27  C   UNL     1      23.209   5.240  48.828  0.00  0.00    +0.000 C 
ATOM     28  C   UNL     1      22.656   4.070  48.011  0.00  0.00    +0.000 C 
ENDBRANCH  23  27
ENDBRANCH  22  23
ENDBRANCH  21  22
ENDBRANCH  19  21
ENDBRANCH   1  19
TORSDOF 6
ENDMDL
MODEL 6
REMARK VINA RESULT:    -7.268      1.797      6.565
REMARK INTER + INTRA:         -10.604
REMARK INTER:                 -10.013
REMARK INTRA:                  -0.590
REMARK UNBOUND:                -0.786
REMARK  Name = 
REMARK  9 active torsions:
REMARK  status: ('A' for Active; 'I' for Inactive)
REMARK    1  A    between atoms: C_1  and  C_2
REMARK    2  A    between atoms: C_2  and  N_3
REMARK    3  A    between atoms: N_3  and  C_4
REMARK    4  A    between atoms: N_3  and  C_6
REMARK    5  A    between atoms: C_4  and  C_5
REMARK    6  A    between atoms: C_6  and  C_7
REMARK    7  A    between atoms: C_7  and  N_8
REMARK    8  A    between atoms: N_8  and  C_9
REMARK    9  A    between atoms: C_19  and  C_20
REMARK                            x       y       z     vdW  Elec       q    Type
REMARK                         _______ _______ _______ _____ _____    ______ ____
ROOT
ATOM      1  C   UNL     1      21.435   1.309  52.291  0.00  0.00    +0.000 A 
ATOM      2  C   UNL     1      20.323   0.611  52.817  0.00  0.00    +0.000 A 
ATOM      3  C   UNL     1      20.441  -0.453  53.750  0.00  0.00    +0.000 A 
ATOM      4  C   UNL     1      21.711  -0.762  54.228  0.00  0.00    +0.000 A 
ATOM      5  N   UNL     1      22.180  -1.660  55.163  0.00  0.00    +0.000 NA
ATOM      6  C   UNL     1      23.492  -1.478  55.201  0.00  0.00    +0.000 A 
ATOM      7  N   UNL     1      23.871  -0.479  54.355  0.00  0.00    +0.000 N 
ATOM      8  C   UNL     1      25.128   0.010  53.986  0.00  0.00    +0.000 A 
ATOM      9  C   UNL     1      26.253  -0.078  54.789  0.00  0.00    +0.000 A 
ATOM     10  C   UNL     1      27.458   0.017  54.116  0.00  0.00    +0.000 A 
ATOM     11  C   UNL     1      27.431  -0.397  52.786  0.00  0.00    +0.000 A 
ATOM     12  C   UNL     1      27.415  -1.960  52.706  0.00  0.00    +0.000 C 
ATOM     13  C   UNL     1      26.443   0.236  52.020  0.00  0.00    +0.000 A 
ATOM     14  C   UNL     1      25.234   0.480  52.664  0.00  0.00    +0.000 A 
ATOM     15  C   UNL     1      24.038   1.106  51.992  0.00  0.00    +0.000 A 
ATOM     16  O   UNL     1      24.170   1.806  50.999  0.00  0.00    +0.000 OA
ATOM     17  C   UNL     1      22.705   0.809  52.609  0.00  0.00    +0.000 A 
ATOM     18  C   UNL     1      22.770  -0.090  53.657  0.00  0.00    +0.000 A 
ENDROOT
BRANCH   1  19
ATOM     19  N   UNL     1      21.287   2.408  51.442  0.00  0.00    +0.000 N 
ATOM     20  H   UNL     1      21.958   3.129  51.474  0.00  0.00    +0.000 HD
BRANCH  19  21
ATOM     21  C   UNL     1      20.164   2.527  50.501  0.00  0.00    +0.000 C 
BRANCH  21  22
ATOM     22  C   UNL     1      20.227   1.610  49.241  0.00  0.00    +0.000 C 
BRANCH  22  23
ATOM     23  N   UNL     1      20.077   2.256  47.917  0.00  0.00    +0.000 N 
ATOM     24  H   UNL     1      19.877   1.520  47.238  0.00  0.00    +0.000 HD
BRANCH  23  26
ATOM     25  C   UNL     1      19.235   4.482  47.162  0.00  0.00    +0.000 C 
ATOM     26  C   UNL     1      18.918   3.160  47.859  0.00  0.00    +0.000 C 
ENDBRANCH  23  26
BRANCH  23  27
ATOM     27  C   UNL     1      21.339   2.895  47.483  0.00  0.00    +0.000 C 
ATOM     28  C   UNL     1      22.647   2.166  47.797  0.00  0.00    +0.000 C 
ENDBRANCH  23  27
ENDBRANCH  22  23
ENDBRANCH  21  22
ENDBRANCH  19  21
ENDBRANCH   1  19
TORSDOF 6
ENDMDL
MODEL 7
REMARK VINA RESULT:    -7.230      2.628      6.465
REMARK INTER + INTRA:         -10.552
REMARK INTER:                 -10.030
REMARK INTRA:                  -0.522
REMARK UNBOUND:                -0.786
REMARK  Name = 
REMARK  9 active torsions:
REMARK  status: ('A' for Active; 'I' for Inactive)
REMARK    1  A    between atoms: C_1  and  C_2
REMARK    2  A    between atoms: C_2  and  N_3
REMARK    3  A    between atoms: N_3  and  C_4
REMARK    4  A    between atoms: N_3  and  C_6
REMARK    5  A    between atoms: C_4  and  C_5
REMARK    6  A    between atoms: C_6  and  C_7
REMARK    7  A    between atoms: C_7  and  N_8
REMARK    8  A    between atoms: N_8  and  C_9
REMARK    9  A    between atoms: C_19  and  C_20
REMARK                            x       y       z     vdW  Elec       q    Type
REMARK                         _______ _______ _______ _____ _____    ______ ____
ROOT
ATOM      1  C   UNL     1      23.538   2.048  51.603  0.00  0.00    +0.000 A 
ATOM      2  C   UNL     1      22.283   1.420  51.779  0.00  0.00    +0.000 A 
ATOM      3  C   UNL     1      22.080   0.310  52.640  0.00  0.00    +0.000 A 
ATOM      4  C   UNL     1      23.157  -0.124  53.409  0.00  0.00    +0.000 A 
ATOM      5  N   UNL     1      23.302  -1.097  54.373  0.00  0.00    +0.000 NA
ATOM      6  C   UNL     1      24.568  -1.026  54.759  0.00  0.00    +0.000 A 
ATOM      7  N   UNL     1      25.222  -0.024  54.106  0.00  0.00    +0.000 N 
ATOM      8  C   UNL     1      26.562   0.375  54.105  0.00  0.00    +0.000 A 
ATOM      9  C   UNL     1      27.429   0.160  55.164  0.00  0.00    +0.000 A 
ATOM     10  C   UNL     1      28.771   0.186  54.832  0.00  0.00    +0.000 A 
ATOM     11  C   UNL     1      29.065  -0.165  53.516  0.00  0.00    +0.000 A 
ATOM     12  C   UNL     1      28.965  -1.717  53.335  0.00  0.00    +0.000 C 
ATOM     13  C   UNL     1      28.358   0.580  52.564  0.00  0.00    +0.000 A 
ATOM     14  C   UNL     1      27.042   0.894  52.889  0.00  0.00    +0.000 A 
ATOM     15  C   UNL     1      26.109   1.645  51.973  0.00  0.00    +0.000 A 
ATOM     16  O   UNL     1      26.543   2.375  51.095  0.00  0.00    +0.000 OA
ATOM     17  C   UNL     1      24.644   1.431  52.205  0.00  0.00    +0.000 A 
ATOM     18  C   UNL     1      24.371   0.484  53.174  0.00  0.00    +0.000 A 
ENDROOT
BRANCH   1  19
ATOM     19  N   UNL     1      23.693   3.191  50.817  0.00  0.00    +0.000 N 
ATOM     20  H   UNL     1      24.423   3.220  50.156  0.00  0.00    +0.000 HD
BRANCH  19  21
ATOM     21  C   UNL     1      22.804   4.355  50.942  0.00  0.00    +0.000 C 
BRANCH  21  22
ATOM     22  C   UNL     1      23.475   5.684  51.405  0.00  0.00    +0.000 C 
BRANCH  22  23
ATOM     23  N   UNL     1      24.034   6.570  50.359  0.00  0.00    +0.000 N 
ATOM     24  H   UNL     1      23.623   6.289  49.468  0.00  0.00    +0.000 HD
BRANCH  23  26
ATOM     25  C   UNL     1      22.549   8.412  49.563  0.00  0.00    +0.000 C 
ATOM     26  C   UNL     1      23.638   7.975  50.541  0.00  0.00    +0.000 C 
ENDBRANCH  23  26
BRANCH  23  27
ATOM     27  C   UNL     1      25.496   6.386  50.223  0.00  0.00    +0.000 C 
ATOM     28  C   UNL     1      25.997   5.513  49.071  0.00  0.00    +0.000 C 
ENDBRANCH  23  27
ENDBRANCH  22  23
ENDBRANCH  21  22
ENDBRANCH  19  21
ENDBRANCH   1  19
TORSDOF 6
ENDMDL
MODEL 8
REMARK VINA RESULT:    -7.141      2.422      7.064
REMARK INTER + INTRA:         -10.432
REMARK INTER:                  -9.529
REMARK INTRA:                  -0.903
REMARK UNBOUND:                -0.786
REMARK  Name = 
REMARK  9 active torsions:
REMARK  status: ('A' for Active; 'I' for Inactive)
REMARK    1  A    between atoms: C_1  and  C_2
REMARK    2  A    between atoms: C_2  and  N_3
REMARK    3  A    between atoms: N_3  and  C_4
REMARK    4  A    between atoms: N_3  and  C_6
REMARK    5  A    between atoms: C_4  and  C_5
REMARK    6  A    between atoms: C_6  and  C_7
REMARK    7  A    between atoms: C_7  and  N_8
REMARK    8  A    between atoms: N_8  and  C_9
REMARK    9  A    between atoms: C_19  and  C_20
REMARK                            x       y       z     vdW  Elec       q    Type
REMARK                         _______ _______ _______ _____ _____    ______ ____
ROOT
ATOM      1  C   UNL     1      21.530   2.512  52.183  0.00  0.00    +0.000 A 
ATOM      2  C   UNL     1      21.513   3.811  51.623  0.00  0.00    +0.000 A 
ATOM      3  C   UNL     1      22.678   4.477  51.160  0.00  0.00    +0.000 A 
ATOM      4  C   UNL     1      23.882   3.777  51.187  0.00  0.00    +0.000 A 
ATOM      5  N   UNL     1      25.160   4.074  50.767  0.00  0.00    +0.000 NA
ATOM      6  C   UNL     1      25.882   2.997  51.042  0.00  0.00    +0.000 A 
ATOM      7  N   UNL     1      25.106   2.017  51.586  0.00  0.00    +0.000 N 
ATOM      8  C   UNL     1      25.419   0.760  52.114  0.00  0.00    +0.000 A 
ATOM      9  C   UNL     1      26.527   0.020  51.734  0.00  0.00    +0.000 A 
ATOM     10  C   UNL     1      26.932  -0.935  52.649  0.00  0.00    +0.000 A 
ATOM     11  C   UNL     1      26.612  -0.660  53.976  0.00  0.00    +0.000 A 
ATOM     12  C   UNL     1      27.584   0.424  54.553  0.00  0.00    +0.000 C 
ATOM     13  C   UNL     1      25.252  -0.394  54.184  0.00  0.00    +0.000 A 
ATOM     14  C   UNL     1      24.612   0.331  53.183  0.00  0.00    +0.000 A 
ATOM     15  C   UNL     1      23.166   0.755  53.250  0.00  0.00    +0.000 A 
ATOM     16  O   UNL     1      22.368   0.157  53.955  0.00  0.00    +0.000 OA
ATOM     17  C   UNL     1      22.789   1.941  52.416  0.00  0.00    +0.000 A 
ATOM     18  C   UNL     1      23.863   2.534  51.781  0.00  0.00    +0.000 A 
ENDROOT
BRANCH   1  19
ATOM     19  N   UNL     1      20.359   1.846  52.550  0.00  0.00    +0.000 N 
ATOM     20  H   UNL     1      20.330   1.375  53.414  0.00  0.00    +0.000 HD
BRANCH  19  21
ATOM     21  C   UNL     1      19.167   1.824  51.690  0.00  0.00    +0.000 C 
BRANCH  21  22
ATOM     22  C   UNL     1      19.253   0.920  50.423  0.00  0.00    +0.000 C 
BRANCH  22  23
ATOM     23  N   UNL     1      19.132   1.578  49.103  0.00  0.00    +0.000 N 
ATOM     24  H   UNL     1      18.831   0.869  48.433  0.00  0.00    +0.000 HD
BRANCH  23  26
ATOM     25  C   UNL     1      16.689   2.014  48.832  0.00  0.00    +0.000 C 
ATOM     26  C   UNL     1      18.076   2.603  49.080  0.00  0.00    +0.000 C 
ENDBRANCH  23  26
BRANCH  23  27
ATOM     27  C   UNL     1      20.441   2.076  48.627  0.00  0.00    +0.000 C 
ATOM     28  C   UNL     1      21.636   1.124  48.715  0.00  0.00    +0.000 C 
ENDBRANCH  23  27
ENDBRANCH  22  23
ENDBRANCH  21  22
ENDBRANCH  19  21
ENDBRANCH   1  19
TORSDOF 6
ENDMDL
MODEL 9
REMARK VINA RESULT:    -7.124      3.799      6.311
REMARK INTER + INTRA:         -10.409
REMARK INTER:                  -9.956
REMARK INTRA:                  -0.454
REMARK UNBOUND:                -0.786
REMARK  Name = 
REMARK  9 active torsions:
REMARK  status: ('A' for Active; 'I' for Inactive)
REMARK    1  A    between atoms: C_1  and  C_2
REMARK    2  A    between atoms: C_2  and  N_3
REMARK    3  A    between atoms: N_3  and  C_4
REMARK    4  A    between atoms: N_3  and  C_6
REMARK    5  A    between atoms: C_4  and  C_5
REMARK    6  A    between atoms: C_6  and  C_7
REMARK    7  A    between atoms: C_7  and  N_8
REMARK    8  A    between atoms: N_8  and  C_9
REMARK    9  A    between atoms: C_19  and  C_20
REMARK                            x       y       z     vdW  Elec       q    Type
REMARK                         _______ _______ _______ _____ _____    ______ ____
ROOT
ATOM      1  C   UNL     1      23.827   4.007  51.499  0.00  0.00    +0.000 A 
ATOM      2  C   UNL     1      22.418   4.010  51.381  0.00  0.00    +0.000 A 
ATOM      3  C   UNL     1      21.597   2.935  51.810  0.00  0.00    +0.000 A 
ATOM      4  C   UNL     1      22.211   1.862  52.452  0.00  0.00    +0.000 A 
ATOM      5  N   UNL     1      21.734   0.713  53.044  0.00  0.00    +0.000 NA
ATOM      6  C   UNL     1      22.805   0.083  53.506  0.00  0.00    +0.000 A 
ATOM      7  N   UNL     1      23.937   0.803  53.264  0.00  0.00    +0.000 N 
ATOM      8  C   UNL     1      25.290   0.520  53.476  0.00  0.00    +0.000 A 
ATOM      9  C   UNL     1      25.751  -0.348  54.451  0.00  0.00    +0.000 A 
ATOM     10  C   UNL     1      27.016  -0.858  54.227  0.00  0.00    +0.000 A 
ATOM     11  C   UNL     1      27.397  -0.936  52.889  0.00  0.00    +0.000 A 
ATOM     12  C   UNL     1      26.695  -2.151  52.196  0.00  0.00    +0.000 C 
ATOM     13  C   UNL     1      27.279   0.278  52.199  0.00  0.00    +0.000 A 
ATOM     14  C   UNL     1      26.180   1.065  52.532  0.00  0.00    +0.000 A 
ATOM     15  C   UNL     1      25.857   2.378  51.865  0.00  0.00    +0.000 A 
ATOM     16  O   UNL     1      26.726   3.030  51.307  0.00  0.00    +0.000 OA
ATOM     17  C   UNL     1      24.423   2.812  51.925  0.00  0.00    +0.000 A 
ATOM     18  C   UNL     1      23.588   1.877  52.505  0.00  0.00    +0.000 A 
ENDROOT
BRANCH   1  19
ATOM     19  N   UNL     1      24.604   5.113  51.149  0.00  0.00    +0.000 N 
ATOM     20  H   UNL     1      25.007   5.658  51.865  0.00  0.00    +0.000 HD
BRANCH  19  21
ATOM     21  C   UNL     1      24.842   5.494  49.750  0.00  0.00    +0.000 C 
BRANCH  21  22
ATOM     22  C   UNL     1      25.370   6.942  49.514  0.00  0.00    +0.000 C 
BRANCH  22  23
ATOM     23  N   UNL     1      26.837   7.142  49.503  0.00  0.00    +0.000 N 
ATOM     24  H   UNL     1      27.235   6.524  50.211  0.00  0.00    +0.000 HD
BRANCH  23  26
ATOM     25  C   UNL     1      28.415   5.549  48.405  0.00  0.00    +0.000 C 
ATOM     26  C   UNL     1      27.453   6.723  48.234  0.00  0.00    +0.000 C 
ENDBRANCH  23  26
BRANCH  23  27
ATOM     27  C   UNL     1      27.196   8.521  49.900  0.00  0.00    +0.000 C 
ATOM     28  C   UNL     1      28.105   9.316  48.961  0.00  0.00    +0.000 C 
ENDBRANCH  23  27
ENDBRANCH  22  23
ENDBRANCH  21  22
ENDBRANCH  19  21
ENDBRANCH   1  19
TORSDOF 6
ENDMDL
