MODEL 1
REMARK VINA RESULT:    -8.798      0.000      0.000
REMARK INTER + INTRA:         -14.606
REMARK INTER:                 -13.170
REMARK INTRA:                  -1.437
REMARK UNBOUND:                -1.437
REMARK  Name = 
REMARK  11 active torsions:
REMARK  status: ('A' for Active; 'I' for Inactive)
REMARK    1  A    between atoms: C_2  and  C_3
REMARK    2  A    between atoms: C_3  and  N_4
REMARK    3  A    between atoms: N_4  and  C_5
REMARK    4  A    between atoms: N_4  and  C_18
REMARK    5  A    between atoms: C_5  and  C_6
REMARK    6  A    between atoms: C_11  and  C_12
REMARK    7  A    between atoms: C_14  and  O_15
REMARK    8  A    between atoms: C_21  and  C_22
REMARK    9  A    between atoms: N_24  and  C_25
REMARK   10  A    between atoms: C_25  and  C_26
REMARK   11  A    between atoms: C_26  and  C_27
REMARK                            x       y       z     vdW  Elec       q    Type
REMARK                         _______ _______ _______ _____ _____    ______ ____
ROOT
ATOM      1  N   UNL     1      23.622   3.604  51.322  0.00  0.00    +0.000 N 
ENDROOT
BRANCH   1   2
ATOM      2  C   UNL     1      24.632   4.142  50.534  0.00  0.00    +0.000 A 
ATOM      3  C   UNL     1      25.665   3.380  49.964  0.00  0.00    +0.000 A 
ATOM      4  C   UNL     1      26.737   3.967  49.260  0.00  0.00    +0.000 A 
ATOM      5  C   UNL     1      26.812   5.350  49.091  0.00  0.00    +0.000 A 
ATOM      6  C   UNL     1      25.751   6.118  49.557  0.00  0.00    +0.000 A 
ATOM      7  C   UNL     1      24.693   5.521  50.258  0.00  0.00    +0.000 A 
BRANCH   5   8
ATOM      8  C   UNL     1      28.041   5.945  48.473  0.00  0.00    +0.000 C 
ATOM      9  O   UNL     1      27.943   6.875  47.678  0.00  0.00    +0.000 OA
ATOM     10  N   UNL     1      29.251   5.363  48.798  0.00  0.00    +0.000 N 
ATOM     11  H   UNL     1      29.260   4.657  49.484  0.00  0.00    +0.000 HD
BRANCH  10  12
ATOM     12  C   UNL     1      30.504   5.741  48.179  0.00  0.00    +0.000 C 
BRANCH  12  13
ATOM     13  C   UNL     1      31.495   6.365  49.156  0.00  0.00    +0.000 C 
ATOM     14  C   UNL     1      31.400   7.883  49.221  0.00  0.00    +0.000 C 
ENDBRANCH  12  13
ENDBRANCH  10  12
ENDBRANCH   5   8
ENDBRANCH   1   2
BRANCH   1  15
ATOM     15  C   UNL     1      22.252   3.352  50.854  0.00  0.00    +0.000 C 
BRANCH  15  17
ATOM     16  C   UNL     1      22.358   1.961  48.399  0.00  0.00    +0.000 C 
ATOM     17  C   UNL     1      22.309   2.603  49.533  0.00  0.00    +0.000 C 
ENDBRANCH  15  17
ENDBRANCH   1  15
BRANCH   1  18
ATOM     18  C   UNL     1      23.868   3.233  52.727  0.00  0.00    +0.000 C 
BRANCH  18  19
ATOM     19  C   UNL     1      24.832   2.075  52.877  0.00  0.00    +0.000 A 
ATOM     20  C   UNL     1      24.513   0.761  52.520  0.00  0.00    +0.000 A 
ATOM     21  C   UNL     1      25.473  -0.250  52.583  0.00  0.00    +0.000 A 
ATOM     22  C   UNL     1      26.758   0.005  53.035  0.00  0.00    +0.000 A 
ATOM     23  N   UNL     1      27.644  -0.999  53.079  0.00  0.00    +0.000 NA
ATOM     24  C   UNL     1      28.870  -0.725  53.559  0.00  0.00    +0.000 A 
ATOM     25  C   UNL     1      29.827  -1.871  53.629  0.00  0.00    +0.000 C 
ATOM     26  N   UNL     1      29.284   0.478  53.984  0.00  0.00    +0.000 NA
ATOM     27  C   UNL     1      28.369   1.449  53.906  0.00  0.00    +0.000 A 
ATOM     28  C   UNL     1      27.072   1.301  53.437  0.00  0.00    +0.000 A 
ATOM     29  C   UNL     1      26.120   2.337  53.353  0.00  0.00    +0.000 A 
BRANCH  27  30
ATOM     30  O   UNL     1      28.816   2.646  54.369  0.00  0.00    +0.000 OA
ATOM     31  H   UNL     1      28.270   3.405  54.309  0.00  0.00    +0.000 HD
ENDBRANCH  27  30
ENDBRANCH  18  19
ENDBRANCH   1  18
TORSDOF 9
ENDMDL
MODEL 2
REMARK VINA RESULT:    -8.214      3.959      7.607
REMARK INTER + INTRA:         -13.732
REMARK INTER:                 -12.951
REMARK INTRA:                  -0.780
REMARK UNBOUND:                -1.437
REMARK  Name = 
REMARK  11 active torsions:
REMARK  status: ('A' for Active; 'I' for Inactive)
REMARK    1  A    between atoms: C_2  and  C_3
REMARK    2  A    between atoms: C_3  and  N_4
REMARK    3  A    between atoms: N_4  and  C_5
REMARK    4  A    between atoms: N_4  and  C_18
REMARK    5  A    between atoms: C_5  and  C_6
REMARK    6  A    between atoms: C_11  and  C_12
REMARK    7  A    between atoms: C_14  and  O_15
REMARK    8  A    between atoms: C_21  and  C_22
REMARK    9  A    between atoms: N_24  and  C_25
REMARK   10  A    between atoms: C_25  and  C_26
REMARK   11  A    between atoms: C_26  and  C_27
REMARK                            x       y       z     vdW  Elec       q    Type
REMARK                         _______ _______ _______ _____ _____    ______ ____
ROOT
ATOM      1  N   UNL     1      23.380   3.305  51.958  0.00  0.00    +0.000 N 
ENDROOT
BRANCH   1   2
ATOM      2  C   UNL     1      22.238   2.523  51.836  0.00  0.00    +0.000 A 
ATOM      3  C   UNL     1      21.014   2.833  52.450  0.00  0.00    +0.000 A 
ATOM      4  C   UNL     1      19.902   1.966  52.398  0.00  0.00    +0.000 A 
ATOM      5  C   UNL     1      19.971   0.751  51.718  0.00  0.00    +0.000 A 
ATOM      6  C   UNL     1      21.138   0.467  51.016  0.00  0.00    +0.000 A 
ATOM      7  C   UNL     1      22.236   1.337  51.079  0.00  0.00    +0.000 A 
BRANCH   5   8
ATOM      8  C   UNL     1      18.824  -0.209  51.815  0.00  0.00    +0.000 C 
ATOM      9  O   UNL     1      18.086  -0.389  50.851  0.00  0.00    +0.000 OA
ATOM     10  N   UNL     1      18.619  -0.818  53.038  0.00  0.00    +0.000 N 
ATOM     11  H   UNL     1      19.281  -0.670  53.751  0.00  0.00    +0.000 HD
BRANCH  10  12
ATOM     12  C   UNL     1      17.477  -1.661  53.321  0.00  0.00    +0.000 C 
BRANCH  12  13
ATOM     13  C   UNL     1      17.859  -3.100  53.657  0.00  0.00    +0.000 C 
ATOM     14  C   UNL     1      16.702  -4.079  53.511  0.00  0.00    +0.000 C 
ENDBRANCH  12  13
ENDBRANCH  10  12
ENDBRANCH   5   8
ENDBRANCH   1   2
BRANCH   1  15
ATOM     15  C   UNL     1      23.876   4.215  50.916  0.00  0.00    +0.000 C 
BRANCH  15  17
ATOM     16  C   UNL     1      26.395   3.307  50.021  0.00  0.00    +0.000 C 
ATOM     17  C   UNL     1      25.232   3.727  50.434  0.00  0.00    +0.000 C 
ENDBRANCH  15  17
ENDBRANCH   1  15
BRANCH   1  18
ATOM     18  C   UNL     1      24.197   3.274  53.185  0.00  0.00    +0.000 C 
BRANCH  18  19
ATOM     19  C   UNL     1      25.107   2.067  53.264  0.00  0.00    +0.000 A 
ATOM     20  C   UNL     1      24.682   0.766  52.973  0.00  0.00    +0.000 A 
ATOM     21  C   UNL     1      25.588  -0.296  52.962  0.00  0.00    +0.000 A 
ATOM     22  C   UNL     1      26.924  -0.106  53.276  0.00  0.00    +0.000 A 
ATOM     23  N   UNL     1      27.755  -1.156  53.254  0.00  0.00    +0.000 NA
ATOM     24  C   UNL     1      29.036  -0.943  53.601  0.00  0.00    +0.000 A 
ATOM     25  C   UNL     1      29.932  -2.139  53.602  0.00  0.00    +0.000 C 
ATOM     26  N   UNL     1      29.556   0.242  53.954  0.00  0.00    +0.000 NA
ATOM     27  C   UNL     1      28.691   1.261  53.945  0.00  0.00    +0.000 A 
ATOM     28  C   UNL     1      27.347   1.178  53.613  0.00  0.00    +0.000 A 
ATOM     29  C   UNL     1      26.449   2.264  53.602  0.00  0.00    +0.000 A 
BRANCH  27  30
ATOM     30  O   UNL     1      29.248   2.440  54.332  0.00  0.00    +0.000 OA
ATOM     31  H   UNL     1      29.048   3.228  53.865  0.00  0.00    +0.000 HD
ENDBRANCH  27  30
ENDBRANCH  18  19
ENDBRANCH   1  18
TORSDOF 9
ENDMDL
MODEL 3
REMARK VINA RESULT:    -8.190      1.737      6.894
REMARK INTER + INTRA:         -13.697
REMARK INTER:                 -12.358
REMARK INTRA:                  -1.339
REMARK UNBOUND:                -1.437
REMARK  Name = 
REMARK  11 active torsions:
REMARK  status: ('A' for Active; 'I' for Inactive)
REMARK    1  A    between atoms: C_2  and  C_3
REMARK    2  A    between atoms: C_3  and  N_4
REMARK    3  A    between atoms: N_4  and  C_5
REMARK    4  A    between atoms: N_4  and  C_18
REMARK    5  A    between atoms: C_5  and  C_6
REMARK    6  A    between atoms: C_11  and  C_12
REMARK    7  A    between atoms: C_14  and  O_15
REMARK    8  A    between atoms: C_21  and  C_22
REMARK    9  A    between atoms: N_24  and  C_25
REMARK   10  A    between atoms: C_25  and  C_26
REMARK   11  A    between atoms: C_26  and  C_27
REMARK                            x       y       z     vdW  Elec       q    Type
REMARK                         _______ _______ _______ _____ _____    ______ ____
ROOT
ATOM      1  N   UNL     1      22.635   3.841  51.015  0.00  0.00    +0.000 N 
ENDROOT
BRANCH   1   2
ATOM      2  C   UNL     1      23.369   3.015  51.857  0.00  0.00    +0.000 A 
ATOM      3  C   UNL     1      24.207   3.491  52.878  0.00  0.00    +0.000 A 
ATOM      4  C   UNL     1      25.024   2.635  53.646  0.00  0.00    +0.000 A 
ATOM      5  C   UNL     1      25.027   1.258  53.425  0.00  0.00    +0.000 A 
ATOM      6  C   UNL     1      24.132   0.750  52.490  0.00  0.00    +0.000 A 
ATOM      7  C   UNL     1      23.328   1.614  51.732  0.00  0.00    +0.000 A 
BRANCH   5   8
ATOM      8  C   UNL     1      26.019   0.402  54.153  0.00  0.00    +0.000 C 
ATOM      9  O   UNL     1      25.632  -0.515  54.872  0.00  0.00    +0.000 OA
ATOM     10  N   UNL     1      27.353   0.735  54.017  0.00  0.00    +0.000 N 
ATOM     11  H   UNL     1      27.594   1.447  53.382  0.00  0.00    +0.000 HD
BRANCH  10  12
ATOM     12  C   UNL     1      28.411   0.087  54.763  0.00  0.00    +0.000 C 
BRANCH  12  13
ATOM     13  C   UNL     1      29.528  -0.456  53.877  0.00  0.00    +0.000 C 
ATOM     14  C   UNL     1      29.207  -1.814  53.269  0.00  0.00    +0.000 C 
ENDBRANCH  12  13
ENDBRANCH  10  12
ENDBRANCH   5   8
ENDBRANCH   1   2
BRANCH   1  15
ATOM     15  C   UNL     1      21.474   4.635  51.440  0.00  0.00    +0.000 C 
BRANCH  15  17
ATOM     16  C   UNL     1      21.890   7.333  50.719  0.00  0.00    +0.000 C 
ATOM     17  C   UNL     1      21.697   6.087  51.052  0.00  0.00    +0.000 C 
ENDBRANCH  15  17
ENDBRANCH   1  15
BRANCH   1  18
ATOM     18  C   UNL     1      22.988   3.984  49.590  0.00  0.00    +0.000 C 
BRANCH  18  19
ATOM     19  C   UNL     1      24.443   4.335  49.370  0.00  0.00    +0.000 A 
ATOM     20  C   UNL     1      25.485   3.411  49.510  0.00  0.00    +0.000 A 
ATOM     21  C   UNL     1      26.798   3.762  49.195  0.00  0.00    +0.000 A 
ATOM     22  C   UNL     1      27.120   5.041  48.772  0.00  0.00    +0.000 A 
ATOM     23  N   UNL     1      28.396   5.331  48.483  0.00  0.00    +0.000 NA
ATOM     24  C   UNL     1      28.679   6.591  48.113  0.00  0.00    +0.000 A 
ATOM     25  C   UNL     1      30.115   6.895  47.830  0.00  0.00    +0.000 C 
ATOM     26  N   UNL     1      27.783   7.583  47.993  0.00  0.00    +0.000 NA
ATOM     27  C   UNL     1      26.523   7.240  48.277  0.00  0.00    +0.000 A 
ATOM     28  C   UNL     1      26.097   5.982  48.674  0.00  0.00    +0.000 A 
ATOM     29  C   UNL     1      24.762   5.633  48.963  0.00  0.00    +0.000 A 
BRANCH  27  30
ATOM     30  O   UNL     1      25.648   8.276  48.169  0.00  0.00    +0.000 OA
ATOM     31  H   UNL     1      24.838   8.256  48.640  0.00  0.00    +0.000 HD
ENDBRANCH  27  30
ENDBRANCH  18  19
ENDBRANCH   1  18
TORSDOF 9
ENDMDL
MODEL 4
REMARK VINA RESULT:    -7.759      3.919      7.644
REMARK INTER + INTRA:         -13.051
REMARK INTER:                 -11.773
REMARK INTRA:                  -1.278
REMARK UNBOUND:                -1.437
REMARK  Name = 
REMARK  11 active torsions:
REMARK  status: ('A' for Active; 'I' for Inactive)
REMARK    1  A    between atoms: C_2  and  C_3
REMARK    2  A    between atoms: C_3  and  N_4
REMARK    3  A    between atoms: N_4  and  C_5
REMARK    4  A    between atoms: N_4  and  C_18
REMARK    5  A    between atoms: C_5  and  C_6
REMARK    6  A    between atoms: C_11  and  C_12
REMARK    7  A    between atoms: C_14  and  O_15
REMARK    8  A    between atoms: C_21  and  C_22
REMARK    9  A    between atoms: N_24  and  C_25
REMARK   10  A    between atoms: C_25  and  C_26
REMARK   11  A    between atoms: C_26  and  C_27
REMARK                            x       y       z     vdW  Elec       q    Type
REMARK                         _______ _______ _______ _____ _____    ______ ____
ROOT
ATOM      1  N   UNL     1      21.350   1.596  51.966  0.00  0.00    +0.000 N 
ENDROOT
BRANCH   1   2
ATOM      2  C   UNL     1      22.592   1.195  52.443  0.00  0.00    +0.000 A 
ATOM      3  C   UNL     1      22.822  -0.037  53.075  0.00  0.00    +0.000 A 
ATOM      4  C   UNL     1      24.068  -0.373  53.646  0.00  0.00    +0.000 A 
ATOM      5  C   UNL     1      25.142   0.517  53.598  0.00  0.00    +0.000 A 
ATOM      6  C   UNL     1      24.970   1.701  52.890  0.00  0.00    +0.000 A 
ATOM      7  C   UNL     1      23.725   2.022  52.330  0.00  0.00    +0.000 A 
BRANCH   5   8
ATOM      8  C   UNL     1      26.397   0.189  54.348  0.00  0.00    +0.000 C 
ATOM      9  O   UNL     1      26.337  -0.231  55.500  0.00  0.00    +0.000 OA
ATOM     10  N   UNL     1      27.594   0.434  53.702  0.00  0.00    +0.000 N 
ATOM     11  H   UNL     1      27.567   0.719  52.760  0.00  0.00    +0.000 HD
BRANCH  10  12
ATOM     12  C   UNL     1      28.884   0.295  54.346  0.00  0.00    +0.000 C 
BRANCH  12  13
ATOM     13  C   UNL     1      29.842  -0.615  53.583  0.00  0.00    +0.000 C 
ATOM     14  C   UNL     1      29.249  -1.982  53.266  0.00  0.00    +0.000 C 
ENDBRANCH  12  13
ENDBRANCH  10  12
ENDBRANCH   5   8
ENDBRANCH   1   2
BRANCH   1  15
ATOM     15  C   UNL     1      20.597   0.890  50.921  0.00  0.00    +0.000 C 
BRANCH  15  17
ATOM     16  C   UNL     1      21.847   1.327  48.428  0.00  0.00    +0.000 C 
ATOM     17  C   UNL     1      21.269   1.125  49.579  0.00  0.00    +0.000 C 
ENDBRANCH  15  17
ENDBRANCH   1  15
BRANCH   1  18
ATOM     18  C   UNL     1      20.681   2.797  52.499  0.00  0.00    +0.000 C 
BRANCH  18  19
ATOM     19  C   UNL     1      20.836   4.010  51.607  0.00  0.00    +0.000 A 
ATOM     20  C   UNL     1      19.901   4.366  50.629  0.00  0.00    +0.000 A 
ATOM     21  C   UNL     1      20.041   5.551  49.904  0.00  0.00    +0.000 A 
ATOM     22  C   UNL     1      21.125   6.391  50.101  0.00  0.00    +0.000 A 
ATOM     23  N   UNL     1      21.217   7.516  49.379  0.00  0.00    +0.000 NA
ATOM     24  C   UNL     1      22.301   8.288  49.568  0.00  0.00    +0.000 A 
ATOM     25  C   UNL     1      22.395   9.519  48.725  0.00  0.00    +0.000 C 
ATOM     26  N   UNL     1      23.294   8.032  50.433  0.00  0.00    +0.000 NA
ATOM     27  C   UNL     1      23.149   6.906  51.139  0.00  0.00    +0.000 A 
ATOM     28  C   UNL     1      22.086   6.021  51.039  0.00  0.00    +0.000 A 
ATOM     29  C   UNL     1      21.943   4.842  51.797  0.00  0.00    +0.000 A 
BRANCH  27  30
ATOM     30  O   UNL     1      24.186   6.667  51.986  0.00  0.00    +0.000 OA
ATOM     31  H   UNL     1      24.515   5.796  52.088  0.00  0.00    +0.000 HD
ENDBRANCH  27  30
ENDBRANCH  18  19
ENDBRANCH   1  18
TORSDOF 9
ENDMDL
MODEL 5
REMARK VINA RESULT:    -7.689      5.004      8.814
REMARK INTER + INTRA:         -12.947
REMARK INTER:                 -11.932
REMARK INTRA:                  -1.015
REMARK UNBOUND:                -1.437
REMARK  Name = 
REMARK  11 active torsions:
REMARK  status: ('A' for Active; 'I' for Inactive)
REMARK    1  A    between atoms: C_2  and  C_3
REMARK    2  A    between atoms: C_3  and  N_4
REMARK    3  A    between atoms: N_4  and  C_5
REMARK    4  A    between atoms: N_4  and  C_18
REMARK    5  A    between atoms: C_5  and  C_6
REMARK    6  A    between atoms: C_11  and  C_12
REMARK    7  A    between atoms: C_14  and  O_15
REMARK    8  A    between atoms: C_21  and  C_22
REMARK    9  A    between atoms: N_24  and  C_25
REMARK   10  A    between atoms: C_25  and  C_26
REMARK   11  A    between atoms: C_26  and  C_27
REMARK                            x       y       z     vdW  Elec       q    Type
REMARK                         _______ _______ _______ _____ _____    ______ ____
ROOT
ATOM      1  N   UNL     1      22.180   1.483  51.791  0.00  0.00    +0.000 N 
ENDROOT
BRANCH   1   2
ATOM      2  C   UNL     1      20.992   0.838  52.116  0.00  0.00    +0.000 A 
ATOM      3  C   UNL     1      20.766   0.197  53.344  0.00  0.00    +0.000 A 
ATOM      4  C   UNL     1      19.593  -0.543  53.605  0.00  0.00    +0.000 A 
ATOM      5  C   UNL     1      18.591  -0.663  52.642  0.00  0.00    +0.000 A 
ATOM      6  C   UNL     1      18.746   0.046  51.456  0.00  0.00    +0.000 A 
ATOM      7  C   UNL     1      19.918   0.776  51.209  0.00  0.00    +0.000 A 
BRANCH   5   8
ATOM      8  C   UNL     1      17.435  -1.581  52.899  0.00  0.00    +0.000 C 
ATOM      9  O   UNL     1      17.594  -2.603  53.559  0.00  0.00    +0.000 OA
ATOM     10  N   UNL     1      16.228  -1.245  52.317  0.00  0.00    +0.000 N 
ATOM     11  H   UNL     1      16.159  -0.383  51.847  0.00  0.00    +0.000 HD
BRANCH  10  12
ATOM     12  C   UNL     1      15.061  -2.101  52.364  0.00  0.00    +0.000 C 
BRANCH  12  13
ATOM     13  C   UNL     1      13.751  -1.344  52.167  0.00  0.00    +0.000 C 
ATOM     14  C   UNL     1      12.626  -1.848  53.061  0.00  0.00    +0.000 C 
ENDBRANCH  12  13
ENDBRANCH  10  12
ENDBRANCH   5   8
ENDBRANCH   1   2
BRANCH   1  15
ATOM     15  C   UNL     1      22.660   1.691  50.418  0.00  0.00    +0.000 C 
BRANCH  15  17
ATOM     16  C   UNL     1      23.537   4.361  50.142  0.00  0.00    +0.000 C 
ATOM     17  C   UNL     1      23.132   3.128  50.269  0.00  0.00    +0.000 C 
ENDBRANCH  15  17
ENDBRANCH   1  15
BRANCH   1  18
ATOM     18  C   UNL     1      23.064   2.025  52.839  0.00  0.00    +0.000 C 
BRANCH  18  19
ATOM     19  C   UNL     1      24.321   1.205  53.039  0.00  0.00    +0.000 A 
ATOM     20  C   UNL     1      24.360  -0.185  52.893  0.00  0.00    +0.000 A 
ATOM     21  C   UNL     1      25.567  -0.880  52.988  0.00  0.00    +0.000 A 
ATOM     22  C   UNL     1      26.756  -0.224  53.266  0.00  0.00    +0.000 A 
ATOM     23  N   UNL     1      27.888  -0.934  53.350  0.00  0.00    +0.000 NA
ATOM     24  C   UNL     1      29.016  -0.272  53.658  0.00  0.00    +0.000 A 
ATOM     25  C   UNL     1      30.258  -1.094  53.779  0.00  0.00    +0.000 C 
ATOM     26  N   UNL     1      29.103   1.049  53.876  0.00  0.00    +0.000 NA
ATOM     27  C   UNL     1      27.950   1.715  53.767  0.00  0.00    +0.000 A 
ATOM     28  C   UNL     1      26.719   1.155  53.459  0.00  0.00    +0.000 A 
ATOM     29  C   UNL     1      25.512   1.872  53.339  0.00  0.00    +0.000 A 
BRANCH  27  30
ATOM     30  O   UNL     1      28.073   3.046  54.019  0.00  0.00    +0.000 OA
ATOM     31  H   UNL     1      28.017   3.663  53.315  0.00  0.00    +0.000 HD
ENDBRANCH  27  30
ENDBRANCH  18  19
ENDBRANCH   1  18
TORSDOF 9
ENDMDL
MODEL 6
REMARK VINA RESULT:    -7.631      4.298      7.114
REMARK INTER + INTRA:         -12.859
REMARK INTER:                 -11.528
REMARK INTRA:                  -1.332
REMARK UNBOUND:                -1.437
REMARK  Name = 
REMARK  11 active torsions:
REMARK  status: ('A' for Active; 'I' for Inactive)
REMARK    1  A    between atoms: C_2  and  C_3
REMARK    2  A    between atoms: C_3  and  N_4
REMARK    3  A    between atoms: N_4  and  C_5
REMARK    4  A    between atoms: N_4  and  C_18
REMARK    5  A    between atoms: C_5  and  C_6
REMARK    6  A    between atoms: C_11  and  C_12
REMARK    7  A    between atoms: C_14  and  O_15
REMARK    8  A    between atoms: C_21  and  C_22
REMARK    9  A    between atoms: N_24  and  C_25
REMARK   10  A    between atoms: C_25  and  C_26
REMARK   11  A    between atoms: C_26  and  C_27
REMARK                            x       y       z     vdW  Elec       q    Type
REMARK                         _______ _______ _______ _____ _____    ______ ____
ROOT
ATOM      1  N   UNL     1      22.368   3.524  51.250  0.00  0.00    +0.000 N 
ENDROOT
BRANCH   1   2
ATOM      2  C   UNL     1      23.420   2.845  51.851  0.00  0.00    +0.000 A 
ATOM      3  C   UNL     1      23.830   1.556  51.476  0.00  0.00    +0.000 A 
ATOM      4  C   UNL     1      24.830   0.847  52.175  0.00  0.00    +0.000 A 
ATOM      5  C   UNL     1      25.468   1.411  53.280  0.00  0.00    +0.000 A 
ATOM      6  C   UNL     1      25.154   2.724  53.610  0.00  0.00    +0.000 A 
ATOM      7  C   UNL     1      24.155   3.416  52.907  0.00  0.00    +0.000 A 
BRANCH   5   8
ATOM      8  C   UNL     1      26.412   0.571  54.087  0.00  0.00    +0.000 C 
ATOM      9  O   UNL     1      25.976  -0.248  54.891  0.00  0.00    +0.000 OA
ATOM     10  N   UNL     1      27.762   0.808  53.917  0.00  0.00    +0.000 N 
ATOM     11  H   UNL     1      28.042   1.440  53.216  0.00  0.00    +0.000 HD
BRANCH  10  12
ATOM     12  C   UNL     1      28.785   0.173  54.722  0.00  0.00    +0.000 C 
BRANCH  12  13
ATOM     13  C   UNL     1      29.782  -0.637  53.898  0.00  0.00    +0.000 C 
ATOM     14  C   UNL     1      29.175  -1.889  53.279  0.00  0.00    +0.000 C 
ENDBRANCH  12  13
ENDBRANCH  10  12
ENDBRANCH   5   8
ENDBRANCH   1   2
BRANCH   1  15
ATOM     15  C   UNL     1      22.381   4.012  49.864  0.00  0.00    +0.000 C 
BRANCH  15  17
ATOM     16  C   UNL     1      21.745   1.877  48.129  0.00  0.00    +0.000 C 
ATOM     17  C   UNL     1      22.039   2.863  48.930  0.00  0.00    +0.000 C 
ENDBRANCH  15  17
ENDBRANCH   1  15
BRANCH   1  18
ATOM     18  C   UNL     1      21.123   3.806  51.987  0.00  0.00    +0.000 C 
BRANCH  18  19
ATOM     19  C   UNL     1      20.235   2.590  52.143  0.00  0.00    +0.000 A 
ATOM     20  C   UNL     1      19.065   2.395  51.402  0.00  0.00    +0.000 A 
ATOM     21  C   UNL     1      18.339   1.207  51.511  0.00  0.00    +0.000 A 
ATOM     22  C   UNL     1      18.730   0.202  52.381  0.00  0.00    +0.000 A 
ATOM     23  N   UNL     1      17.999  -0.918  52.453  0.00  0.00    +0.000 NA
ATOM     24  C   UNL     1      18.385  -1.856  53.335  0.00  0.00    +0.000 A 
ATOM     25  C   UNL     1      17.532  -3.081  53.419  0.00  0.00    +0.000 C 
ATOM     26  N   UNL     1      19.453  -1.768  54.142  0.00  0.00    +0.000 NA
ATOM     27  C   UNL     1      20.157  -0.638  54.023  0.00  0.00    +0.000 A 
ATOM     28  C   UNL     1      19.867   0.407  53.159  0.00  0.00    +0.000 A 
ATOM     29  C   UNL     1      20.625   1.590  53.038  0.00  0.00    +0.000 A 
BRANCH  27  30
ATOM     30  O   UNL     1      21.216  -0.574  54.873  0.00  0.00    +0.000 OA
ATOM     31  H   UNL     1      21.526  -1.351  55.295  0.00  0.00    +0.000 HD
ENDBRANCH  27  30
ENDBRANCH  18  19
ENDBRANCH   1  18
TORSDOF 9
ENDMDL
MODEL 7
REMARK VINA RESULT:    -7.610      2.173      7.399
REMARK INTER + INTRA:         -12.828
REMARK INTER:                 -11.921
REMARK INTRA:                  -0.906
REMARK UNBOUND:                -1.437
REMARK  Name = 
REMARK  11 active torsions:
REMARK  status: ('A' for Active; 'I' for Inactive)
REMARK    1  A    between atoms: C_2  and  C_3
REMARK    2  A    between atoms: C_3  and  N_4
REMARK    3  A    between atoms: N_4  and  C_5
REMARK    4  A    between atoms: N_4  and  C_18
REMARK    5  A    between atoms: C_5  and  C_6
REMARK    6  A    between atoms: C_11  and  C_12
REMARK    7  A    between atoms: C_14  and  O_15
REMARK    8  A    between atoms: C_21  and  C_22
REMARK    9  A    between atoms: N_24  and  C_25
REMARK   10  A    between atoms: C_25  and  C_26
REMARK   11  A    between atoms: C_26  and  C_27
REMARK                            x       y       z     vdW  Elec       q    Type
REMARK                         _______ _______ _______ _____ _____    ______ ____
ROOT
ATOM      1  N   UNL     1      24.188   4.627  50.957  0.00  0.00    +0.000 N 
ENDROOT
BRANCH   1   2
ATOM      2  C   UNL     1      24.580   3.369  51.398  0.00  0.00    +0.000 A 
ATOM      3  C   UNL     1      23.890   2.638  52.378  0.00  0.00    +0.000 A 
ATOM      4  C   UNL     1      24.371   1.412  52.885  0.00  0.00    +0.000 A 
ATOM      5  C   UNL     1      25.566   0.863  52.421  0.00  0.00    +0.000 A 
ATOM      6  C   UNL     1      26.217   1.516  51.379  0.00  0.00    +0.000 A 
ATOM      7  C   UNL     1      25.728   2.736  50.887  0.00  0.00    +0.000 A 
BRANCH   5   8
ATOM      8  C   UNL     1      26.120  -0.357  53.091  0.00  0.00    +0.000 C 
ATOM      9  O   UNL     1      25.614  -0.775  54.128  0.00  0.00    +0.000 OA
ATOM     10  N   UNL     1      27.238  -0.933  52.518  0.00  0.00    +0.000 N 
ATOM     11  H   UNL     1      27.557  -0.579  51.657  0.00  0.00    +0.000 HD
BRANCH  10  12
ATOM     12  C   UNL     1      27.962  -2.031  53.124  0.00  0.00    +0.000 C 
BRANCH  12  13
ATOM     13  C   UNL     1      29.447  -1.739  53.318  0.00  0.00    +0.000 C 
ATOM     14  C   UNL     1      29.733  -0.284  53.667  0.00  0.00    +0.000 C 
ENDBRANCH  12  13
ENDBRANCH  10  12
ENDBRANCH   5   8
ENDBRANCH   1   2
BRANCH   1  15
ATOM     15  C   UNL     1      23.559   5.645  51.810  0.00  0.00    +0.000 C 
BRANCH  15  17
ATOM     16  C   UNL     1      21.407   6.820  50.411  0.00  0.00    +0.000 C 
ATOM     17  C   UNL     1      22.401   6.277  51.058  0.00  0.00    +0.000 C 
ENDBRANCH  15  17
ENDBRANCH   1  15
BRANCH   1  18
ATOM     18  C   UNL     1      24.387   5.039  49.556  0.00  0.00    +0.000 C 
BRANCH  18  19
ATOM     19  C   UNL     1      25.709   5.738  49.324  0.00  0.00    +0.000 A 
ATOM     20  C   UNL     1      26.776   5.152  48.635  0.00  0.00    +0.000 A 
ATOM     21  C   UNL     1      27.936   5.879  48.360  0.00  0.00    +0.000 A 
ATOM     22  C   UNL     1      28.085   7.187  48.792  0.00  0.00    +0.000 A 
ATOM     23  N   UNL     1      29.217   7.843  48.506  0.00  0.00    +0.000 NA
ATOM     24  C   UNL     1      29.343   9.097  48.973  0.00  0.00    +0.000 A 
ATOM     25  C   UNL     1      30.631   9.793  48.669  0.00  0.00    +0.000 C 
ATOM     26  N   UNL     1      28.420   9.753  49.692  0.00  0.00    +0.000 NA
ATOM     27  C   UNL     1      27.303   9.062  49.938  0.00  0.00    +0.000 A 
ATOM     28  C   UNL     1      27.046   7.765  49.520  0.00  0.00    +0.000 A 
ATOM     29  C   UNL     1      25.860   7.051  49.781  0.00  0.00    +0.000 A 
BRANCH  27  30
ATOM     30  O   UNL     1      26.401   9.749  50.690  0.00  0.00    +0.000 OA
ATOM     31  H   UNL     1      26.097   9.389  51.500  0.00  0.00    +0.000 HD
ENDBRANCH  27  30
ENDBRANCH  18  19
ENDBRANCH   1  18
TORSDOF 9
ENDMDL
MODEL 8
REMARK VINA RESULT:    -7.575      2.896      4.037
REMARK INTER + INTRA:         -12.776
REMARK INTER:                 -11.700
REMARK INTRA:                  -1.076
REMARK UNBOUND:                -1.437
REMARK  Name = 
REMARK  11 active torsions:
REMARK  status: ('A' for Active; 'I' for Inactive)
REMARK    1  A    between atoms: C_2  and  C_3
REMARK    2  A    between atoms: C_3  and  N_4
REMARK    3  A    between atoms: N_4  and  C_5
REMARK    4  A    between atoms: N_4  and  C_18
REMARK    5  A    between atoms: C_5  and  C_6
REMARK    6  A    between atoms: C_11  and  C_12
REMARK    7  A    between atoms: C_14  and  O_15
REMARK    8  A    between atoms: C_21  and  C_22
REMARK    9  A    between atoms: N_24  and  C_25
REMARK   10  A    between atoms: C_25  and  C_26
REMARK   11  A    between atoms: C_26  and  C_27
REMARK                            x       y       z     vdW  Elec       q    Type
REMARK                         _______ _______ _______ _____ _____    ______ ____
ROOT
ATOM      1  N   UNL     1      23.943   4.543  49.688  0.00  0.00    +0.000 N 
ENDROOT
BRANCH   1   2
ATOM      2  C   UNL     1      25.194   4.923  49.217  0.00  0.00    +0.000 A 
ATOM      3  C   UNL     1      26.304   4.065  49.180  0.00  0.00    +0.000 A 
ATOM      4  C   UNL     1      27.588   4.508  48.799  0.00  0.00    +0.000 A 
ATOM      5  C   UNL     1      27.810   5.834  48.430  0.00  0.00    +0.000 A 
ATOM      6  C   UNL     1      26.708   6.679  48.361  0.00  0.00    +0.000 A 
ATOM      7  C   UNL     1      25.437   6.226  48.745  0.00  0.00    +0.000 A 
BRANCH   5   8
ATOM      8  C   UNL     1      29.212   6.301  48.181  0.00  0.00    +0.000 C 
ATOM      9  O   UNL     1      29.495   6.875  47.134  0.00  0.00    +0.000 OA
ATOM     10  N   UNL     1      30.152   6.003  49.149  0.00  0.00    +0.000 N 
ATOM     11  H   UNL     1      29.845   5.589  49.987  0.00  0.00    +0.000 HD
BRANCH  10  12
ATOM     12  C   UNL     1      31.566   6.269  48.988  0.00  0.00    +0.000 C 
BRANCH  12  13
ATOM     13  C   UNL     1      31.988   7.632  49.529  0.00  0.00    +0.000 C 
ATOM     14  C   UNL     1      32.089   8.702  48.451  0.00  0.00    +0.000 C 
ENDBRANCH  12  13
ENDBRANCH  10  12
ENDBRANCH   5   8
ENDBRANCH   1   2
BRANCH   1  15
ATOM     15  C   UNL     1      23.074   5.396  50.511  0.00  0.00    +0.000 C 
BRANCH  15  17
ATOM     16  C   UNL     1      23.570   4.862  53.239  0.00  0.00    +0.000 C 
ATOM     17  C   UNL     1      23.341   5.108  51.979  0.00  0.00    +0.000 C 
ENDBRANCH  15  17
ENDBRANCH   1  15
BRANCH   1  18
ATOM     18  C   UNL     1      23.383   3.215  49.380  0.00  0.00    +0.000 C 
BRANCH  18  19
ATOM     19  C   UNL     1      23.511   2.234  50.525  0.00  0.00    +0.000 A 
ATOM     20  C   UNL     1      24.724   1.954  51.163  0.00  0.00    +0.000 A 
ATOM     21  C   UNL     1      24.769   1.119  52.281  0.00  0.00    +0.000 A 
ATOM     22  C   UNL     1      23.624   0.513  52.772  0.00  0.00    +0.000 A 
ATOM     23  N   UNL     1      23.717  -0.282  53.846  0.00  0.00    +0.000 NA
ATOM     24  C   UNL     1      22.594  -0.885  54.273  0.00  0.00    +0.000 A 
ATOM     25  C   UNL     1      22.734  -1.793  55.452  0.00  0.00    +0.000 C 
ATOM     26  N   UNL     1      21.381  -0.744  53.718  0.00  0.00    +0.000 NA
ATOM     27  C   UNL     1      21.337   0.070  52.659  0.00  0.00    +0.000 A 
ATOM     28  C   UNL     1      22.418   0.748  52.116  0.00  0.00    +0.000 A 
ATOM     29  C   UNL     1      22.355   1.610  51.002  0.00  0.00    +0.000 A 
BRANCH  27  30
ATOM     30  O   UNL     1      20.097   0.168  52.108  0.00  0.00    +0.000 OA
ATOM     31  H   UNL     1      19.823   0.973  51.715  0.00  0.00    +0.000 HD
ENDBRANCH  27  30
ENDBRANCH  18  19
ENDBRANCH   1  18
TORSDOF 9
ENDMDL
MODEL 9
REMARK VINA RESULT:    -7.475      5.250      8.690
REMARK INTER + INTRA:         -12.627
REMARK INTER:                 -11.465
REMARK INTRA:                  -1.161
REMARK UNBOUND:                -1.437
REMARK  Name = 
REMARK  11 active torsions:
REMARK  status: ('A' for Active; 'I' for Inactive)
REMARK    1  A    between atoms: C_2  and  C_3
REMARK    2  A    between atoms: C_3  and  N_4
REMARK    3  A    between atoms: N_4  and  C_5
REMARK    4  A    between atoms: N_4  and  C_18
REMARK    5  A    between atoms: C_5  and  C_6
REMARK    6  A    between atoms: C_11  and  C_12
REMARK    7  A    between atoms: C_14  and  O_15
REMARK    8  A    between atoms: C_21  and  C_22
REMARK    9  A    between atoms: N_24  and  C_25
REMARK   10  A    between atoms: C_25  and  C_26
REMARK   11  A    between atoms: C_26  and  C_27
REMARK                            x       y       z     vdW  Elec       q    Type
REMARK                         _______ _______ _______ _____ _____    ______ ____
ROOT
ATOM      1  N   UNL     1      21.446   1.140  50.837  0.00  0.00    +0.000 N 
ENDROOT
BRANCH   1   2
ATOM      2  C   UNL     1      22.514   0.977  51.711  0.00  0.00    +0.000 A 
ATOM      3  C   UNL     1      23.765   1.590  51.533  0.00  0.00    +0.000 A 
ATOM      4  C   UNL     1      24.864   1.320  52.376  0.00  0.00    +0.000 A 
ATOM      5  C   UNL     1      24.750   0.427  53.441  0.00  0.00    +0.000 A 
ATOM      6  C   UNL     1      23.496  -0.115  53.699  0.00  0.00    +0.000 A 
ATOM      7  C   UNL     1      22.412   0.160  52.851  0.00  0.00    +0.000 A 
BRANCH   5   8
ATOM      8  C   UNL     1      25.976   0.052  54.216  0.00  0.00    +0.000 C 
ATOM      9  O   UNL     1      25.884  -0.667  55.207  0.00  0.00    +0.000 OA
ATOM     10  N   UNL     1      27.175   0.594  53.793  0.00  0.00    +0.000 N 
ATOM     11  H   UNL     1      27.183   1.117  52.960  0.00  0.00    +0.000 HD
BRANCH  10  12
ATOM     12  C   UNL     1      28.417   0.432  54.519  0.00  0.00    +0.000 C 
BRANCH  12  13
ATOM     13  C   UNL     1      29.500  -0.273  53.708  0.00  0.00    +0.000 C 
ATOM     14  C   UNL     1      29.110  -1.682  53.280  0.00  0.00    +0.000 C 
ENDBRANCH  12  13
ENDBRANCH  10  12
ENDBRANCH   5   8
ENDBRANCH   1   2
BRANCH   1  15
ATOM     15  C   UNL     1      21.392   0.576  49.481  0.00  0.00    +0.000 C 
BRANCH  15  17
ATOM     16  C   UNL     1      22.350   2.497  47.646  0.00  0.00    +0.000 C 
ATOM     17  C   UNL     1      21.908   1.610  48.493  0.00  0.00    +0.000 C 
ENDBRANCH  15  17
ENDBRANCH   1  15
BRANCH   1  18
ATOM     18  C   UNL     1      20.252   1.912  51.228  0.00  0.00    +0.000 C 
BRANCH  18  19
ATOM     19  C   UNL     1      18.976   1.100  51.177  0.00  0.00    +0.000 A 
ATOM     20  C   UNL     1      17.996   1.274  50.194  0.00  0.00    +0.000 A 
ATOM     21  C   UNL     1      16.886   0.429  50.134  0.00  0.00    +0.000 A 
ATOM     22  C   UNL     1      16.700  -0.582  51.063  0.00  0.00    +0.000 A 
ATOM     23  N   UNL     1      15.618  -1.366  50.965  0.00  0.00    +0.000 NA
ATOM     24  C   UNL     1      15.448  -2.311  51.905  0.00  0.00    +0.000 A 
ATOM     25  C   UNL     1      14.215  -3.149  51.791  0.00  0.00    +0.000 C 
ATOM     26  N   UNL     1      16.284  -2.545  52.929  0.00  0.00    +0.000 NA
ATOM     27  C   UNL     1      17.355  -1.747  52.974  0.00  0.00    +0.000 A 
ATOM     28  C   UNL     1      17.647  -0.733  52.073  0.00  0.00    +0.000 A 
ATOM     29  C   UNL     1      18.785   0.096  52.130  0.00  0.00    +0.000 A 
BRANCH  27  30
ATOM     30  O   UNL     1      18.165  -1.996  54.038  0.00  0.00    +0.000 OA
ATOM     31  H   UNL     1      18.176  -2.848  54.428  0.00  0.00    +0.000 HD
ENDBRANCH  27  30
ENDBRANCH  18  19
ENDBRANCH   1  18
TORSDOF 9
ENDMDL
