MODEL 1
REMARK VINA RESULT:    -8.545      0.000      0.000
REMARK INTER + INTRA:         -10.787
REMARK INTER:                 -10.293
REMARK INTRA:                  -0.494
REMARK UNBOUND:                -0.494
REMARK  Name = 
REMARK  4 active torsions:
REMARK  status: ('A' for Active; 'I' for Inactive)
REMARK    1  A    between atoms: O_1  and  C_2
REMARK    2  A    between atoms: C_10  and  N_11
REMARK    3  A    between atoms: N_19  and  C_20
REMARK    4  A    between atoms: C_20  and  C_21
REMARK                            x       y       z     vdW  Elec       q    Type
REMARK                         _______ _______ _______ _____ _____    ______ ____
ROOT
ATOM      1  C   UNL     1      21.445   0.896  52.892  0.00  0.00    +0.000 A 
ATOM      2  C   UNL     1      21.587  -0.454  53.247  0.00  0.00    +0.000 A 
ATOM      3  C   UNL     1      22.867  -1.021  53.444  0.00  0.00    +0.000 A 
ATOM      4  C   UNL     1      24.002  -0.239  53.247  0.00  0.00    +0.000 A 
ATOM      5  C   UNL     1      23.780   1.115  53.030  0.00  0.00    +0.000 A 
ATOM      6  C   UNL     1      22.545   1.717  52.899  0.00  0.00    +0.000 A 
ATOM      7  O   UNL     1      22.644   3.031  52.446  0.00  0.00    +0.000 OA
ATOM      8  C   UNL     1      23.868   2.939  51.691  0.00  0.00    +0.000 C 
ATOM      9  C   UNL     1      24.701   4.157  51.295  0.00  0.00    +0.000 C 
ATOM     10  C   UNL     1      25.897   3.661  50.406  0.00  0.00    +0.000 C 
ATOM     11  C   UNL     1      26.228   2.129  50.390  0.00  0.00    +0.000 C 
ATOM     12  C   UNL     1      25.615   1.237  51.481  0.00  0.00    +0.000 C 
ATOM     13  C   UNL     1      26.452   0.244  52.336  0.00  0.00    +0.000 C 
ATOM     14  C   UNL     1      25.382  -0.804  52.923  0.00  0.00    +0.000 C 
ATOM     15  N   UNL     1      27.375   0.943  53.270  0.00  0.00    +0.000 N 
ATOM     16  C   UNL     1      27.078   2.365  53.480  0.00  0.00    +0.000 C 
ATOM     17  C   UNL     1      25.589   2.618  53.678  0.00  0.00    +0.000 C 
ATOM     18  C   UNL     1      24.802   2.031  52.488  0.00  0.00    +0.000 C 
ATOM     19  H   UNL     1      28.244   0.898  52.737  0.00  0.00    +0.000 HD
ENDROOT
BRANCH   9  20
ATOM     20  N   UNL     1      23.894   5.148  50.548  0.00  0.00    +0.000 NA
ATOM     21  C   UNL     1      24.435   6.197  50.427  0.00  0.00    +0.000 C 
ATOM     22  S   UNL     1      25.186   7.585  50.272  0.00  0.00    +0.000 S 
ENDBRANCH   9  20
BRANCH   1  23
ATOM     23  O   UNL     1      20.300   1.281  52.259  0.00  0.00    +0.000 OA
ATOM     24  H   UNL     1      19.609   1.686  52.746  0.00  0.00    +0.000 HD
ENDBRANCH   1  23
BRANCH  15  25
ATOM     25  C   UNL     1      27.695   0.258  54.522  0.00  0.00    +0.000 C 
BRANCH  25  26
ATOM     26  C   UNL     1      29.086  -0.313  54.550  0.00  0.00    +0.000 C 
ATOM     27  C   UNL     1      29.597  -1.469  53.716  0.00  0.00    +0.000 C 
ATOM     28  C   UNL     1      29.986  -0.064  53.359  0.00  0.00    +0.000 C 
ENDBRANCH  25  26
ENDBRANCH  15  25
TORSDOF 4
ENDMDL
MODEL 2
REMARK VINA RESULT:    -8.203      2.832      5.542
REMARK INTER + INTRA:         -10.376
REMARK INTER:                  -9.755
REMARK INTRA:                  -0.621
REMARK UNBOUND:                -0.494
REMARK  Name = 
REMARK  4 active torsions:
REMARK  status: ('A' for Active; 'I' for Inactive)
REMARK    1  A    between atoms: O_1  and  C_2
REMARK    2  A    between atoms: C_10  and  N_11
REMARK    3  A    between atoms: N_19  and  C_20
REMARK    4  A    between atoms: C_20  and  C_21
REMARK                            x       y       z     vdW  Elec       q    Type
REMARK                         _______ _______ _______ _____ _____    ______ ____
ROOT
ATOM      1  C   UNL     1      21.411  -0.972  53.798  0.00  0.00    +0.000 A 
ATOM      2  C   UNL     1      20.174  -0.358  53.545  0.00  0.00    +0.000 A 
ATOM      3  C   UNL     1      20.103   0.870  52.848  0.00  0.00    +0.000 A 
ATOM      4  C   UNL     1      21.278   1.496  52.440  0.00  0.00    +0.000 A 
ATOM      5  C   UNL     1      22.448   0.767  52.606  0.00  0.00    +0.000 A 
ATOM      6  C   UNL     1      22.548  -0.464  53.222  0.00  0.00    +0.000 A 
ATOM      7  O   UNL     1      23.872  -0.830  53.457  0.00  0.00    +0.000 OA
ATOM      8  C   UNL     1      24.468   0.475  53.587  0.00  0.00    +0.000 C 
ATOM      9  C   UNL     1      25.969   0.727  53.451  0.00  0.00    +0.000 C 
ATOM     10  C   UNL     1      26.236   2.246  53.750  0.00  0.00    +0.000 C 
ATOM     11  C   UNL     1      25.017   3.229  53.759  0.00  0.00    +0.000 C 
ATOM     12  C   UNL     1      23.689   2.754  53.148  0.00  0.00    +0.000 C 
ATOM     13  C   UNL     1      22.889   3.584  52.104  0.00  0.00    +0.000 C 
ATOM     14  C   UNL     1      21.393   2.992  52.161  0.00  0.00    +0.000 C 
ATOM     15  N   UNL     1      23.589   3.670  50.795  0.00  0.00    +0.000 N 
ATOM     16  C   UNL     1      24.670   2.694  50.609  0.00  0.00    +0.000 C 
ATOM     17  C   UNL     1      24.273   1.300  51.078  0.00  0.00    +0.000 C 
ATOM     18  C   UNL     1      23.796   1.365  52.544  0.00  0.00    +0.000 C 
ATOM     19  H   UNL     1      24.029   4.586  50.883  0.00  0.00    +0.000 HD
ENDROOT
BRANCH   9  20
ATOM     20  N   UNL     1      26.749  -0.116  54.385  0.00  0.00    +0.000 NA
ATOM     21  C   UNL     1      27.908  -0.145  54.133  0.00  0.00    +0.000 C 
ATOM     22  S   UNL     1      29.454  -0.156  53.781  0.00  0.00    +0.000 S 
ENDBRANCH   9  20
BRANCH   1  23
ATOM     23  O   UNL     1      21.496  -1.848  54.839  0.00  0.00    +0.000 OA
ATOM     24  H   UNL     1      22.316  -1.983  55.271  0.00  0.00    +0.000 HD
ENDBRANCH   1  23
BRANCH  15  25
ATOM     25  C   UNL     1      22.751   3.796  49.602  0.00  0.00    +0.000 C 
BRANCH  25  26
ATOM     26  C   UNL     1      22.863   2.622  48.670  0.00  0.00    +0.000 C 
ATOM     27  C   UNL     1      21.786   1.596  48.387  0.00  0.00    +0.000 C 
ATOM     28  C   UNL     1      22.084   2.660  47.373  0.00  0.00    +0.000 C 
ENDBRANCH  25  26
ENDBRANCH  15  25
TORSDOF 4
ENDMDL
MODEL 3
REMARK VINA RESULT:    -8.117      3.538      5.884
REMARK INTER + INTRA:         -10.272
REMARK INTER:                  -9.746
REMARK INTRA:                  -0.526
REMARK UNBOUND:                -0.494
REMARK  Name = 
REMARK  4 active torsions:
REMARK  status: ('A' for Active; 'I' for Inactive)
REMARK    1  A    between atoms: O_1  and  C_2
REMARK    2  A    between atoms: C_10  and  N_11
REMARK    3  A    between atoms: N_19  and  C_20
REMARK    4  A    between atoms: C_20  and  C_21
REMARK                            x       y       z     vdW  Elec       q    Type
REMARK                         _______ _______ _______ _____ _____    ______ ____
ROOT
ATOM      1  C   UNL     1      22.531  -1.036  54.731  0.00  0.00    +0.000 A 
ATOM      2  C   UNL     1      23.931  -0.937  54.731  0.00  0.00    +0.000 A 
ATOM      3  C   UNL     1      24.592  -0.006  53.897  0.00  0.00    +0.000 A 
ATOM      4  C   UNL     1      23.845   0.796  53.037  0.00  0.00    +0.000 A 
ATOM      5  C   UNL     1      22.466   0.735  53.189  0.00  0.00    +0.000 A 
ATOM      6  C   UNL     1      21.787  -0.113  54.041  0.00  0.00    +0.000 A 
ATOM      7  O   UNL     1      20.415  -0.117  53.796  0.00  0.00    +0.000 OA
ATOM      8  C   UNL     1      20.415   0.203  52.392  0.00  0.00    +0.000 C 
ATOM      9  C   UNL     1      19.187   0.735  51.654  0.00  0.00    +0.000 C 
ATOM     10  C   UNL     1      19.552   0.869  50.133  0.00  0.00    +0.000 C 
ATOM     11  C   UNL     1      21.063   0.813  49.723  0.00  0.00    +0.000 C 
ATOM     12  C   UNL     1      22.127   0.975  50.821  0.00  0.00    +0.000 C 
ATOM     13  C   UNL     1      23.314   1.973  50.713  0.00  0.00    +0.000 C 
ATOM     14  C   UNL     1      24.404   1.438  51.770  0.00  0.00    +0.000 C 
ATOM     15  N   UNL     1      22.869   3.390  50.781  0.00  0.00    +0.000 N 
ATOM     16  C   UNL     1      21.506   3.583  51.290  0.00  0.00    +0.000 C 
ATOM     17  C   UNL     1      21.222   2.722  52.514  0.00  0.00    +0.000 C 
ATOM     18  C   UNL     1      21.513   1.243  52.184  0.00  0.00    +0.000 C 
ATOM     19  H   UNL     1      22.850   3.623  49.788  0.00  0.00    +0.000 HD
ENDROOT
BRANCH   9  20
ATOM     20  N   UNL     1      18.024  -0.167  51.816  0.00  0.00    +0.000 NA
ATOM     21  C   UNL     1      16.982   0.399  51.767  0.00  0.00    +0.000 C 
ATOM     22  S   UNL     1      15.604   1.179  51.687  0.00  0.00    +0.000 S 
ENDBRANCH   9  20
BRANCH   1  23
ATOM     23  O   UNL     1      21.966  -2.206  55.146  0.00  0.00    +0.000 OA
ATOM     24  H   UNL     1      21.320  -2.199  55.825  0.00  0.00    +0.000 HD
ENDBRANCH   1  23
BRANCH  15  25
ATOM     25  C   UNL     1      23.811   4.354  51.350  0.00  0.00    +0.000 C 
BRANCH  25  26
ATOM     26  C   UNL     1      24.461   5.232  50.317  0.00  0.00    +0.000 C 
ATOM     27  C   UNL     1      25.600   4.841  49.397  0.00  0.00    +0.000 C 
ATOM     28  C   UNL     1      24.203   4.931  48.856  0.00  0.00    +0.000 C 
ENDBRANCH  25  26
ENDBRANCH  15  25
TORSDOF 4
ENDMDL
MODEL 4
REMARK VINA RESULT:    -8.022      2.263      2.895
REMARK INTER + INTRA:         -10.157
REMARK INTER:                  -9.603
REMARK INTRA:                  -0.554
REMARK UNBOUND:                -0.494
REMARK  Name = 
REMARK  4 active torsions:
REMARK  status: ('A' for Active; 'I' for Inactive)
REMARK    1  A    between atoms: O_1  and  C_2
REMARK    2  A    between atoms: C_10  and  N_11
REMARK    3  A    between atoms: N_19  and  C_20
REMARK    4  A    between atoms: C_20  and  C_21
REMARK                            x       y       z     vdW  Elec       q    Type
REMARK                         _______ _______ _______ _____ _____    ______ ____
ROOT
ATOM      1  C   UNL     1      20.472  -0.353  53.935  0.00  0.00    +0.000 A 
ATOM      2  C   UNL     1      21.359  -1.360  54.348  0.00  0.00    +0.000 A 
ATOM      3  C   UNL     1      22.754  -1.211  54.178  0.00  0.00    +0.000 A 
ATOM      4  C   UNL     1      23.252  -0.067  53.559  0.00  0.00    +0.000 A 
ATOM      5  C   UNL     1      22.330   0.938  53.301  0.00  0.00    +0.000 A 
ATOM      6  C   UNL     1      20.969   0.855  53.516  0.00  0.00    +0.000 A 
ATOM      7  O   UNL     1      20.278   1.919  52.936  0.00  0.00    +0.000 OA
ATOM      8  C   UNL     1      21.166   2.221  51.843  0.00  0.00    +0.000 C 
ATOM      9  C   UNL     1      21.146   3.552  51.092  0.00  0.00    +0.000 C 
ATOM     10  C   UNL     1      22.185   3.463  49.917  0.00  0.00    +0.000 C 
ATOM     11  C   UNL     1      23.234   2.300  49.936  0.00  0.00    +0.000 C 
ATOM     12  C   UNL     1      23.432   1.515  51.243  0.00  0.00    +0.000 C 
ATOM     13  C   UNL     1      24.829   1.253  51.874  0.00  0.00    +0.000 C 
ATOM     14  C   UNL     1      24.610   0.004  52.865  0.00  0.00    +0.000 C 
ATOM     15  N   UNL     1      25.455   2.496  52.396  0.00  0.00    +0.000 N 
ATOM     16  C   UNL     1      24.533   3.628  52.559  0.00  0.00    +0.000 C 
ATOM     17  C   UNL     1      23.215   3.209  53.198  0.00  0.00    +0.000 C 
ATOM     18  C   UNL     1      22.586   2.062  52.379  0.00  0.00    +0.000 C 
ATOM     19  H   UNL     1      26.075   2.729  51.620  0.00  0.00    +0.000 HD
ENDROOT
BRANCH   9  20
ATOM     20  N   UNL     1      19.800   3.852  50.554  0.00  0.00    +0.000 NA
ATOM     21  C   UNL     1      19.723   4.929  50.059  0.00  0.00    +0.000 C 
ATOM     22  S   UNL     1      19.651   6.367  49.396  0.00  0.00    +0.000 S 
ENDBRANCH   9  20
BRANCH   1  23
ATOM     23  O   UNL     1      19.181  -0.699  53.668  0.00  0.00    +0.000 OA
ATOM     24  H   UNL     1      18.995  -1.342  53.012  0.00  0.00    +0.000 HD
ENDBRANCH   1  23
BRANCH  15  25
ATOM     25  C   UNL     1      26.358   2.354  53.538  0.00  0.00    +0.000 C 
BRANCH  25  26
ATOM     26  C   UNL     1      27.783   2.086  53.141  0.00  0.00    +0.000 C 
ATOM     27  C   UNL     1      29.010   2.308  54.000  0.00  0.00    +0.000 C 
ATOM     28  C   UNL     1      28.497   0.916  53.781  0.00  0.00    +0.000 C 
ENDBRANCH  25  26
ENDBRANCH  15  25
TORSDOF 4
ENDMDL
MODEL 5
REMARK VINA RESULT:    -8.008      2.790      6.038
REMARK INTER + INTRA:         -10.140
REMARK INTER:                  -9.646
REMARK INTRA:                  -0.495
REMARK UNBOUND:                -0.494
REMARK  Name = 
REMARK  4 active torsions:
REMARK  status: ('A' for Active; 'I' for Inactive)
REMARK    1  A    between atoms: O_1  and  C_2
REMARK    2  A    between atoms: C_10  and  N_11
REMARK    3  A    between atoms: N_19  and  C_20
REMARK    4  A    between atoms: C_20  and  C_21
REMARK                            x       y       z     vdW  Elec       q    Type
REMARK                         _______ _______ _______ _____ _____    ______ ____
ROOT
ATOM      1  C   UNL     1      24.683  -0.812  54.556  0.00  0.00    +0.000 A 
ATOM      2  C   UNL     1      23.715  -1.379  55.401  0.00  0.00    +0.000 A 
ATOM      3  C   UNL     1      22.336  -1.189  55.153  0.00  0.00    +0.000 A 
ATOM      4  C   UNL     1      21.934  -0.399  54.079  0.00  0.00    +0.000 A 
ATOM      5  C   UNL     1      22.940   0.014  53.215  0.00  0.00    +0.000 A 
ATOM      6  C   UNL     1      24.291  -0.209  53.388  0.00  0.00    +0.000 A 
ATOM      7  O   UNL     1      25.066   0.531  52.496  0.00  0.00    +0.000 OA
ATOM      8  C   UNL     1      24.192   1.658  52.288  0.00  0.00    +0.000 C 
ATOM      9  C   UNL     1      24.320   2.608  51.098  0.00  0.00    +0.000 C 
ATOM     10  C   UNL     1      23.259   3.753  51.273  0.00  0.00    +0.000 C 
ATOM     11  C   UNL     1      22.109   3.550  52.317  0.00  0.00    +0.000 C 
ATOM     12  C   UNL     1      21.862   2.135  52.868  0.00  0.00    +0.000 C 
ATOM     13  C   UNL     1      20.457   1.469  52.898  0.00  0.00    +0.000 C 
ATOM     14  C   UNL     1      20.578   0.295  53.992  0.00  0.00    +0.000 C 
ATOM     15  N   UNL     1      19.955   1.148  51.536  0.00  0.00    +0.000 N 
ATOM     16  C   UNL     1      20.978   1.166  50.483  0.00  0.00    +0.000 C 
ATOM     17  C   UNL     1      22.263   0.471  50.917  0.00  0.00    +0.000 C 
ATOM     18  C   UNL     1      22.772   1.100  52.230  0.00  0.00    +0.000 C 
ATOM     19  H   UNL     1      19.346   1.949  51.371  0.00  0.00    +0.000 HD
ENDROOT
BRANCH   9  20
ATOM     20  N   UNL     1      25.679   3.188  51.011  0.00  0.00    +0.000 NA
ATOM     21  C   UNL     1      25.763   4.065  50.215  0.00  0.00    +0.000 C 
ATOM     22  S   UNL     1      25.845   5.239  49.153  0.00  0.00    +0.000 S 
ENDBRANCH   9  20
BRANCH   1  23
ATOM     23  O   UNL     1      25.933  -0.600  55.057  0.00  0.00    +0.000 OA
ATOM     24  H   UNL     1      26.106   0.159  55.579  0.00  0.00    +0.000 HD
ENDBRANCH   1  23
BRANCH  15  25
ATOM     25  C   UNL     1      19.061  -0.004  51.414  0.00  0.00    +0.000 C 
BRANCH  25  26
ATOM     26  C   UNL     1      17.634   0.311  51.766  0.00  0.00    +0.000 C 
ATOM     27  C   UNL     1      16.400  -0.331  51.165  0.00  0.00    +0.000 C 
ATOM     28  C   UNL     1      16.844  -0.719  52.545  0.00  0.00    +0.000 C 
ENDBRANCH  25  26
ENDBRANCH  15  25
TORSDOF 4
ENDMDL
MODEL 6
REMARK VINA RESULT:    -7.921      3.349      6.511
REMARK INTER + INTRA:         -10.036
REMARK INTER:                  -9.652
REMARK INTRA:                  -0.384
REMARK UNBOUND:                -0.494
REMARK  Name = 
REMARK  4 active torsions:
REMARK  status: ('A' for Active; 'I' for Inactive)
REMARK    1  A    between atoms: O_1  and  C_2
REMARK    2  A    between atoms: C_10  and  N_11
REMARK    3  A    between atoms: N_19  and  C_20
REMARK    4  A    between atoms: C_20  and  C_21
REMARK                            x       y       z     vdW  Elec       q    Type
REMARK                         _______ _______ _______ _____ _____    ______ ____
ROOT
ATOM      1  C   UNL     1      26.066  -0.123  53.235  0.00  0.00    +0.000 A 
ATOM      2  C   UNL     1      27.090   0.485  52.491  0.00  0.00    +0.000 A 
ATOM      3  C   UNL     1      26.815   1.577  51.636  0.00  0.00    +0.000 A 
ATOM      4  C   UNL     1      25.506   2.032  51.504  0.00  0.00    +0.000 A 
ATOM      5  C   UNL     1      24.574   1.472  52.368  0.00  0.00    +0.000 A 
ATOM      6  C   UNL     1      24.820   0.450  53.263  0.00  0.00    +0.000 A 
ATOM      7  O   UNL     1      23.646  -0.063  53.812  0.00  0.00    +0.000 OA
ATOM      8  C   UNL     1      22.731   0.209  52.733  0.00  0.00    +0.000 C 
ATOM      9  C   UNL     1      21.214   0.238  52.909  0.00  0.00    +0.000 C 
ATOM     10  C   UNL     1      20.564   0.469  51.498  0.00  0.00    +0.000 C 
ATOM     11  C   UNL     1      21.480   0.964  50.328  0.00  0.00    +0.000 C 
ATOM     12  C   UNL     1      22.869   1.526  50.674  0.00  0.00    +0.000 C 
ATOM     13  C   UNL     1      23.392   2.888  50.137  0.00  0.00    +0.000 C 
ATOM     14  C   UNL     1      24.992   2.810  50.295  0.00  0.00    +0.000 C 
ATOM     15  N   UNL     1      22.658   4.043  50.716  0.00  0.00    +0.000 N 
ATOM     16  C   UNL     1      21.868   3.732  51.914  0.00  0.00    +0.000 C 
ATOM     17  C   UNL     1      22.631   2.850  52.894  0.00  0.00    +0.000 C 
ATOM     18  C   UNL     1      23.115   1.575  52.172  0.00  0.00    +0.000 C 
ATOM     19  H   UNL     1      21.994   4.234  49.966  0.00  0.00    +0.000 HD
ENDROOT
BRANCH   9  20
ATOM     20  N   UNL     1      20.710  -1.025  53.495  0.00  0.00    +0.000 NA
ATOM     21  C   UNL     1      19.533  -1.147  53.405  0.00  0.00    +0.000 C 
ATOM     22  S   UNL     1      17.961  -1.289  53.261  0.00  0.00    +0.000 S 
ENDBRANCH   9  20
BRANCH   1  23
ATOM     23  O   UNL     1      26.244  -1.409  53.648  0.00  0.00    +0.000 OA
ATOM     24  H   UNL     1      26.888  -1.950  53.233  0.00  0.00    +0.000 HD
ENDBRANCH   1  23
BRANCH  15  25
ATOM     25  C   UNL     1      23.399   5.297  50.858  0.00  0.00    +0.000 C 
BRANCH  25  26
ATOM     26  C   UNL     1      22.795   6.436  50.085  0.00  0.00    +0.000 C 
ATOM     27  C   UNL     1      21.902   7.524  50.643  0.00  0.00    +0.000 C 
ATOM     28  C   UNL     1      23.336   7.829  50.323  0.00  0.00    +0.000 C 
ENDBRANCH  25  26
ENDBRANCH  15  25
TORSDOF 4
ENDMDL
MODEL 7
REMARK VINA RESULT:    -7.912      2.898      5.386
REMARK INTER + INTRA:         -10.025
REMARK INTER:                  -9.484
REMARK INTRA:                  -0.541
REMARK UNBOUND:                -0.494
REMARK  Name = 
REMARK  4 active torsions:
REMARK  status: ('A' for Active; 'I' for Inactive)
REMARK    1  A    between atoms: O_1  and  C_2
REMARK    2  A    between atoms: C_10  and  N_11
REMARK    3  A    between atoms: N_19  and  C_20
REMARK    4  A    between atoms: C_20  and  C_21
REMARK                            x       y       z     vdW  Elec       q    Type
REMARK                         _______ _______ _______ _____ _____    ______ ____
ROOT
ATOM      1  C   UNL     1      25.012   0.520  53.243  0.00  0.00    +0.000 A 
ATOM      2  C   UNL     1      26.334   0.412  52.783  0.00  0.00    +0.000 A 
ATOM      3  C   UNL     1      26.833   1.297  51.799  0.00  0.00    +0.000 A 
ATOM      4  C   UNL     1      25.991   2.262  51.254  0.00  0.00    +0.000 A 
ATOM      5  C   UNL     1      24.745   2.394  51.852  0.00  0.00    +0.000 A 
ATOM      6  C   UNL     1      24.248   1.593  52.860  0.00  0.00    +0.000 A 
ATOM      7  O   UNL     1      22.889   1.809  53.083  0.00  0.00    +0.000 OA
ATOM      8  C   UNL     1      22.488   2.232  51.765  0.00  0.00    +0.000 C 
ATOM      9  C   UNL     1      21.192   2.993  51.488  0.00  0.00    +0.000 C 
ATOM     10  C   UNL     1      21.065   3.188  49.935  0.00  0.00    +0.000 C 
ATOM     11  C   UNL     1      22.331   2.941  49.047  0.00  0.00    +0.000 C 
ATOM     12  C   UNL     1      23.704   2.861  49.735  0.00  0.00    +0.000 C 
ATOM     13  C   UNL     1      24.940   3.678  49.264  0.00  0.00    +0.000 C 
ATOM     14  C   UNL     1      26.209   2.909  49.889  0.00  0.00    +0.000 C 
ATOM     15  N   UNL     1      24.779   5.136  49.508  0.00  0.00    +0.000 N 
ATOM     16  C   UNL     1      23.704   5.488  50.444  0.00  0.00    +0.000 C 
ATOM     17  C   UNL     1      23.693   4.588  51.673  0.00  0.00    +0.000 C 
ATOM     18  C   UNL     1      23.615   3.112  51.230  0.00  0.00    +0.000 C 
ATOM     19  H   UNL     1      24.478   5.444  48.583  0.00  0.00    +0.000 HD
ENDROOT
BRANCH   9  20
ATOM     20  N   UNL     1      20.012   2.262  52.003  0.00  0.00    +0.000 NA
ATOM     21  C   UNL     1      18.983   2.799  51.753  0.00  0.00    +0.000 C 
ATOM     22  S   UNL     1      17.624   3.530  51.396  0.00  0.00    +0.000 S 
ENDBRANCH   9  20
BRANCH   1  23
ATOM     23  O   UNL     1      24.428  -0.582  53.794  0.00  0.00    +0.000 OA
ATOM     24  H   UNL     1      23.918  -0.500  54.576  0.00  0.00    +0.000 HD
ENDBRANCH   1  23
BRANCH  15  25
ATOM     25  C   UNL     1      25.999   5.905  49.756  0.00  0.00    +0.000 C 
BRANCH  25  26
ATOM     26  C   UNL     1      26.784   6.195  48.508  0.00  0.00    +0.000 C 
ATOM     27  C   UNL     1      27.998   7.094  48.401  0.00  0.00    +0.000 C 
ATOM     28  C   UNL     1      28.172   5.604  48.381  0.00  0.00    +0.000 C 
ENDBRANCH  25  26
ENDBRANCH  15  25
TORSDOF 4
ENDMDL
MODEL 8
REMARK VINA RESULT:    -7.872      2.549      5.513
REMARK INTER + INTRA:          -9.977
REMARK INTER:                  -9.402
REMARK INTRA:                  -0.575
REMARK UNBOUND:                -0.494
REMARK  Name = 
REMARK  4 active torsions:
REMARK  status: ('A' for Active; 'I' for Inactive)
REMARK    1  A    between atoms: O_1  and  C_2
REMARK    2  A    between atoms: C_10  and  N_11
REMARK    3  A    between atoms: N_19  and  C_20
REMARK    4  A    between atoms: C_20  and  C_21
REMARK                            x       y       z     vdW  Elec       q    Type
REMARK                         _______ _______ _______ _____ _____    ______ ____
ROOT
ATOM      1  C   UNL     1      26.778   1.020  52.315  0.00  0.00    +0.000 A 
ATOM      2  C   UNL     1      26.282   0.032  53.181  0.00  0.00    +0.000 A 
ATOM      3  C   UNL     1      24.891  -0.138  53.366  0.00  0.00    +0.000 A 
ATOM      4  C   UNL     1      24.003   0.710  52.709  0.00  0.00    +0.000 A 
ATOM      5  C   UNL     1      24.560   1.570  51.771  0.00  0.00    +0.000 A 
ATOM      6  C   UNL     1      25.908   1.717  51.515  0.00  0.00    +0.000 A 
ATOM      7  O   UNL     1      26.174   2.820  50.706  0.00  0.00    +0.000 OA
ATOM      8  C   UNL     1      25.062   3.663  51.067  0.00  0.00    +0.000 C 
ATOM      9  C   UNL     1      24.591   4.838  50.212  0.00  0.00    +0.000 C 
ATOM     10  C   UNL     1      23.428   5.563  50.980  0.00  0.00    +0.000 C 
ATOM     11  C   UNL     1      22.752   4.819  52.182  0.00  0.00    +0.000 C 
ATOM     12  C   UNL     1      23.003   3.311  52.345  0.00  0.00    +0.000 C 
ATOM     13  C   UNL     1      21.861   2.276  52.545  0.00  0.00    +0.000 C 
ATOM     14  C   UNL     1      22.578   0.984  53.182  0.00  0.00    +0.000 C 
ATOM     15  N   UNL     1      21.022   2.118  51.328  0.00  0.00    +0.000 N 
ATOM     16  C   UNL     1      21.617   2.654  50.097  0.00  0.00    +0.000 C 
ATOM     17  C   UNL     1      23.089   2.286  49.962  0.00  0.00    +0.000 C 
ATOM     18  C   UNL     1      23.853   2.743  51.221  0.00  0.00    +0.000 C 
ATOM     19  H   UNL     1      20.237   2.725  51.566  0.00  0.00    +0.000 HD
ENDROOT
BRANCH   9  20
ATOM     20  N   UNL     1      25.691   5.792  49.946  0.00  0.00    +0.000 NA
ATOM     21  C   UNL     1      25.467   6.524  49.039  0.00  0.00    +0.000 C 
ATOM     22  S   UNL     1      25.137   7.496  47.831  0.00  0.00    +0.000 S 
ENDBRANCH   9  20
BRANCH   1  23
ATOM     23  O   UNL     1      28.048   1.474  52.513  0.00  0.00    +0.000 OA
ATOM     24  H   UNL     1      28.282   1.869  53.330  0.00  0.00    +0.000 HD
ENDBRANCH   1  23
BRANCH  15  25
ATOM     25  C   UNL     1      20.403   0.810  51.115  0.00  0.00    +0.000 C 
BRANCH  25  26
ATOM     26  C   UNL     1      19.094   0.646  51.837  0.00  0.00    +0.000 C 
ATOM     27  C   UNL     1      18.071  -0.446  51.602  0.00  0.00    +0.000 C 
ATOM     28  C   UNL     1      18.954  -0.502  52.814  0.00  0.00    +0.000 C 
ENDBRANCH  25  26
ENDBRANCH  15  25
TORSDOF 4
ENDMDL
MODEL 9
REMARK VINA RESULT:    -7.252      3.671      7.074
REMARK INTER + INTRA:          -9.231
REMARK INTER:                  -8.722
REMARK INTRA:                  -0.508
REMARK UNBOUND:                -0.494
REMARK  Name = 
REMARK  4 active torsions:
REMARK  status: ('A' for Active; 'I' for Inactive)
REMARK    1  A    between atoms: O_1  and  C_2
REMARK    2  A    between atoms: C_10  and  N_11
REMARK    3  A    between atoms: N_19  and  C_20
REMARK    4  A    between atoms: C_20  and  C_21
REMARK                            x       y       z     vdW  Elec       q    Type
REMARK                         _______ _______ _______ _____ _____    ______ ____
ROOT
ATOM      1  C   UNL     1      26.489   2.955  51.088  0.00  0.00    +0.000 A 
ATOM      2  C   UNL     1      26.710   3.688  49.912  0.00  0.00    +0.000 A 
ATOM      3  C   UNL     1      25.625   4.175  49.146  0.00  0.00    +0.000 A 
ATOM      4  C   UNL     1      24.322   3.891  49.546  0.00  0.00    +0.000 A 
ATOM      5  C   UNL     1      24.182   3.279  50.785  0.00  0.00    +0.000 A 
ATOM      6  C   UNL     1      25.217   2.850  51.591  0.00  0.00    +0.000 A 
ATOM      7  O   UNL     1      24.769   2.059  52.648  0.00  0.00    +0.000 OA
ATOM      8  C   UNL     1      23.584   1.498  52.049  0.00  0.00    +0.000 C 
ATOM      9  C   UNL     1      22.453   0.869  52.862  0.00  0.00    +0.000 C 
ATOM     10  C   UNL     1      21.395   0.291  51.857  0.00  0.00    +0.000 C 
ATOM     11  C   UNL     1      21.466   0.742  50.358  0.00  0.00    +0.000 C 
ATOM     12  C   UNL     1      22.324   1.967  50.003  0.00  0.00    +0.000 C 
ATOM     13  C   UNL     1      21.799   3.153  49.146  0.00  0.00    +0.000 C 
ATOM     14  C   UNL     1      23.122   3.891  48.602  0.00  0.00    +0.000 C 
ATOM     15  N   UNL     1      20.762   3.947  49.855  0.00  0.00    +0.000 N 
ATOM     16  C   UNL     1      20.692   3.714  51.303  0.00  0.00    +0.000 C 
ATOM     17  C   UNL     1      22.073   3.670  51.946  0.00  0.00    +0.000 C 
ATOM     18  C   UNL     1      22.941   2.615  51.230  0.00  0.00    +0.000 C 
ATOM     19  H   UNL     1      19.915   3.546  49.451  0.00  0.00    +0.000 HD
ENDROOT
BRANCH   9  20
ATOM     20  N   UNL     1      22.954  -0.210  53.744  0.00  0.00    +0.000 NA
ATOM     21  C   UNL     1      22.114  -0.992  54.049  0.00  0.00    +0.000 C 
ATOM     22  S   UNL     1      20.977  -2.027  54.433  0.00  0.00    +0.000 S 
ENDBRANCH   9  20
BRANCH   1  23
ATOM     23  O   UNL     1      27.474   2.118  51.522  0.00  0.00    +0.000 OA
ATOM     24  H   UNL     1      28.335   2.178  51.156  0.00  0.00    +0.000 HD
ENDBRANCH   1  23
BRANCH  15  25
ATOM     25  C   UNL     1      20.671   5.369  49.522  0.00  0.00    +0.000 C 
BRANCH  25  26
ATOM     26  C   UNL     1      21.209   6.268  50.600  0.00  0.00    +0.000 C 
ATOM     27  C   UNL     1      22.502   7.055  50.548  0.00  0.00    +0.000 C 
ATOM     28  C   UNL     1      21.193   7.762  50.360  0.00  0.00    +0.000 C 
ENDBRANCH  25  26
ENDBRANCH  15  25
TORSDOF 4
ENDMDL
