MODEL 1
REMARK VINA RESULT:    -9.222      0.000      0.000
REMARK INTER + INTRA:         -14.807
REMARK INTER:                 -13.265
REMARK INTRA:                  -1.542
REMARK UNBOUND:                -1.542
REMARK  Name = 
REMARK  9 active torsions:
REMARK  status: ('A' for Active; 'I' for Inactive)
REMARK    1  A    between atoms: C_2  and  C_3
REMARK    2  A    between atoms: C_3  and  N_4
REMARK    3  A    between atoms: N_4  and  C_5
REMARK    4  A    between atoms: N_4  and  C_18
REMARK    5  A    between atoms: C_5  and  C_6
REMARK    6  A    between atoms: C_11  and  C_12
REMARK    7  A    between atoms: C_14  and  O_15
REMARK    8  A    between atoms: C_21  and  C_22
REMARK    9  A    between atoms: N_24  and  C_25
REMARK                            x       y       z     vdW  Elec       q    Type
REMARK                         _______ _______ _______ _____ _____    ______ ____
ROOT
ATOM      1  N   UNL     1      23.611   3.542  51.639  0.00  0.00    +0.000 N 
ENDROOT
BRANCH   1   2
ATOM      2  C   UNL     1      24.334   4.446  50.862  0.00  0.00    +0.000 A 
ATOM      3  C   UNL     1      25.238   4.069  49.853  0.00  0.00    +0.000 A 
ATOM      4  C   UNL     1      26.019   5.010  49.143  0.00  0.00    +0.000 A 
ATOM      5  C   UNL     1      25.889   6.383  49.379  0.00  0.00    +0.000 A 
ATOM      6  C   UNL     1      24.949   6.781  50.322  0.00  0.00    +0.000 A 
ATOM      7  C   UNL     1      24.239   5.832  51.071  0.00  0.00    +0.000 A 
BRANCH   5   8
ATOM      8  C   UNL     1      26.827   7.343  48.699  0.00  0.00    +0.000 C 
ATOM      9  O   UNL     1      26.692   7.524  47.493  0.00  0.00    +0.000 OA
ATOM     10  N   UNL     1      27.807   7.917  49.498  0.00  0.00    +0.000 N 
ATOM     11  H   UNL     1      27.686   7.817  50.470  0.00  0.00    +0.000 HD
BRANCH  10  12
ATOM     12  C   UNL     1      28.957   8.624  49.085  0.00  0.00    +0.000 A 
ATOM     13  C   UNL     1      30.164   8.016  48.749  0.00  0.00    +0.000 A 
ATOM     14  C   UNL     1      31.298   8.793  48.493  0.00  0.00    +0.000 A 
ATOM     15  C   UNL     1      31.227  10.183  48.546  0.00  0.00    +0.000 A 
ATOM     16  C   UNL     1      30.012  10.802  48.821  0.00  0.00    +0.000 A 
ATOM     17  C   UNL     1      28.881  10.026  49.087  0.00  0.00    +0.000 A 
ENDBRANCH  10  12
ENDBRANCH   5   8
ENDBRANCH   1   2
BRANCH   1  18
ATOM     18  C   UNL     1      22.187   3.248  51.400  0.00  0.00    +0.000 C 
BRANCH  18  20
ATOM     19  C   UNL     1      21.834   1.186  49.728  0.00  0.00    +0.000 C 
ATOM     20  C   UNL     1      22.020   2.086  50.502  0.00  0.00    +0.000 C 
ENDBRANCH  18  20
ENDBRANCH   1  18
BRANCH   1  21
ATOM     21  C   UNL     1      24.111   3.089  52.951  0.00  0.00    +0.000 C 
BRANCH  21  22
ATOM     22  C   UNL     1      25.257   2.096  52.899  0.00  0.00    +0.000 A 
ATOM     23  C   UNL     1      24.988   0.805  52.420  0.00  0.00    +0.000 A 
ATOM     24  C   UNL     1      25.951  -0.206  52.478  0.00  0.00    +0.000 A 
ATOM     25  C   UNL     1      27.212   0.021  53.008  0.00  0.00    +0.000 A 
ATOM     26  N   UNL     1      28.077  -1.000  53.101  0.00  0.00    +0.000 NA
ATOM     27  C   UNL     1      29.288  -0.753  53.632  0.00  0.00    +0.000 A 
ATOM     28  C   UNL     1      30.205  -1.925  53.818  0.00  0.00    +0.000 C 
ATOM     29  N   UNL     1      29.706   0.451  54.043  0.00  0.00    +0.000 NA
ATOM     30  C   UNL     1      28.810   1.439  53.930  0.00  0.00    +0.000 A 
ATOM     31  C   UNL     1      27.514   1.311  53.447  0.00  0.00    +0.000 A 
ATOM     32  C   UNL     1      26.540   2.350  53.402  0.00  0.00    +0.000 A 
BRANCH  30  33
ATOM     33  O   UNL     1      29.293   2.642  54.338  0.00  0.00    +0.000 OA
ATOM     34  H   UNL     1      30.003   2.680  54.948  0.00  0.00    +0.000 HD
ENDBRANCH  30  33
ENDBRANCH  21  22
ENDBRANCH   1  21
TORSDOF 8
ENDMDL
MODEL 2
REMARK VINA RESULT:    -9.028      3.642      8.304
REMARK INTER + INTRA:         -14.529
REMARK INTER:                 -12.897
REMARK INTRA:                  -1.632
REMARK UNBOUND:                -1.542
REMARK  Name = 
REMARK  9 active torsions:
REMARK  status: ('A' for Active; 'I' for Inactive)
REMARK    1  A    between atoms: C_2  and  C_3
REMARK    2  A    between atoms: C_3  and  N_4
REMARK    3  A    between atoms: N_4  and  C_5
REMARK    4  A    between atoms: N_4  and  C_18
REMARK    5  A    between atoms: C_5  and  C_6
REMARK    6  A    between atoms: C_11  and  C_12
REMARK    7  A    between atoms: C_14  and  O_15
REMARK    8  A    between atoms: C_21  and  C_22
REMARK    9  A    between atoms: N_24  and  C_25
REMARK                            x       y       z     vdW  Elec       q    Type
REMARK                         _______ _______ _______ _____ _____    ______ ____
ROOT
ATOM      1  N   UNL     1      19.157   0.970  52.147  0.00  0.00    +0.000 N 
ENDROOT
BRANCH   1   2
ATOM      2  C   UNL     1      20.349   0.469  52.668  0.00  0.00    +0.000 A 
ATOM      3  C   UNL     1      20.639   0.397  54.041  0.00  0.00    +0.000 A 
ATOM      4  C   UNL     1      21.892  -0.037  54.532  0.00  0.00    +0.000 A 
ATOM      5  C   UNL     1      22.898  -0.469  53.662  0.00  0.00    +0.000 A 
ATOM      6  C   UNL     1      22.608  -0.473  52.302  0.00  0.00    +0.000 A 
ATOM      7  C   UNL     1      21.388   0.032  51.829  0.00  0.00    +0.000 A 
BRANCH   5   8
ATOM      8  C   UNL     1      24.260  -0.799  54.210  0.00  0.00    +0.000 C 
ATOM      9  O   UNL     1      24.335  -1.188  55.372  0.00  0.00    +0.000 OA
ATOM     10  N   UNL     1      25.335  -0.590  53.357  0.00  0.00    +0.000 N 
ATOM     11  H   UNL     1      25.114  -0.445  52.409  0.00  0.00    +0.000 HD
BRANCH  10  12
ATOM     12  C   UNL     1      26.708  -0.557  53.685  0.00  0.00    +0.000 A 
ATOM     13  C   UNL     1      27.280   0.379  54.544  0.00  0.00    +0.000 A 
ATOM     14  C   UNL     1      28.667   0.436  54.703  0.00  0.00    +0.000 A 
ATOM     15  C   UNL     1      29.492  -0.457  54.023  0.00  0.00    +0.000 A 
ATOM     16  C   UNL     1      28.928  -1.435  53.209  0.00  0.00    +0.000 A 
ATOM     17  C   UNL     1      27.542  -1.486  53.044  0.00  0.00    +0.000 A 
ENDBRANCH  10  12
ENDBRANCH   5   8
ENDBRANCH   1   2
BRANCH   1  18
ATOM     18  C   UNL     1      18.103   0.102  51.594  0.00  0.00    +0.000 C 
BRANCH  18  20
ATOM     19  C   UNL     1      17.515  -1.945  53.218  0.00  0.00    +0.000 C 
ATOM     20  C   UNL     1      17.770  -0.999  52.522  0.00  0.00    +0.000 C 
ENDBRANCH  18  20
ENDBRANCH   1  18
BRANCH   1  21
ATOM     21  C   UNL     1      19.015   2.396  51.792  0.00  0.00    +0.000 C 
BRANCH  21  22
ATOM     22  C   UNL     1      20.231   3.025  51.141  0.00  0.00    +0.000 A 
ATOM     23  C   UNL     1      20.443   2.787  49.775  0.00  0.00    +0.000 A 
ATOM     24  C   UNL     1      21.614   3.208  49.137  0.00  0.00    +0.000 A 
ATOM     25  C   UNL     1      22.613   3.880  49.824  0.00  0.00    +0.000 A 
ATOM     26  N   UNL     1      23.745   4.204  49.181  0.00  0.00    +0.000 NA
ATOM     27  C   UNL     1      24.704   4.844  49.876  0.00  0.00    +0.000 A 
ATOM     28  C   UNL     1      25.999   5.110  49.169  0.00  0.00    +0.000 C 
ATOM     29  N   UNL     1      24.593   5.213  51.158  0.00  0.00    +0.000 NA
ATOM     30  C   UNL     1      23.447   4.870  51.758  0.00  0.00    +0.000 A 
ATOM     31  C   UNL     1      22.400   4.168  51.172  0.00  0.00    +0.000 A 
ATOM     32  C   UNL     1      21.217   3.738  51.838  0.00  0.00    +0.000 A 
BRANCH  30  33
ATOM     33  O   UNL     1      23.377   5.288  53.049  0.00  0.00    +0.000 OA
ATOM     34  H   UNL     1      23.240   4.666  53.737  0.00  0.00    +0.000 HD
ENDBRANCH  30  33
ENDBRANCH  21  22
ENDBRANCH   1  21
TORSDOF 8
ENDMDL
MODEL 3
REMARK VINA RESULT:    -8.915      3.392      6.078
REMARK INTER + INTRA:         -14.366
REMARK INTER:                 -13.544
REMARK INTRA:                  -0.822
REMARK UNBOUND:                -1.542
REMARK  Name = 
REMARK  9 active torsions:
REMARK  status: ('A' for Active; 'I' for Inactive)
REMARK    1  A    between atoms: C_2  and  C_3
REMARK    2  A    between atoms: C_3  and  N_4
REMARK    3  A    between atoms: N_4  and  C_5
REMARK    4  A    between atoms: N_4  and  C_18
REMARK    5  A    between atoms: C_5  and  C_6
REMARK    6  A    between atoms: C_11  and  C_12
REMARK    7  A    between atoms: C_14  and  O_15
REMARK    8  A    between atoms: C_21  and  C_22
REMARK    9  A    between atoms: N_24  and  C_25
REMARK                            x       y       z     vdW  Elec       q    Type
REMARK                         _______ _______ _______ _____ _____    ______ ____
ROOT
ATOM      1  N   UNL     1      25.706   0.588  53.765  0.00  0.00    +0.000 N 
ENDROOT
BRANCH   1   2
ATOM      2  C   UNL     1      25.650   1.497  52.709  0.00  0.00    +0.000 A 
ATOM      3  C   UNL     1      26.499   1.456  51.589  0.00  0.00    +0.000 A 
ATOM      4  C   UNL     1      26.471   2.444  50.579  0.00  0.00    +0.000 A 
ATOM      5  C   UNL     1      25.551   3.497  50.622  0.00  0.00    +0.000 A 
ATOM      6  C   UNL     1      24.655   3.517  51.684  0.00  0.00    +0.000 A 
ATOM      7  C   UNL     1      24.747   2.573  52.717  0.00  0.00    +0.000 A 
BRANCH   5   8
ATOM      8  C   UNL     1      25.639   4.599  49.601  0.00  0.00    +0.000 C 
ATOM      9  O   UNL     1      24.715   4.719  48.802  0.00  0.00    +0.000 OA
ATOM     10  N   UNL     1      26.793   5.370  49.624  0.00  0.00    +0.000 N 
ATOM     11  H   UNL     1      27.361   5.275  50.422  0.00  0.00    +0.000 HD
BRANCH  10  12
ATOM     12  C   UNL     1      27.253   6.271  48.638  0.00  0.00    +0.000 A 
ATOM     13  C   UNL     1      28.491   6.170  48.009  0.00  0.00    +0.000 A 
ATOM     14  C   UNL     1      28.933   7.183  47.153  0.00  0.00    +0.000 A 
ATOM     15  C   UNL     1      28.129   8.293  46.901  0.00  0.00    +0.000 A 
ATOM     16  C   UNL     1      26.865   8.375  47.476  0.00  0.00    +0.000 A 
ATOM     17  C   UNL     1      26.428   7.367  48.339  0.00  0.00    +0.000 A 
ENDBRANCH  10  12
ENDBRANCH   5   8
ENDBRANCH   1   2
BRANCH   1  18
ATOM     18  C   UNL     1      26.728   0.660  54.825  0.00  0.00    +0.000 C 
BRANCH  18  20
ATOM     19  C   UNL     1      29.061  -0.364  54.000  0.00  0.00    +0.000 C 
ATOM     20  C   UNL     1      28.003   0.056  54.385  0.00  0.00    +0.000 C 
ENDBRANCH  18  20
ENDBRANCH   1  18
BRANCH   1  21
ATOM     21  C   UNL     1      24.982  -0.696  53.708  0.00  0.00    +0.000 C 
BRANCH  21  22
ATOM     22  C   UNL     1      23.470  -0.585  53.664  0.00  0.00    +0.000 A 
ATOM     23  C   UNL     1      22.743  -1.059  54.767  0.00  0.00    +0.000 A 
ATOM     24  C   UNL     1      21.347  -1.126  54.742  0.00  0.00    +0.000 A 
ATOM     25  C   UNL     1      20.620  -0.727  53.632  0.00  0.00    +0.000 A 
ATOM     26  N   UNL     1      19.287  -0.873  53.634  0.00  0.00    +0.000 NA
ATOM     27  C   UNL     1      18.609  -0.490  52.537  0.00  0.00    +0.000 A 
ATOM     28  C   UNL     1      17.132  -0.752  52.520  0.00  0.00    +0.000 C 
ATOM     29  N   UNL     1      19.168   0.063  51.453  0.00  0.00    +0.000 NA
ATOM     30  C   UNL     1      20.500   0.190  51.496  0.00  0.00    +0.000 A 
ATOM     31  C   UNL     1      21.323  -0.209  52.543  0.00  0.00    +0.000 A 
ATOM     32  C   UNL     1      22.745  -0.142  52.550  0.00  0.00    +0.000 A 
BRANCH  30  33
ATOM     33  O   UNL     1      21.013   0.777  50.383  0.00  0.00    +0.000 OA
ATOM     34  H   UNL     1      21.923   0.999  50.348  0.00  0.00    +0.000 HD
ENDBRANCH  30  33
ENDBRANCH  21  22
ENDBRANCH   1  21
TORSDOF 8
ENDMDL
MODEL 4
REMARK VINA RESULT:    -8.685      6.473     11.079
REMARK INTER + INTRA:         -14.035
REMARK INTER:                 -12.883
REMARK INTRA:                  -1.153
REMARK UNBOUND:                -1.542
REMARK  Name = 
REMARK  9 active torsions:
REMARK  status: ('A' for Active; 'I' for Inactive)
REMARK    1  A    between atoms: C_2  and  C_3
REMARK    2  A    between atoms: C_3  and  N_4
REMARK    3  A    between atoms: N_4  and  C_5
REMARK    4  A    between atoms: N_4  and  C_18
REMARK    5  A    between atoms: C_5  and  C_6
REMARK    6  A    between atoms: C_11  and  C_12
REMARK    7  A    between atoms: C_14  and  O_15
REMARK    8  A    between atoms: C_21  and  C_22
REMARK    9  A    between atoms: N_24  and  C_25
REMARK                            x       y       z     vdW  Elec       q    Type
REMARK                         _______ _______ _______ _____ _____    ______ ____
ROOT
ATOM      1  N   UNL     1      18.774  -0.748  52.911  0.00  0.00    +0.000 N 
ENDROOT
BRANCH   1   2
ATOM      2  C   UNL     1      20.151  -0.545  52.845  0.00  0.00    +0.000 A 
ATOM      3  C   UNL     1      21.079  -1.150  53.710  0.00  0.00    +0.000 A 
ATOM      4  C   UNL     1      22.461  -0.855  53.669  0.00  0.00    +0.000 A 
ATOM      5  C   UNL     1      22.984   0.027  52.718  0.00  0.00    +0.000 A 
ATOM      6  C   UNL     1      22.094   0.582  51.806  0.00  0.00    +0.000 A 
ATOM      7  C   UNL     1      20.717   0.338  51.909  0.00  0.00    +0.000 A 
BRANCH   5   8
ATOM      8  C   UNL     1      24.436   0.416  52.788  0.00  0.00    +0.000 C 
ATOM      9  O   UNL     1      24.818   1.345  52.082  0.00  0.00    +0.000 OA
ATOM     10  N   UNL     1      25.239  -0.349  53.623  0.00  0.00    +0.000 N 
ATOM     11  H   UNL     1      24.769  -0.941  54.253  0.00  0.00    +0.000 HD
BRANCH  10  12
ATOM     12  C   UNL     1      26.650  -0.382  53.676  0.00  0.00    +0.000 A 
ATOM     13  C   UNL     1      27.436  -1.249  52.922  0.00  0.00    +0.000 A 
ATOM     14  C   UNL     1      28.815  -1.322  53.139  0.00  0.00    +0.000 A 
ATOM     15  C   UNL     1      29.422  -0.510  54.095  0.00  0.00    +0.000 A 
ATOM     16  C   UNL     1      28.655   0.404  54.811  0.00  0.00    +0.000 A 
ATOM     17  C   UNL     1      27.275   0.469  54.600  0.00  0.00    +0.000 A 
ENDBRANCH  10  12
ENDBRANCH   5   8
ENDBRANCH   1   2
BRANCH   1  18
ATOM     18  C   UNL     1      18.132  -1.502  54.003  0.00  0.00    +0.000 C 
BRANCH  18  20
ATOM     19  C   UNL     1      17.274  -3.908  53.199  0.00  0.00    +0.000 C 
ATOM     20  C   UNL     1      17.631  -2.810  53.532  0.00  0.00    +0.000 C 
ENDBRANCH  18  20
ENDBRANCH   1  18
BRANCH   1  21
ATOM     21  C   UNL     1      17.910  -0.533  51.734  0.00  0.00    +0.000 C 
BRANCH  21  22
ATOM     22  C   UNL     1      16.803   0.487  51.922  0.00  0.00    +0.000 A 
ATOM     23  C   UNL     1      17.031   1.796  51.472  0.00  0.00    +0.000 A 
ATOM     24  C   UNL     1      16.122   2.824  51.738  0.00  0.00    +0.000 A 
ATOM     25  C   UNL     1      14.957   2.596  52.454  0.00  0.00    +0.000 A 
ATOM     26  N   UNL     1      14.151   3.630  52.739  0.00  0.00    +0.000 NA
ATOM     27  C   UNL     1      13.034   3.381  53.448  0.00  0.00    +0.000 A 
ATOM     28  C   UNL     1      12.197   4.562  53.841  0.00  0.00    +0.000 C 
ATOM     29  N   UNL     1      12.650   2.166  53.858  0.00  0.00    +0.000 NA
ATOM     30  C   UNL     1      13.485   1.166  53.550  0.00  0.00    +0.000 A 
ATOM     31  C   UNL     1      14.690   1.291  52.869  0.00  0.00    +0.000 A 
ATOM     32  C   UNL     1      15.610   0.235  52.613  0.00  0.00    +0.000 A 
BRANCH  30  33
ATOM     33  O   UNL     1      13.037  -0.047  53.969  0.00  0.00    +0.000 OA
ATOM     34  H   UNL     1      12.369  -0.493  53.486  0.00  0.00    +0.000 HD
ENDBRANCH  30  33
ENDBRANCH  21  22
ENDBRANCH   1  21
TORSDOF 8
ENDMDL
MODEL 5
REMARK VINA RESULT:    -8.612      3.480      8.606
REMARK INTER + INTRA:         -13.930
REMARK INTER:                 -12.564
REMARK INTRA:                  -1.366
REMARK UNBOUND:                -1.542
REMARK  Name = 
REMARK  9 active torsions:
REMARK  status: ('A' for Active; 'I' for Inactive)
REMARK    1  A    between atoms: C_2  and  C_3
REMARK    2  A    between atoms: C_3  and  N_4
REMARK    3  A    between atoms: N_4  and  C_5
REMARK    4  A    between atoms: N_4  and  C_18
REMARK    5  A    between atoms: C_5  and  C_6
REMARK    6  A    between atoms: C_11  and  C_12
REMARK    7  A    between atoms: C_14  and  O_15
REMARK    8  A    between atoms: C_21  and  C_22
REMARK    9  A    between atoms: N_24  and  C_25
REMARK                            x       y       z     vdW  Elec       q    Type
REMARK                         _______ _______ _______ _____ _____    ______ ____
ROOT
ATOM      1  N   UNL     1      20.607   2.496  51.031  0.00  0.00    +0.000 N 
ENDROOT
BRANCH   1   2
ATOM      2  C   UNL     1      21.667   1.884  51.697  0.00  0.00    +0.000 A 
ATOM      3  C   UNL     1      22.881   2.525  52.001  0.00  0.00    +0.000 A 
ATOM      4  C   UNL     1      23.967   1.848  52.603  0.00  0.00    +0.000 A 
ATOM      5  C   UNL     1      23.865   0.503  52.974  0.00  0.00    +0.000 A 
ATOM      6  C   UNL     1      22.649  -0.130  52.747  0.00  0.00    +0.000 A 
ATOM      7  C   UNL     1      21.609   0.533  52.081  0.00  0.00    +0.000 A 
BRANCH   5   8
ATOM      8  C   UNL     1      25.082  -0.217  53.490  0.00  0.00    +0.000 C 
ATOM      9  O   UNL     1      25.073  -0.602  54.655  0.00  0.00    +0.000 OA
ATOM     10  N   UNL     1      26.142  -0.347  52.603  0.00  0.00    +0.000 N 
ATOM     11  H   UNL     1      25.945  -0.150  51.660  0.00  0.00    +0.000 HD
BRANCH  10  12
ATOM     12  C   UNL     1      27.471  -0.727  52.893  0.00  0.00    +0.000 A 
ATOM     13  C   UNL     1      27.935  -2.039  52.838  0.00  0.00    +0.000 A 
ATOM     14  C   UNL     1      29.223  -2.352  53.281  0.00  0.00    +0.000 A 
ATOM     15  C   UNL     1      30.067  -1.351  53.759  0.00  0.00    +0.000 A 
ATOM     16  C   UNL     1      29.636  -0.028  53.761  0.00  0.00    +0.000 A 
ATOM     17  C   UNL     1      28.345   0.283  53.328  0.00  0.00    +0.000 A 
ENDBRANCH  10  12
ENDBRANCH   5   8
ENDBRANCH   1   2
BRANCH   1  18
ATOM     18  C   UNL     1      20.201   2.120  49.665  0.00  0.00    +0.000 C 
BRANCH  18  20
ATOM     19  C   UNL     1      22.324   2.194  48.034  0.00  0.00    +0.000 C 
ATOM     20  C   UNL     1      21.352   2.133  48.738  0.00  0.00    +0.000 C 
ENDBRANCH  18  20
ENDBRANCH   1  18
BRANCH   1  21
ATOM     21  C   UNL     1      20.051   3.782  51.495  0.00  0.00    +0.000 C 
BRANCH  21  22
ATOM     22  C   UNL     1      20.703   5.019  50.907  0.00  0.00    +0.000 A 
ATOM     23  C   UNL     1      20.121   5.591  49.766  0.00  0.00    +0.000 A 
ATOM     24  C   UNL     1      20.742   6.640  49.082  0.00  0.00    +0.000 A 
ATOM     25  C   UNL     1      21.956   7.162  49.501  0.00  0.00    +0.000 A 
ATOM     26  N   UNL     1      22.542   8.124  48.772  0.00  0.00    +0.000 NA
ATOM     27  C   UNL     1      23.726   8.602  49.195  0.00  0.00    +0.000 A 
ATOM     28  C   UNL     1      24.412   9.605  48.316  0.00  0.00    +0.000 C 
ATOM     29  N   UNL     1      24.346   8.212  50.316  0.00  0.00    +0.000 NA
ATOM     30  C   UNL     1      23.724   7.252  51.011  0.00  0.00    +0.000 A 
ATOM     31  C   UNL     1      22.527   6.639  50.662  0.00  0.00    +0.000 A 
ATOM     32  C   UNL     1      21.911   5.564  51.365  0.00  0.00    +0.000 A 
BRANCH  30  33
ATOM     33  O   UNL     1      24.383   6.910  52.149  0.00  0.00    +0.000 OA
ATOM     34  H   UNL     1      23.990   6.315  52.758  0.00  0.00    +0.000 HD
ENDBRANCH  30  33
ENDBRANCH  21  22
ENDBRANCH   1  21
TORSDOF 8
ENDMDL
MODEL 6
REMARK VINA RESULT:    -8.255      4.092     10.518
REMARK INTER + INTRA:         -13.416
REMARK INTER:                 -12.638
REMARK INTRA:                  -0.778
REMARK UNBOUND:                -1.542
REMARK  Name = 
REMARK  9 active torsions:
REMARK  status: ('A' for Active; 'I' for Inactive)
REMARK    1  A    between atoms: C_2  and  C_3
REMARK    2  A    between atoms: C_3  and  N_4
REMARK    3  A    between atoms: N_4  and  C_5
REMARK    4  A    between atoms: N_4  and  C_18
REMARK    5  A    between atoms: C_5  and  C_6
REMARK    6  A    between atoms: C_11  and  C_12
REMARK    7  A    between atoms: C_14  and  O_15
REMARK    8  A    between atoms: C_21  and  C_22
REMARK    9  A    between atoms: N_24  and  C_25
REMARK                            x       y       z     vdW  Elec       q    Type
REMARK                         _______ _______ _______ _____ _____    ______ ____
ROOT
ATOM      1  N   UNL     1      25.493   1.463  52.523  0.00  0.00    +0.000 N 
ENDROOT
BRANCH   1   2
ATOM      2  C   UNL     1      24.319   0.843  52.948  0.00  0.00    +0.000 A 
ATOM      3  C   UNL     1      24.286  -0.328  53.726  0.00  0.00    +0.000 A 
ATOM      4  C   UNL     1      23.077  -0.978  54.067  0.00  0.00    +0.000 A 
ATOM      5  C   UNL     1      21.840  -0.452  53.684  0.00  0.00    +0.000 A 
ATOM      6  C   UNL     1      21.847   0.744  52.975  0.00  0.00    +0.000 A 
ATOM      7  C   UNL     1      23.056   1.335  52.580  0.00  0.00    +0.000 A 
BRANCH   5   8
ATOM      8  C   UNL     1      20.585  -1.238  53.952  0.00  0.00    +0.000 C 
ATOM      9  O   UNL     1      20.673  -2.244  54.649  0.00  0.00    +0.000 OA
ATOM     10  N   UNL     1      19.427  -0.776  53.342  0.00  0.00    +0.000 N 
ATOM     11  H   UNL     1      19.470   0.130  52.961  0.00  0.00    +0.000 HD
BRANCH  10  12
ATOM     12  C   UNL     1      18.194  -1.451  53.201  0.00  0.00    +0.000 A 
ATOM     13  C   UNL     1      17.952  -2.736  53.679  0.00  0.00    +0.000 A 
ATOM     14  C   UNL     1      16.755  -3.390  53.371  0.00  0.00    +0.000 A 
ATOM     15  C   UNL     1      15.782  -2.755  52.603  0.00  0.00    +0.000 A 
ATOM     16  C   UNL     1      15.988  -1.449  52.171  0.00  0.00    +0.000 A 
ATOM     17  C   UNL     1      17.188  -0.798  52.471  0.00  0.00    +0.000 A 
ENDBRANCH  10  12
ENDBRANCH   5   8
ENDBRANCH   1   2
BRANCH   1  18
ATOM     18  C   UNL     1      26.279   2.359  53.390  0.00  0.00    +0.000 C 
BRANCH  18  20
ATOM     19  C   UNL     1      28.829   1.582  53.649  0.00  0.00    +0.000 C 
ATOM     20  C   UNL     1      27.684   1.913  53.493  0.00  0.00    +0.000 C 
ENDBRANCH  18  20
ENDBRANCH   1  18
BRANCH   1  21
ATOM     21  C   UNL     1      25.839   1.550  51.091  0.00  0.00    +0.000 C 
BRANCH  21  22
ATOM     22  C   UNL     1      25.723   2.933  50.480  0.00  0.00    +0.000 A 
ATOM     23  C   UNL     1      24.441   3.485  50.338  0.00  0.00    +0.000 A 
ATOM     24  C   UNL     1      24.240   4.688  49.654  0.00  0.00    +0.000 A 
ATOM     25  C   UNL     1      25.295   5.387  49.089  0.00  0.00    +0.000 A 
ATOM     26  N   UNL     1      25.041   6.501  48.386  0.00  0.00    +0.000 NA
ATOM     27  C   UNL     1      26.083   7.152  47.838  0.00  0.00    +0.000 A 
ATOM     28  C   UNL     1      25.771   8.338  46.975  0.00  0.00    +0.000 C 
ATOM     29  N   UNL     1      27.364   6.786  47.974  0.00  0.00    +0.000 NA
ATOM     30  C   UNL     1      27.569   5.670  48.684  0.00  0.00    +0.000 A 
ATOM     31  C   UNL     1      26.583   4.878  49.261  0.00  0.00    +0.000 A 
ATOM     32  C   UNL     1      26.803   3.651  49.948  0.00  0.00    +0.000 A 
BRANCH  30  33
ATOM     33  O   UNL     1      28.886   5.357  48.812  0.00  0.00    +0.000 OA
ATOM     34  H   UNL     1      29.208   4.543  48.477  0.00  0.00    +0.000 HD
ENDBRANCH  30  33
ENDBRANCH  21  22
ENDBRANCH   1  21
TORSDOF 8
ENDMDL
MODEL 7
REMARK VINA RESULT:    -8.136      4.639      8.875
REMARK INTER + INTRA:         -13.246
REMARK INTER:                 -12.130
REMARK INTRA:                  -1.115
REMARK UNBOUND:                -1.542
REMARK  Name = 
REMARK  9 active torsions:
REMARK  status: ('A' for Active; 'I' for Inactive)
REMARK    1  A    between atoms: C_2  and  C_3
REMARK    2  A    between atoms: C_3  and  N_4
REMARK    3  A    between atoms: N_4  and  C_5
REMARK    4  A    between atoms: N_4  and  C_18
REMARK    5  A    between atoms: C_5  and  C_6
REMARK    6  A    between atoms: C_11  and  C_12
REMARK    7  A    between atoms: C_14  and  O_15
REMARK    8  A    between atoms: C_21  and  C_22
REMARK    9  A    between atoms: N_24  and  C_25
REMARK                            x       y       z     vdW  Elec       q    Type
REMARK                         _______ _______ _______ _____ _____    ______ ____
ROOT
ATOM      1  N   UNL     1      23.109   3.092  51.619  0.00  0.00    +0.000 N 
ENDROOT
BRANCH   1   2
ATOM      2  C   UNL     1      21.722   2.956  51.573  0.00  0.00    +0.000 A 
ATOM      3  C   UNL     1      20.850   3.948  51.094  0.00  0.00    +0.000 A 
ATOM      4  C   UNL     1      19.444   3.811  51.140  0.00  0.00    +0.000 A 
ATOM      5  C   UNL     1      18.847   2.643  51.626  0.00  0.00    +0.000 A 
ATOM      6  C   UNL     1      19.693   1.620  52.039  0.00  0.00    +0.000 A 
ATOM      7  C   UNL     1      21.083   1.802  52.058  0.00  0.00    +0.000 A 
BRANCH   5   8
ATOM      8  C   UNL     1      17.352   2.584  51.782  0.00  0.00    +0.000 C 
ATOM      9  O   UNL     1      16.771   1.573  51.399  0.00  0.00    +0.000 OA
ATOM     10  N   UNL     1      16.743   3.713  52.313  0.00  0.00    +0.000 N 
ATOM     11  H   UNL     1      17.342   4.371  52.734  0.00  0.00    +0.000 HD
BRANCH  10  12
ATOM     12  C   UNL     1      15.368   4.033  52.321  0.00  0.00    +0.000 A 
ATOM     13  C   UNL     1      14.607   4.167  53.479  0.00  0.00    +0.000 A 
ATOM     14  C   UNL     1      13.222   4.339  53.398  0.00  0.00    +0.000 A 
ATOM     15  C   UNL     1      12.591   4.405  52.158  0.00  0.00    +0.000 A 
ATOM     16  C   UNL     1      13.349   4.334  50.994  0.00  0.00    +0.000 A 
ATOM     17  C   UNL     1      14.732   4.152  51.075  0.00  0.00    +0.000 A 
ENDBRANCH  10  12
ENDBRANCH   5   8
ENDBRANCH   1   2
BRANCH   1  18
ATOM     18  C   UNL     1      23.958   3.011  50.417  0.00  0.00    +0.000 C 
BRANCH  18  20
ATOM     19  C   UNL     1      24.908   5.435  49.791  0.00  0.00    +0.000 C 
ATOM     20  C   UNL     1      24.471   4.341  50.030  0.00  0.00    +0.000 C 
ENDBRANCH  18  20
ENDBRANCH   1  18
BRANCH   1  21
ATOM     21  C   UNL     1      23.848   2.975  52.891  0.00  0.00    +0.000 C 
BRANCH  21  22
ATOM     22  C   UNL     1      24.997   1.985  52.884  0.00  0.00    +0.000 A 
ATOM     23  C   UNL     1      24.687   0.618  52.839  0.00  0.00    +0.000 A 
ATOM     24  C   UNL     1      25.680  -0.357  52.976  0.00  0.00    +0.000 A 
ATOM     25  C   UNL     1      27.011  -0.016  53.160  0.00  0.00    +0.000 A 
ATOM     26  N   UNL     1      27.915  -0.989  53.353  0.00  0.00    +0.000 NA
ATOM     27  C   UNL     1      29.198  -0.628  53.543  0.00  0.00    +0.000 A 
ATOM     28  C   UNL     1      30.176  -1.721  53.854  0.00  0.00    +0.000 C 
ATOM     29  N   UNL     1      29.643   0.634  53.517  0.00  0.00    +0.000 NA
ATOM     30  C   UNL     1      28.706   1.570  53.321  0.00  0.00    +0.000 A 
ATOM     31  C   UNL     1      27.345   1.338  53.161  0.00  0.00    +0.000 A 
ATOM     32  C   UNL     1      26.344   2.343  53.031  0.00  0.00    +0.000 A 
BRANCH  30  33
ATOM     33  O   UNL     1      29.214   2.830  53.281  0.00  0.00    +0.000 OA
ATOM     34  H   UNL     1      29.333   3.313  54.075  0.00  0.00    +0.000 HD
ENDBRANCH  30  33
ENDBRANCH  21  22
ENDBRANCH   1  21
TORSDOF 8
ENDMDL
MODEL 8
REMARK VINA RESULT:    -7.925      1.605      2.043
REMARK INTER + INTRA:         -12.942
REMARK INTER:                 -11.939
REMARK INTRA:                  -1.003
REMARK UNBOUND:                -1.542
REMARK  Name = 
REMARK  9 active torsions:
REMARK  status: ('A' for Active; 'I' for Inactive)
REMARK    1  A    between atoms: C_2  and  C_3
REMARK    2  A    between atoms: C_3  and  N_4
REMARK    3  A    between atoms: N_4  and  C_5
REMARK    4  A    between atoms: N_4  and  C_18
REMARK    5  A    between atoms: C_5  and  C_6
REMARK    6  A    between atoms: C_11  and  C_12
REMARK    7  A    between atoms: C_14  and  O_15
REMARK    8  A    between atoms: C_21  and  C_22
REMARK    9  A    between atoms: N_24  and  C_25
REMARK                            x       y       z     vdW  Elec       q    Type
REMARK                         _______ _______ _______ _____ _____    ______ ____
ROOT
ATOM      1  N   UNL     1      23.022   2.560  51.036  0.00  0.00    +0.000 N 
ENDROOT
BRANCH   1   2
ATOM      2  C   UNL     1      23.790   3.640  50.604  0.00  0.00    +0.000 A 
ATOM      3  C   UNL     1      24.822   3.541  49.654  0.00  0.00    +0.000 A 
ATOM      4  C   UNL     1      25.638   4.640  49.301  0.00  0.00    +0.000 A 
ATOM      5  C   UNL     1      25.420   5.908  49.852  0.00  0.00    +0.000 A 
ATOM      6  C   UNL     1      24.359   6.044  50.740  0.00  0.00    +0.000 A 
ATOM      7  C   UNL     1      23.609   4.927  51.136  0.00  0.00    +0.000 A 
BRANCH   5   8
ATOM      8  C   UNL     1      26.388   7.021  49.553  0.00  0.00    +0.000 C 
ATOM      9  O   UNL     1      26.027   8.173  49.775  0.00  0.00    +0.000 OA
ATOM     10  N   UNL     1      27.607   6.647  49.004  0.00  0.00    +0.000 N 
ATOM     11  H   UNL     1      27.824   5.688  49.046  0.00  0.00    +0.000 HD
BRANCH  10  12
ATOM     12  C   UNL     1      28.571   7.476  48.390  0.00  0.00    +0.000 A 
ATOM     13  C   UNL     1      29.926   7.463  48.712  0.00  0.00    +0.000 A 
ATOM     14  C   UNL     1      30.791   8.416  48.166  0.00  0.00    +0.000 A 
ATOM     15  C   UNL     1      30.312   9.373  47.274  0.00  0.00    +0.000 A 
ATOM     16  C   UNL     1      28.973   9.358  46.899  0.00  0.00    +0.000 A 
ATOM     17  C   UNL     1      28.107   8.412  47.452  0.00  0.00    +0.000 A 
ENDBRANCH  10  12
ENDBRANCH   5   8
ENDBRANCH   1   2
BRANCH   1  18
ATOM     18  C   UNL     1      21.887   2.029  50.261  0.00  0.00    +0.000 C 
BRANCH  18  20
ATOM     19  C   UNL     1      22.339   2.165  47.625  0.00  0.00    +0.000 C 
ATOM     20  C   UNL     1      22.161   2.068  48.810  0.00  0.00    +0.000 C 
ENDBRANCH  18  20
ENDBRANCH   1  18
BRANCH   1  21
ATOM     21  C   UNL     1      23.063   2.104  52.439  0.00  0.00    +0.000 C 
BRANCH  21  22
ATOM     22  C   UNL     1      24.421   1.639  52.929  0.00  0.00    +0.000 A 
ATOM     23  C   UNL     1      25.211   2.553  53.643  0.00  0.00    +0.000 A 
ATOM     24  C   UNL     1      26.529   2.250  54.000  0.00  0.00    +0.000 A 
ATOM     25  C   UNL     1      27.110   1.037  53.668  0.00  0.00    +0.000 A 
ATOM     26  N   UNL     1      28.398   0.822  53.976  0.00  0.00    +0.000 NA
ATOM     27  C   UNL     1      28.940  -0.360  53.629  0.00  0.00    +0.000 A 
ATOM     28  C   UNL     1      30.405  -0.544  53.893  0.00  0.00    +0.000 C 
ATOM     29  N   UNL     1      28.274  -1.354  53.029  0.00  0.00    +0.000 NA
ATOM     30  C   UNL     1      26.993  -1.095  52.742  0.00  0.00    +0.000 A 
ATOM     31  C   UNL     1      26.325   0.096  52.999  0.00  0.00    +0.000 A 
ATOM     32  C   UNL     1      24.984   0.393  52.622  0.00  0.00    +0.000 A 
BRANCH  30  33
ATOM     33  O   UNL     1      26.357  -2.144  52.156  0.00  0.00    +0.000 OA
ATOM     34  H   UNL     1      25.451  -2.074  51.928  0.00  0.00    +0.000 HD
ENDBRANCH  30  33
ENDBRANCH  21  22
ENDBRANCH   1  21
TORSDOF 8
ENDMDL
MODEL 9
REMARK VINA RESULT:    -7.884      4.874     10.818
REMARK INTER + INTRA:         -12.882
REMARK INTER:                 -11.368
REMARK INTRA:                  -1.514
REMARK UNBOUND:                -1.542
REMARK  Name = 
REMARK  9 active torsions:
REMARK  status: ('A' for Active; 'I' for Inactive)
REMARK    1  A    between atoms: C_2  and  C_3
REMARK    2  A    between atoms: C_3  and  N_4
REMARK    3  A    between atoms: N_4  and  C_5
REMARK    4  A    between atoms: N_4  and  C_18
REMARK    5  A    between atoms: C_5  and  C_6
REMARK    6  A    between atoms: C_11  and  C_12
REMARK    7  A    between atoms: C_14  and  O_15
REMARK    8  A    between atoms: C_21  and  C_22
REMARK    9  A    between atoms: N_24  and  C_25
REMARK                            x       y       z     vdW  Elec       q    Type
REMARK                         _______ _______ _______ _____ _____    ______ ____
ROOT
ATOM      1  N   UNL     1      23.842   0.508  53.185  0.00  0.00    +0.000 N 
ENDROOT
BRANCH   1   2
ATOM      2  C   UNL     1      22.498   0.420  52.828  0.00  0.00    +0.000 A 
ATOM      3  C   UNL     1      21.452   0.218  53.745  0.00  0.00    +0.000 A 
ATOM      4  C   UNL     1      20.108   0.048  53.340  0.00  0.00    +0.000 A 
ATOM      5  C   UNL     1      19.745   0.125  51.991  0.00  0.00    +0.000 A 
ATOM      6  C   UNL     1      20.753   0.394  51.073  0.00  0.00    +0.000 A 
ATOM      7  C   UNL     1      22.091   0.484  51.485  0.00  0.00    +0.000 A 
BRANCH   5   8
ATOM      8  C   UNL     1      18.330  -0.191  51.586  0.00  0.00    +0.000 C 
ATOM      9  O   UNL     1      17.988   0.069  50.436  0.00  0.00    +0.000 OA
ATOM     10  N   UNL     1      17.508  -0.715  52.574  0.00  0.00    +0.000 N 
ATOM     11  H   UNL     1      17.960  -1.031  53.390  0.00  0.00    +0.000 HD
BRANCH  10  12
ATOM     12  C   UNL     1      16.103  -0.847  52.552  0.00  0.00    +0.000 A 
ATOM     13  C   UNL     1      15.220   0.173  52.901  0.00  0.00    +0.000 A 
ATOM     14  C   UNL     1      13.849  -0.082  52.996  0.00  0.00    +0.000 A 
ATOM     15  C   UNL     1      13.347  -1.352  52.717  0.00  0.00    +0.000 A 
ATOM     16  C   UNL     1      14.212  -2.361  52.308  0.00  0.00    +0.000 A 
ATOM     17  C   UNL     1      15.584  -2.109  52.223  0.00  0.00    +0.000 A 
ENDBRANCH  10  12
ENDBRANCH   5   8
ENDBRANCH   1   2
BRANCH   1  18
ATOM     18  C   UNL     1      24.615  -0.650  53.669  0.00  0.00    +0.000 C 
BRANCH  18  20
ATOM     19  C   UNL     1      27.030  -0.748  52.517  0.00  0.00    +0.000 C 
ATOM     20  C   UNL     1      25.932  -0.734  53.005  0.00  0.00    +0.000 C 
ENDBRANCH  18  20
ENDBRANCH   1  18
BRANCH   1  21
ATOM     21  C   UNL     1      24.484   1.812  53.438  0.00  0.00    +0.000 C 
BRANCH  21  22
ATOM     22  C   UNL     1      24.547   2.745  52.244  0.00  0.00    +0.000 A 
ATOM     23  C   UNL     1      25.480   2.462  51.236  0.00  0.00    +0.000 A 
ATOM     24  C   UNL     1      25.700   3.350  50.179  0.00  0.00    +0.000 A 
ATOM     25  C   UNL     1      25.006   4.546  50.079  0.00  0.00    +0.000 A 
ATOM     26  N   UNL     1      25.301   5.393  49.082  0.00  0.00    +0.000 NA
ATOM     27  C   UNL     1      24.621   6.552  49.018  0.00  0.00    +0.000 A 
ATOM     28  C   UNL     1      25.033   7.528  47.956  0.00  0.00    +0.000 C 
ATOM     29  N   UNL     1      23.642   6.905  49.859  0.00  0.00    +0.000 NA
ATOM     30  C   UNL     1      23.381   6.029  50.837  0.00  0.00    +0.000 A 
ATOM     31  C   UNL     1      24.039   4.823  51.046  0.00  0.00    +0.000 A 
ATOM     32  C   UNL     1      23.810   3.932  52.133  0.00  0.00    +0.000 A 
BRANCH  30  33
ATOM     33  O   UNL     1      22.365   6.425  51.648  0.00  0.00    +0.000 OA
ATOM     34  H   UNL     1      22.306   7.319  51.923  0.00  0.00    +0.000 HD
ENDBRANCH  30  33
ENDBRANCH  21  22
ENDBRANCH   1  21
TORSDOF 8
ENDMDL
