MODEL 1
REMARK VINA RESULT:    -8.419      0.000      0.000
REMARK INTER + INTRA:         -10.309
REMARK INTER:                  -9.896
REMARK INTRA:                  -0.414
REMARK UNBOUND:                -0.414
REMARK  Name = 
REMARK  4 active torsions:
REMARK  status: ('A' for Active; 'I' for Inactive)
REMARK    1  A    between atoms: C_1  and  C_2
REMARK    2  A    between atoms: C_2  and  N_3
REMARK    3  A    between atoms: N_3  and  C_4
REMARK    4  A    between atoms: C_14  and  C_16
REMARK                            x       y       z     vdW  Elec       q    Type
REMARK                         _______ _______ _______ _____ _____    ______ ____
ROOT
ATOM      1  C   UNL     1      21.765   0.228  53.760  0.00  0.00    +0.000 A 
ATOM      2  C   UNL     1      21.611  -0.726  54.767  0.00  0.00    +0.000 A 
ATOM      3  C   UNL     1      22.726  -1.376  55.284  0.00  0.00    +0.000 A 
ATOM      4  C   UNL     1      23.968  -1.081  54.756  0.00  0.00    +0.000 A 
ATOM      5  N   UNL     1      24.167  -0.196  53.757  0.00  0.00    +0.000 NA
ATOM      6  C   UNL     1      23.079   0.426  53.246  0.00  0.00    +0.000 A 
ATOM      7  N   UNL     1      23.265   1.417  52.274  0.00  0.00    +0.000 N 
ATOM      8  C   UNL     1      24.615   1.971  52.179  0.00  0.00    +0.000 C 
ATOM      9  C   UNL     1      24.495   3.353  51.513  0.00  0.00    +0.000 C 
ATOM     10  N   UNL     1      23.715   3.350  50.253  0.00  0.00    +0.000 N 
ATOM     11  C   UNL     1      23.858   4.241  49.188  0.00  0.00    +0.000 C 
ATOM     12  O   UNL     1      23.103   4.210  48.210  0.00  0.00    +0.000 OA
ATOM     13  C   UNL     1      22.489   2.522  50.268  0.00  0.00    +0.000 C 
ATOM     14  C   UNL     1      22.707   1.152  50.936  0.00  0.00    +0.000 C 
ENDROOT
BRANCH  11  15
ATOM     15  C   UNL     1      24.948   5.235  49.139  0.00  0.00    +0.000 A 
ATOM     16  C   UNL     1      24.609   6.579  49.244  0.00  0.00    +0.000 A 
ATOM     17  N   UNL     1      25.512   7.590  49.244  0.00  0.00    +0.000 NA
ATOM     18  C   UNL     1      26.788   7.279  48.975  0.00  0.00    +0.000 A 
ATOM     19  C   UNL     1      27.716   8.291  48.812  0.00  0.00    +0.000 A 
ATOM     20  C   UNL     1      28.936   8.046  48.181  0.00  0.00    +0.000 A 
ATOM     21  C   UNL     1      29.316   6.740  47.887  0.00  0.00    +0.000 A 
ATOM     22  C   UNL     1      28.499   5.683  48.277  0.00  0.00    +0.000 A 
ATOM     23  C   UNL     1      27.216   5.952  48.775  0.00  0.00    +0.000 A 
ATOM     24  C   UNL     1      26.296   4.926  49.009  0.00  0.00    +0.000 A 
ENDBRANCH  11  15
BRANCH   1  25
ATOM     25  N   UNL     1      20.684   0.937  53.192  0.00  0.00    +0.000 N 
ATOM     26  H   UNL     1      20.769   1.903  53.027  0.00  0.00    +0.000 HD
BRANCH  25  28
ATOM     27  C   UNL     1      19.203   0.426  51.358  0.00  0.00    +0.000 C 
ATOM     28  C   UNL     1      19.452   0.253  52.849  0.00  0.00    +0.000 C 
ENDBRANCH  25  28
ENDBRANCH   1  25
TORSDOF 3
ENDMDL
MODEL 2
REMARK VINA RESULT:    -8.269      2.902      8.255
REMARK INTER + INTRA:         -10.133
REMARK INTER:                 -10.213
REMARK INTRA:                   0.081
REMARK UNBOUND:                -0.414
REMARK  Name = 
REMARK  4 active torsions:
REMARK  status: ('A' for Active; 'I' for Inactive)
REMARK    1  A    between atoms: C_1  and  C_2
REMARK    2  A    between atoms: C_2  and  N_3
REMARK    3  A    between atoms: N_3  and  C_4
REMARK    4  A    between atoms: C_14  and  C_16
REMARK                            x       y       z     vdW  Elec       q    Type
REMARK                         _______ _______ _______ _____ _____    ______ ____
ROOT
ATOM      1  C   UNL     1      27.402   1.988  52.819  0.00  0.00    +0.000 A 
ATOM      2  C   UNL     1      28.680   1.627  53.248  0.00  0.00    +0.000 A 
ATOM      3  C   UNL     1      28.837   0.618  54.191  0.00  0.00    +0.000 A 
ATOM      4  C   UNL     1      27.706   0.016  54.710  0.00  0.00    +0.000 A 
ATOM      5  N   UNL     1      26.448   0.354  54.357  0.00  0.00    +0.000 NA
ATOM      6  C   UNL     1      26.298   1.346  53.449  0.00  0.00    +0.000 A 
ATOM      7  N   UNL     1      25.009   1.652  52.995  0.00  0.00    +0.000 N 
ATOM      8  C   UNL     1      23.989   0.631  53.233  0.00  0.00    +0.000 C 
ATOM      9  C   UNL     1      22.855   0.874  52.221  0.00  0.00    +0.000 C 
ATOM     10  N   UNL     1      22.365   2.271  52.188  0.00  0.00    +0.000 N 
ATOM     11  C   UNL     1      21.085   2.692  51.821  0.00  0.00    +0.000 C 
ATOM     12  O   UNL     1      20.793   3.890  51.745  0.00  0.00    +0.000 OA
ATOM     13  C   UNL     1      23.413   3.313  52.259  0.00  0.00    +0.000 C 
ATOM     14  C   UNL     1      24.494   2.997  53.309  0.00  0.00    +0.000 C 
ENDROOT
BRANCH  11  15
ATOM     15  C   UNL     1      19.992   1.736  51.556  0.00  0.00    +0.000 A 
ATOM     16  C   UNL     1      19.153   1.990  50.477  0.00  0.00    +0.000 A 
ATOM     17  N   UNL     1      18.133   1.179  50.105  0.00  0.00    +0.000 NA
ATOM     18  C   UNL     1      17.826   0.158  50.918  0.00  0.00    +0.000 A 
ATOM     19  C   UNL     1      16.700  -0.603  50.663  0.00  0.00    +0.000 A 
ATOM     20  C   UNL     1      16.145  -1.412  51.654  0.00  0.00    +0.000 A 
ATOM     21  C   UNL     1      16.831  -1.618  52.848  0.00  0.00    +0.000 A 
ATOM     22  C   UNL     1      18.093  -1.058  53.018  0.00  0.00    +0.000 A 
ATOM     23  C   UNL     1      18.570  -0.133  52.079  0.00  0.00    +0.000 A 
ATOM     24  C   UNL     1      19.747   0.588  52.299  0.00  0.00    +0.000 A 
ENDBRANCH  11  15
BRANCH   1  25
ATOM     25  N   UNL     1      27.162   2.994  51.858  0.00  0.00    +0.000 N 
ATOM     26  H   UNL     1      27.270   3.940  52.105  0.00  0.00    +0.000 HD
BRANCH  25  28
ATOM     27  C   UNL     1      26.399   3.922  49.766  0.00  0.00    +0.000 C 
ATOM     28  C   UNL     1      26.760   2.644  50.508  0.00  0.00    +0.000 C 
ENDBRANCH  25  28
ENDBRANCH   1  25
TORSDOF 3
ENDMDL
MODEL 3
REMARK VINA RESULT:    -7.985      2.007      9.045
REMARK INTER + INTRA:          -9.799
REMARK INTER:                  -9.863
REMARK INTRA:                   0.063
REMARK UNBOUND:                -0.414
REMARK  Name = 
REMARK  4 active torsions:
REMARK  status: ('A' for Active; 'I' for Inactive)
REMARK    1  A    between atoms: C_1  and  C_2
REMARK    2  A    between atoms: C_2  and  N_3
REMARK    3  A    between atoms: N_3  and  C_4
REMARK    4  A    between atoms: C_14  and  C_16
REMARK                            x       y       z     vdW  Elec       q    Type
REMARK                         _______ _______ _______ _____ _____    ______ ____
ROOT
ATOM      1  C   UNL     1      25.914   7.205  48.777  0.00  0.00    +0.000 A 
ATOM      2  C   UNL     1      25.640   8.354  48.034  0.00  0.00    +0.000 A 
ATOM      3  C   UNL     1      24.412   8.491  47.395  0.00  0.00    +0.000 A 
ATOM      4  C   UNL     1      23.499   7.458  47.487  0.00  0.00    +0.000 A 
ATOM      5  N   UNL     1      23.729   6.312  48.161  0.00  0.00    +0.000 NA
ATOM      6  C   UNL     1      24.930   6.175  48.771  0.00  0.00    +0.000 A 
ATOM      7  N   UNL     1      25.160   5.037  49.555  0.00  0.00    +0.000 N 
ATOM      8  C   UNL     1      23.969   4.297  49.969  0.00  0.00    +0.000 C 
ATOM      9  C   UNL     1      24.350   3.479  51.216  0.00  0.00    +0.000 C 
ATOM     10  N   UNL     1      25.581   2.671  51.054  0.00  0.00    +0.000 N 
ATOM     11  C   UNL     1      25.890   1.488  51.727  0.00  0.00    +0.000 C 
ATOM     12  O   UNL     1      26.982   0.926  51.586  0.00  0.00    +0.000 OA
ATOM     13  C   UNL     1      26.693   3.344  50.347  0.00  0.00    +0.000 C 
ATOM     14  C   UNL     1      26.222   4.121  49.104  0.00  0.00    +0.000 C 
ENDROOT
BRANCH  11  15
ATOM     15  C   UNL     1      24.915   0.807  52.602  0.00  0.00    +0.000 A 
ATOM     16  C   UNL     1      25.406  -0.052  53.578  0.00  0.00    +0.000 A 
ATOM     17  N   UNL     1      24.625  -0.715  54.466  0.00  0.00    +0.000 NA
ATOM     18  C   UNL     1      23.297  -0.652  54.288  0.00  0.00    +0.000 A 
ATOM     19  C   UNL     1      22.467  -1.433  55.071  0.00  0.00    +0.000 A 
ATOM     20  C   UNL     1      21.149  -1.680  54.688  0.00  0.00    +0.000 A 
ATOM     21  C   UNL     1      20.593  -0.983  53.619  0.00  0.00    +0.000 A 
ATOM     22  C   UNL     1      21.343  -0.002  52.976  0.00  0.00    +0.000 A 
ATOM     23  C   UNL     1      22.707   0.130  53.276  0.00  0.00    +0.000 A 
ATOM     24  C   UNL     1      23.538   0.973  52.533  0.00  0.00    +0.000 A 
ENDBRANCH  11  15
BRANCH   1  25
ATOM     25  N   UNL     1      27.130   6.997  49.462  0.00  0.00    +0.000 N 
ATOM     26  H   UNL     1      27.124   6.566  50.347  0.00  0.00    +0.000 HD
BRANCH  25  28
ATOM     27  C   UNL     1      28.820   6.359  47.863  0.00  0.00    +0.000 C 
ATOM     28  C   UNL     1      28.389   7.413  48.873  0.00  0.00    +0.000 C 
ENDBRANCH  25  28
ENDBRANCH   1  25
TORSDOF 3
ENDMDL
MODEL 4
REMARK VINA RESULT:    -7.907      3.903      5.998
REMARK INTER + INTRA:          -9.708
REMARK INTER:                  -9.664
REMARK INTRA:                  -0.044
REMARK UNBOUND:                -0.414
REMARK  Name = 
REMARK  4 active torsions:
REMARK  status: ('A' for Active; 'I' for Inactive)
REMARK    1  A    between atoms: C_1  and  C_2
REMARK    2  A    between atoms: C_2  and  N_3
REMARK    3  A    between atoms: N_3  and  C_4
REMARK    4  A    between atoms: C_14  and  C_16
REMARK                            x       y       z     vdW  Elec       q    Type
REMARK                         _______ _______ _______ _____ _____    ______ ____
ROOT
ATOM      1  C   UNL     1      18.741   2.121  51.656  0.00  0.00    +0.000 A 
ATOM      2  C   UNL     1      17.384   1.813  51.760  0.00  0.00    +0.000 A 
ATOM      3  C   UNL     1      16.980   0.489  51.901  0.00  0.00    +0.000 A 
ATOM      4  C   UNL     1      17.945  -0.500  51.898  0.00  0.00    +0.000 A 
ATOM      5  N   UNL     1      19.266  -0.259  51.762  0.00  0.00    +0.000 NA
ATOM      6  C   UNL     1      19.655   1.029  51.612  0.00  0.00    +0.000 A 
ATOM      7  N   UNL     1      21.025   1.317  51.564  0.00  0.00    +0.000 N 
ATOM      8  C   UNL     1      21.914   0.272  52.069  0.00  0.00    +0.000 C 
ATOM      9  C   UNL     1      23.242   0.948  52.452  0.00  0.00    +0.000 C 
ATOM     10  N   UNL     1      23.808   1.811  51.389  0.00  0.00    +0.000 N 
ATOM     11  C   UNL     1      25.158   2.114  51.199  0.00  0.00    +0.000 C 
ATOM     12  O   UNL     1      25.528   2.911  50.331  0.00  0.00    +0.000 OA
ATOM     13  C   UNL     1      22.830   2.652  50.666  0.00  0.00    +0.000 C 
ATOM     14  C   UNL     1      21.541   1.888  50.307  0.00  0.00    +0.000 C 
ENDROOT
BRANCH  11  15
ATOM     15  C   UNL     1      26.225   1.461  51.982  0.00  0.00    +0.000 A 
ATOM     16  C   UNL     1      27.215   2.267  52.532  0.00  0.00    +0.000 A 
ATOM     17  N   UNL     1      28.233   1.801  53.297  0.00  0.00    +0.000 NA
ATOM     18  C   UNL     1      28.372   0.472  53.398  0.00  0.00    +0.000 A 
ATOM     19  C   UNL     1      29.481  -0.052  54.037  0.00  0.00    +0.000 A 
ATOM     20  C   UNL     1      29.853  -1.382  53.847  0.00  0.00    +0.000 A 
ATOM     21  C   UNL     1      29.002  -2.253  53.173  0.00  0.00    +0.000 A 
ATOM     22  C   UNL     1      27.759  -1.799  52.741  0.00  0.00    +0.000 A 
ATOM     23  C   UNL     1      27.464  -0.430  52.808  0.00  0.00    +0.000 A 
ATOM     24  C   UNL     1      26.307   0.095  52.225  0.00  0.00    +0.000 A 
ENDBRANCH  11  15
BRANCH   1  25
ATOM     25  N   UNL     1      19.228   3.439  51.522  0.00  0.00    +0.000 N 
ATOM     26  H   UNL     1      19.958   3.750  52.104  0.00  0.00    +0.000 HD
BRANCH  25  28
ATOM     27  C   UNL     1      18.589   3.605  49.201  0.00  0.00    +0.000 C 
ATOM     28  C   UNL     1      18.663   4.337  50.533  0.00  0.00    +0.000 C 
ENDBRANCH  25  28
ENDBRANCH   1  25
TORSDOF 3
ENDMDL
MODEL 5
REMARK VINA RESULT:    -7.142      4.433      6.361
REMARK INTER + INTRA:          -8.808
REMARK INTER:                  -8.369
REMARK INTRA:                  -0.439
REMARK UNBOUND:                -0.414
REMARK  Name = 
REMARK  4 active torsions:
REMARK  status: ('A' for Active; 'I' for Inactive)
REMARK    1  A    between atoms: C_1  and  C_2
REMARK    2  A    between atoms: C_2  and  N_3
REMARK    3  A    between atoms: N_3  and  C_4
REMARK    4  A    between atoms: C_14  and  C_16
REMARK                            x       y       z     vdW  Elec       q    Type
REMARK                         _______ _______ _______ _____ _____    ______ ____
ROOT
ATOM      1  C   UNL     1      16.316   1.106  51.711  0.00  0.00    +0.000 A 
ATOM      2  C   UNL     1      15.020   0.617  51.884  0.00  0.00    +0.000 A 
ATOM      3  C   UNL     1      14.823  -0.705  52.270  0.00  0.00    +0.000 A 
ATOM      4  C   UNL     1      15.928  -1.517  52.440  0.00  0.00    +0.000 A 
ATOM      5  N   UNL     1      17.198  -1.103  52.249  0.00  0.00    +0.000 NA
ATOM      6  C   UNL     1      17.387   0.179  51.860  0.00  0.00    +0.000 A 
ATOM      7  N   UNL     1      18.698   0.661  51.746  0.00  0.00    +0.000 N 
ATOM      8  C   UNL     1      19.727  -0.124  52.426  0.00  0.00    +0.000 C 
ATOM      9  C   UNL     1      20.928   0.808  52.665  0.00  0.00    +0.000 C 
ATOM     10  N   UNL     1      21.375   1.538  51.456  0.00  0.00    +0.000 N 
ATOM     11  C   UNL     1      22.666   2.006  51.200  0.00  0.00    +0.000 C 
ATOM     12  O   UNL     1      22.925   2.678  50.197  0.00  0.00    +0.000 OA
ATOM     13  C   UNL     1      20.293   2.072  50.601  0.00  0.00    +0.000 C 
ATOM     14  C   UNL     1      19.144   1.065  50.401  0.00  0.00    +0.000 C 
ENDROOT
BRANCH  11  15
ATOM     15  C   UNL     1      23.806   1.680  52.079  0.00  0.00    +0.000 A 
ATOM     16  C   UNL     1      24.303   2.686  52.899  0.00  0.00    +0.000 A 
ATOM     17  N   UNL     1      25.323   2.514  53.775  0.00  0.00    +0.000 NA
ATOM     18  C   UNL     1      25.985   1.348  53.732  0.00  0.00    +0.000 A 
ATOM     19  C   UNL     1      27.126   1.183  54.495  0.00  0.00    +0.000 A 
ATOM     20  C   UNL     1      28.032   0.161  54.213  0.00  0.00    +0.000 A 
ATOM     21  C   UNL     1      27.701  -0.825  53.289  0.00  0.00    +0.000 A 
ATOM     22  C   UNL     1      26.442  -0.814  52.695  0.00  0.00    +0.000 A 
ATOM     23  C   UNL     1      25.604   0.295  52.877  0.00  0.00    +0.000 A 
ATOM     24  C   UNL     1      24.412   0.433  52.161  0.00  0.00    +0.000 A 
ENDBRANCH  11  15
BRANCH   1  25
ATOM     25  N   UNL     1      16.598   2.436  51.332  0.00  0.00    +0.000 N 
ATOM     26  H   UNL     1      17.298   2.940  51.806  0.00  0.00    +0.000 HD
BRANCH  25  28
ATOM     27  C   UNL     1      15.043   4.210  50.824  0.00  0.00    +0.000 C 
ATOM     28  C   UNL     1      15.866   3.066  50.249  0.00  0.00    +0.000 C 
ENDBRANCH  25  28
ENDBRANCH   1  25
TORSDOF 3
ENDMDL
MODEL 6
REMARK VINA RESULT:    -6.967      3.342      7.482
REMARK INTER + INTRA:          -8.602
REMARK INTER:                  -8.268
REMARK INTRA:                  -0.335
REMARK UNBOUND:                -0.414
REMARK  Name = 
REMARK  4 active torsions:
REMARK  status: ('A' for Active; 'I' for Inactive)
REMARK    1  A    between atoms: C_1  and  C_2
REMARK    2  A    between atoms: C_2  and  N_3
REMARK    3  A    between atoms: N_3  and  C_4
REMARK    4  A    between atoms: C_14  and  C_16
REMARK                            x       y       z     vdW  Elec       q    Type
REMARK                         _______ _______ _______ _____ _____    ______ ____
ROOT
ATOM      1  C   UNL     1      26.547   1.606  52.153  0.00  0.00    +0.000 A 
ATOM      2  C   UNL     1      27.549   0.721  52.555  0.00  0.00    +0.000 A 
ATOM      3  C   UNL     1      27.221  -0.408  53.298  0.00  0.00    +0.000 A 
ATOM      4  C   UNL     1      25.901  -0.607  53.652  0.00  0.00    +0.000 A 
ATOM      5  N   UNL     1      24.901   0.237  53.321  0.00  0.00    +0.000 NA
ATOM      6  C   UNL     1      25.224   1.342  52.610  0.00  0.00    +0.000 A 
ATOM      7  N   UNL     1      24.195   2.185  52.172  0.00  0.00    +0.000 N 
ATOM      8  C   UNL     1      22.851   1.607  52.177  0.00  0.00    +0.000 C 
ATOM      9  C   UNL     1      22.001   2.422  51.186  0.00  0.00    +0.000 C 
ATOM     10  N   UNL     1      22.067   3.887  51.397  0.00  0.00    +0.000 N 
ATOM     11  C   UNL     1      21.079   4.817  51.067  0.00  0.00    +0.000 C 
ATOM     12  O   UNL     1      21.259   6.031  51.205  0.00  0.00    +0.000 OA
ATOM     13  C   UNL     1      23.411   4.424  51.701  0.00  0.00    +0.000 C 
ATOM     14  C   UNL     1      24.182   3.556  52.714  0.00  0.00    +0.000 C 
ENDROOT
BRANCH  11  15
ATOM     15  C   UNL     1      19.745   4.406  50.586  0.00  0.00    +0.000 A 
ATOM     16  C   UNL     1      19.559   4.276  49.215  0.00  0.00    +0.000 A 
ATOM     17  N   UNL     1      18.397   3.877  48.643  0.00  0.00    +0.000 NA
ATOM     18  C   UNL     1      17.327   3.749  49.441  0.00  0.00    +0.000 A 
ATOM     19  C   UNL     1      16.087   3.496  48.885  0.00  0.00    +0.000 A 
ATOM     20  C   UNL     1      14.918   3.720  49.612  0.00  0.00    +0.000 A 
ATOM     21  C   UNL     1      14.990   4.011  50.971  0.00  0.00    +0.000 A 
ATOM     22  C   UNL     1      16.229   4.019  51.606  0.00  0.00    +0.000 A 
ATOM     23  C   UNL     1      17.399   3.938  50.836  0.00  0.00    +0.000 A 
ATOM     24  C   UNL     1      18.661   4.123  51.407  0.00  0.00    +0.000 A 
ENDBRANCH  11  15
BRANCH   1  25
ATOM     25  N   UNL     1      26.799   2.766  51.389  0.00  0.00    +0.000 N 
ATOM     26  H   UNL     1      27.169   3.566  51.826  0.00  0.00    +0.000 HD
BRANCH  25  28
ATOM     27  C   UNL     1      26.830   4.178  49.433  0.00  0.00    +0.000 C 
ATOM     28  C   UNL     1      26.517   2.787  49.966  0.00  0.00    +0.000 C 
ENDBRANCH  25  28
ENDBRANCH   1  25
TORSDOF 3
ENDMDL
MODEL 7
REMARK VINA RESULT:    -6.952      1.595      2.134
REMARK INTER + INTRA:          -8.584
REMARK INTER:                  -8.510
REMARK INTRA:                  -0.074
REMARK UNBOUND:                -0.414
REMARK  Name = 
REMARK  4 active torsions:
REMARK  status: ('A' for Active; 'I' for Inactive)
REMARK    1  A    between atoms: C_1  and  C_2
REMARK    2  A    between atoms: C_2  and  N_3
REMARK    3  A    between atoms: N_3  and  C_4
REMARK    4  A    between atoms: C_14  and  C_16
REMARK                            x       y       z     vdW  Elec       q    Type
REMARK                         _______ _______ _______ _____ _____    ______ ____
ROOT
ATOM      1  C   UNL     1      23.954   0.830  52.910  0.00  0.00    +0.000 A 
ATOM      2  C   UNL     1      24.048  -0.309  53.710  0.00  0.00    +0.000 A 
ATOM      3  C   UNL     1      25.197  -1.091  53.674  0.00  0.00    +0.000 A 
ATOM      4  C   UNL     1      26.214  -0.732  52.810  0.00  0.00    +0.000 A 
ATOM      5  N   UNL     1      26.158   0.337  51.988  0.00  0.00    +0.000 NA
ATOM      6  C   UNL     1      25.033   1.089  52.015  0.00  0.00    +0.000 A 
ATOM      7  N   UNL     1      24.985   2.256  51.244  0.00  0.00    +0.000 N 
ATOM      8  C   UNL     1      26.275   2.773  50.788  0.00  0.00    +0.000 C 
ATOM      9  C   UNL     1      26.084   4.268  50.476  0.00  0.00    +0.000 C 
ATOM     10  N   UNL     1      24.931   4.556  49.591  0.00  0.00    +0.000 N 
ATOM     11  C   UNL     1      24.800   5.648  48.730  0.00  0.00    +0.000 C 
ATOM     12  O   UNL     1      23.762   5.849  48.090  0.00  0.00    +0.000 OA
ATOM     13  C   UNL     1      23.701   3.786  49.879  0.00  0.00    +0.000 C 
ATOM     14  C   UNL     1      23.986   2.298  50.160  0.00  0.00    +0.000 C 
ENDROOT
BRANCH  11  15
ATOM     15  C   UNL     1      25.908   6.593  48.489  0.00  0.00    +0.000 A 
ATOM     16  C   UNL     1      25.597   7.941  48.365  0.00  0.00    +0.000 A 
ATOM     17  N   UNL     1      26.520   8.916  48.173  0.00  0.00    +0.000 NA
ATOM     18  C   UNL     1      27.784   8.535  47.940  0.00  0.00    +0.000 A 
ATOM     19  C   UNL     1      28.728   9.481  47.587  0.00  0.00    +0.000 A 
ATOM     20  C   UNL     1      29.929   9.102  46.987  0.00  0.00    +0.000 A 
ATOM     21  C   UNL     1      30.277   7.757  46.917  0.00  0.00    +0.000 A 
ATOM     22  C   UNL     1      29.448   6.803  47.500  0.00  0.00    +0.000 A 
ATOM     23  C   UNL     1      28.181   7.183  47.966  0.00  0.00    +0.000 A 
ATOM     24  C   UNL     1      27.247   6.235  48.392  0.00  0.00    +0.000 A 
ENDBRANCH  11  15
BRANCH   1  25
ATOM     25  N   UNL     1      22.826   1.679  52.899  0.00  0.00    +0.000 N 
ATOM     26  H   UNL     1      22.951   2.655  52.907  0.00  0.00    +0.000 HD
BRANCH  25  28
ATOM     27  C   UNL     1      21.292   0.388  51.558  0.00  0.00    +0.000 C 
ATOM     28  C   UNL     1      21.486   1.125  52.875  0.00  0.00    +0.000 C 
ENDBRANCH  25  28
ENDBRANCH   1  25
TORSDOF 3
ENDMDL
MODEL 8
REMARK VINA RESULT:    -6.945      4.305      9.244
REMARK INTER + INTRA:          -8.577
REMARK INTER:                  -8.019
REMARK INTRA:                  -0.558
REMARK UNBOUND:                -0.414
REMARK  Name = 
REMARK  4 active torsions:
REMARK  status: ('A' for Active; 'I' for Inactive)
REMARK    1  A    between atoms: C_1  and  C_2
REMARK    2  A    between atoms: C_2  and  N_3
REMARK    3  A    between atoms: N_3  and  C_4
REMARK    4  A    between atoms: C_14  and  C_16
REMARK                            x       y       z     vdW  Elec       q    Type
REMARK                         _______ _______ _______ _____ _____    ______ ____
ROOT
ATOM      1  C   UNL     1      23.201   0.888  52.953  0.00  0.00    +0.000 A 
ATOM      2  C   UNL     1      24.509   1.195  53.329  0.00  0.00    +0.000 A 
ATOM      3  C   UNL     1      24.998   2.485  53.151  0.00  0.00    +0.000 A 
ATOM      4  C   UNL     1      24.175   3.430  52.568  0.00  0.00    +0.000 A 
ATOM      5  N   UNL     1      22.916   3.174  52.153  0.00  0.00    +0.000 NA
ATOM      6  C   UNL     1      22.448   1.915  52.315  0.00  0.00    +0.000 A 
ATOM      7  N   UNL     1      21.115   1.645  51.980  0.00  0.00    +0.000 N 
ATOM      8  C   UNL     1      20.239   2.810  51.861  0.00  0.00    +0.000 C 
ATOM      9  C   UNL     1      18.794   2.316  52.051  0.00  0.00    +0.000 C 
ATOM     10  N   UNL     1      18.436   1.157  51.201  0.00  0.00    +0.000 N 
ATOM     11  C   UNL     1      17.157   0.825  50.749  0.00  0.00    +0.000 C 
ATOM     12  O   UNL     1      16.943  -0.211  50.110  0.00  0.00    +0.000 OA
ATOM     13  C   UNL     1      19.475   0.111  51.084  0.00  0.00    +0.000 C 
ATOM     14  C   UNL     1      20.884   0.695  50.877  0.00  0.00    +0.000 C 
ENDROOT
BRANCH  11  15
ATOM     15  C   UNL     1      15.997   1.715  50.956  0.00  0.00    +0.000 A 
ATOM     16  C   UNL     1      15.745   2.689  49.997  0.00  0.00    +0.000 A 
ATOM     17  N   UNL     1      14.699   3.549  50.049  0.00  0.00    +0.000 NA
ATOM     18  C   UNL     1      13.957   3.554  51.166  0.00  0.00    +0.000 A 
ATOM     19  C   UNL     1      12.977   4.516  51.329  0.00  0.00    +0.000 A 
ATOM     20  C   UNL     1      12.449   4.789  52.591  0.00  0.00    +0.000 A 
ATOM     21  C   UNL     1      12.756   3.963  53.668  0.00  0.00    +0.000 A 
ATOM     22  C   UNL     1      13.545   2.835  53.463  0.00  0.00    +0.000 A 
ATOM     23  C   UNL     1      14.185   2.657  52.228  0.00  0.00    +0.000 A 
ATOM     24  C   UNL     1      15.125   1.641  52.035  0.00  0.00    +0.000 A 
ENDBRANCH  11  15
BRANCH   1  25
ATOM     25  N   UNL     1      22.630  -0.394  53.112  0.00  0.00    +0.000 N 
ATOM     26  H   UNL     1      22.540  -0.987  52.332  0.00  0.00    +0.000 HD
BRANCH  25  28
ATOM     27  C   UNL     1      20.831  -1.533  54.246  0.00  0.00    +0.000 C 
ATOM     28  C   UNL     1      22.176  -0.843  54.415  0.00  0.00    +0.000 C 
ENDBRANCH  25  28
ENDBRANCH   1  25
TORSDOF 3
ENDMDL
MODEL 9
REMARK VINA RESULT:    -6.925      3.591      5.553
REMARK INTER + INTRA:          -8.554
REMARK INTER:                  -8.078
REMARK INTRA:                  -0.476
REMARK UNBOUND:                -0.414
REMARK  Name = 
REMARK  4 active torsions:
REMARK  status: ('A' for Active; 'I' for Inactive)
REMARK    1  A    between atoms: C_1  and  C_2
REMARK    2  A    between atoms: C_2  and  N_3
REMARK    3  A    between atoms: N_3  and  C_4
REMARK    4  A    between atoms: C_14  and  C_16
REMARK                            x       y       z     vdW  Elec       q    Type
REMARK                         _______ _______ _______ _____ _____    ______ ____
ROOT
ATOM      1  C   UNL     1      23.479   0.566  52.729  0.00  0.00    +0.000 A 
ATOM      2  C   UNL     1      23.289  -0.707  53.267  0.00  0.00    +0.000 A 
ATOM      3  C   UNL     1      22.047  -1.066  53.779  0.00  0.00    +0.000 A 
ATOM      4  C   UNL     1      21.032  -0.128  53.771  0.00  0.00    +0.000 A 
ATOM      5  N   UNL     1      21.175   1.127  53.297  0.00  0.00    +0.000 NA
ATOM      6  C   UNL     1      22.388   1.478  52.812  0.00  0.00    +0.000 A 
ATOM      7  N   UNL     1      22.539   2.742  52.228  0.00  0.00    +0.000 N 
ATOM      8  C   UNL     1      21.301   3.416  51.836  0.00  0.00    +0.000 C 
ATOM      9  C   UNL     1      21.666   4.454  50.761  0.00  0.00    +0.000 C 
ATOM     10  N   UNL     1      22.787   5.345  51.139  0.00  0.00    +0.000 N 
ATOM     11  C   UNL     1      23.003   6.645  50.677  0.00  0.00    +0.000 C 
ATOM     12  O   UNL     1      24.015   7.284  50.987  0.00  0.00    +0.000 OA
ATOM     13  C   UNL     1      23.920   4.685  51.822  0.00  0.00    +0.000 C 
ATOM     14  C   UNL     1      23.462   3.679  52.894  0.00  0.00    +0.000 C 
ENDROOT
BRANCH  11  15
ATOM     15  C   UNL     1      22.016   7.354  49.840  0.00  0.00    +0.000 A 
ATOM     16  C   UNL     1      22.245   7.412  48.471  0.00  0.00    +0.000 A 
ATOM     17  N   UNL     1      21.405   8.002  47.586  0.00  0.00    +0.000 NA
ATOM     18  C   UNL     1      20.374   8.701  48.084  0.00  0.00    +0.000 A 
ATOM     19  C   UNL     1      19.581   9.447  47.232  0.00  0.00    +0.000 A 
ATOM     20  C   UNL     1      18.754  10.455  47.727  0.00  0.00    +0.000 A 
ATOM     21  C   UNL     1      18.567  10.591  49.099  0.00  0.00    +0.000 A 
ATOM     22  C   UNL     1      19.164   9.680  49.965  0.00  0.00    +0.000 A 
ATOM     23  C   UNL     1      20.105   8.767  49.465  0.00  0.00    +0.000 A 
ATOM     24  C   UNL     1      20.860   7.958  50.319  0.00  0.00    +0.000 A 
ENDBRANCH  11  15
BRANCH   1  25
ATOM     25  N   UNL     1      24.706   1.001  52.181  0.00  0.00    +0.000 N 
ATOM     26  H   UNL     1      24.719   1.432  51.297  0.00  0.00    +0.000 HD
BRANCH  25  28
ATOM     27  C   UNL     1      26.825  -0.152  52.134  0.00  0.00    +0.000 C 
ATOM     28  C   UNL     1      25.946   0.817  52.911  0.00  0.00    +0.000 C 
ENDBRANCH  25  28
ENDBRANCH   1  25
TORSDOF 3
ENDMDL
