MODEL 1
REMARK VINA RESULT:    -7.524      0.000      0.000
REMARK INTER + INTRA:         -13.789
REMARK INTER:                 -11.483
REMARK INTRA:                  -2.306
REMARK UNBOUND:                -2.306
REMARK  Name = 
REMARK  11 active torsions:
REMARK  status: ('A' for Active; 'I' for Inactive)
REMARK    1  A    between atoms: C_1  and  C_2
REMARK    2  A    between atoms: C_2  and  C_3
REMARK    3  A    between atoms: C_3  and  C_4
REMARK    4  A    between atoms: C_4  and  C_5
REMARK    5  A    between atoms: C_5  and  C_6
REMARK    6  A    between atoms: C_6  and  N_7
REMARK    7  A    between atoms: C_9  and  C_10
REMARK    8  A    between atoms: C_19  and  C_20
REMARK    9  A    between atoms: C_23  and  C_24
REMARK   10  A    between atoms: C_27  and  O_28
REMARK   11  A    between atoms: O_28  and  C_29
REMARK                            x       y       z     vdW  Elec       q    Type
REMARK                         _______ _______ _______ _____ _____    ______ ____
ROOT
ATOM      1  N   UNL     1      22.567   2.841  52.532  0.00  0.00    +0.000 N 
ATOM      2  C   UNL     1      22.989   4.255  52.463  0.00  0.00    +0.000 C 
ATOM      3  C   UNL     1      22.995   4.563  50.969  0.00  0.00    +0.000 C 
ATOM      4  C   UNL     1      23.656   3.305  50.398  0.00  0.00    +0.000 C 
ATOM      5  C   UNL     1      23.276   2.180  51.393  0.00  0.00    +0.000 C 
ATOM      6  H   UNL     1      22.815   2.386  53.410  0.00  0.00    +0.000 HD
ENDROOT
BRANCH   3   7
ATOM      7  C   UNL     1      23.613   5.893  50.606  0.00  0.00    +0.000 A 
ATOM      8  C   UNL     1      22.865   7.090  50.541  0.00  0.00    +0.000 A 
ATOM      9  C   UNL     1      23.469   8.295  50.159  0.00  0.00    +0.000 A 
ATOM     10  C   UNL     1      24.811   8.274  49.842  0.00  0.00    +0.000 A 
ATOM     11  C   UNL     1      25.548   7.120  49.908  0.00  0.00    +0.000 A 
ATOM     12  C   UNL     1      24.985   5.923  50.289  0.00  0.00    +0.000 A 
ATOM     13  O   UNL     1      26.846   7.304  49.551  0.00  0.00    +0.000 OA
ATOM     14  C   UNL     1      26.835   8.707  49.220  0.00  0.00    +0.000 C 
ATOM     15  O   UNL     1      25.554   9.338  49.432  0.00  0.00    +0.000 OA
ENDBRANCH   3   7
BRANCH   5  16
ATOM     16  C   UNL     1      24.506   1.412  51.896  0.00  0.00    +0.000 A 
ATOM     17  C   UNL     1      24.384   0.337  52.794  0.00  0.00    +0.000 A 
ATOM     18  C   UNL     1      25.498  -0.379  53.236  0.00  0.00    +0.000 A 
ATOM     19  C   UNL     1      26.767  -0.042  52.789  0.00  0.00    +0.000 A 
ATOM     20  C   UNL     1      26.912   1.020  51.893  0.00  0.00    +0.000 A 
ATOM     21  C   UNL     1      25.794   1.736  51.444  0.00  0.00    +0.000 A 
BRANCH  19  22
ATOM     22  O   UNL     1      27.929  -0.665  53.157  0.00  0.00    +0.000 OA
ATOM     23  C   UNL     1      28.698  -0.009  54.161  0.00  0.00    +0.000 C 
ENDBRANCH  19  22
ENDBRANCH   5  16
BRANCH   4  24
ATOM     24  C   UNL     1      23.118   2.990  49.028  0.00  0.00    +0.000 C 
ATOM     25  O   UNL     1      23.144   3.707  48.042  0.00  0.00    +0.000 OA
ATOM     26  O   UNL     1      22.537   1.777  48.962  0.00  0.00    +0.000 OA
ENDBRANCH   4  24
BRANCH   1  27
ATOM     27  C   UNL     1      21.100   2.718  52.494  0.00  0.00    +0.000 C 
BRANCH  27  28
ATOM     28  C   UNL     1      20.537   1.462  51.810  0.00  0.00    +0.000 C 
BRANCH  28  29
ATOM     29  C   UNL     1      20.445   0.196  52.667  0.00  0.00    +0.000 C 
BRANCH  29  30
ATOM     30  C   UNL     1      20.509   0.403  54.182  0.00  0.00    +0.000 C 
BRANCH  30  32
ATOM     31  C   UNL     1      21.672  -1.834  54.258  0.00  0.00    +0.000 C 
ATOM     32  C   UNL     1      21.576  -0.448  54.876  0.00  0.00    +0.000 C 
ENDBRANCH  30  32
ENDBRANCH  29  30
ENDBRANCH  28  29
ENDBRANCH  27  28
ENDBRANCH   1  27
TORSDOF 9
ENDMDL
MODEL 2
REMARK VINA RESULT:    -7.516      2.099      6.276
REMARK INTER + INTRA:         -13.776
REMARK INTER:                 -11.500
REMARK INTRA:                  -2.276
REMARK UNBOUND:                -2.306
REMARK  Name = 
REMARK  11 active torsions:
REMARK  status: ('A' for Active; 'I' for Inactive)
REMARK    1  A    between atoms: C_1  and  C_2
REMARK    2  A    between atoms: C_2  and  C_3
REMARK    3  A    between atoms: C_3  and  C_4
REMARK    4  A    between atoms: C_4  and  C_5
REMARK    5  A    between atoms: C_5  and  C_6
REMARK    6  A    between atoms: C_6  and  N_7
REMARK    7  A    between atoms: C_9  and  C_10
REMARK    8  A    between atoms: C_19  and  C_20
REMARK    9  A    between atoms: C_23  and  C_24
REMARK   10  A    between atoms: C_27  and  O_28
REMARK   11  A    between atoms: O_28  and  C_29
REMARK                            x       y       z     vdW  Elec       q    Type
REMARK                         _______ _______ _______ _____ _____    ______ ____
ROOT
ATOM      1  N   UNL     1      23.364   3.253  49.372  0.00  0.00    +0.000 N 
ATOM      2  C   UNL     1      24.226   2.242  50.019  0.00  0.00    +0.000 C 
ATOM      3  C   UNL     1      24.125   2.570  51.505  0.00  0.00    +0.000 C 
ATOM      4  C   UNL     1      24.234   4.098  51.490  0.00  0.00    +0.000 C 
ATOM      5  C   UNL     1      23.640   4.517  50.122  0.00  0.00    +0.000 C 
ATOM      6  H   UNL     1      23.565   3.382  48.381  0.00  0.00    +0.000 HD
ENDROOT
BRANCH   3   7
ATOM      7  C   UNL     1      25.099   1.818  52.381  0.00  0.00    +0.000 A 
ATOM      8  C   UNL     1      24.706   0.748  53.215  0.00  0.00    +0.000 A 
ATOM      9  C   UNL     1      25.634   0.104  54.044  0.00  0.00    +0.000 A 
ATOM     10  C   UNL     1      26.937   0.551  54.026  0.00  0.00    +0.000 A 
ATOM     11  C   UNL     1      27.332   1.585  53.215  0.00  0.00    +0.000 A 
ATOM     12  C   UNL     1      26.445   2.231  52.383  0.00  0.00    +0.000 A 
ATOM     13  O   UNL     1      28.652   1.882  53.347  0.00  0.00    +0.000 OA
ATOM     14  C   UNL     1      29.038   0.933  54.362  0.00  0.00    +0.000 C 
ATOM     15  O   UNL     1      27.963   0.063  54.775  0.00  0.00    +0.000 OA
ENDBRANCH   3   7
BRANCH   5  16
ATOM     16  C   UNL     1      24.595   5.419  49.327  0.00  0.00    +0.000 A 
ATOM     17  C   UNL     1      24.116   6.460  48.513  0.00  0.00    +0.000 A 
ATOM     18  C   UNL     1      24.982   7.296  47.808  0.00  0.00    +0.000 A 
ATOM     19  C   UNL     1      26.354   7.116  47.898  0.00  0.00    +0.000 A 
ATOM     20  C   UNL     1      26.854   6.091  48.704  0.00  0.00    +0.000 A 
ATOM     21  C   UNL     1      25.985   5.254  49.419  0.00  0.00    +0.000 A 
BRANCH  19  22
ATOM     22  O   UNL     1      27.297   7.868  47.248  0.00  0.00    +0.000 OA
ATOM     23  C   UNL     1      28.629   7.364  47.285  0.00  0.00    +0.000 C 
ENDBRANCH  19  22
ENDBRANCH   5  16
BRANCH   4  24
ATOM     24  C   UNL     1      23.434   4.705  52.612  0.00  0.00    +0.000 C 
ATOM     25  O   UNL     1      23.821   4.965  53.739  0.00  0.00    +0.000 OA
ATOM     26  O   UNL     1      22.151   4.938  52.270  0.00  0.00    +0.000 OA
ENDBRANCH   4  24
BRANCH   1  27
ATOM     27  C   UNL     1      21.953   2.833  49.377  0.00  0.00    +0.000 C 
BRANCH  27  28
ATOM     28  C   UNL     1      21.690   1.320  49.325  0.00  0.00    +0.000 C 
BRANCH  28  29
ATOM     29  C   UNL     1      20.716   0.756  50.364  0.00  0.00    +0.000 C 
BRANCH  29  30
ATOM     30  C   UNL     1      21.343   0.232  51.659  0.00  0.00    +0.000 C 
BRANCH  30  32
ATOM     31  C   UNL     1      20.957   0.272  54.151  0.00  0.00    +0.000 C 
ATOM     32  C   UNL     1      21.050   1.104  52.882  0.00  0.00    +0.000 C 
ENDBRANCH  30  32
ENDBRANCH  29  30
ENDBRANCH  28  29
ENDBRANCH  27  28
ENDBRANCH   1  27
TORSDOF 9
ENDMDL
MODEL 3
REMARK VINA RESULT:    -7.445      2.759      7.101
REMARK INTER + INTRA:         -13.668
REMARK INTER:                 -11.762
REMARK INTRA:                  -1.906
REMARK UNBOUND:                -2.306
REMARK  Name = 
REMARK  11 active torsions:
REMARK  status: ('A' for Active; 'I' for Inactive)
REMARK    1  A    between atoms: C_1  and  C_2
REMARK    2  A    between atoms: C_2  and  C_3
REMARK    3  A    between atoms: C_3  and  C_4
REMARK    4  A    between atoms: C_4  and  C_5
REMARK    5  A    between atoms: C_5  and  C_6
REMARK    6  A    between atoms: C_6  and  N_7
REMARK    7  A    between atoms: C_9  and  C_10
REMARK    8  A    between atoms: C_19  and  C_20
REMARK    9  A    between atoms: C_23  and  C_24
REMARK   10  A    between atoms: C_27  and  O_28
REMARK   11  A    between atoms: O_28  and  C_29
REMARK                            x       y       z     vdW  Elec       q    Type
REMARK                         _______ _______ _______ _____ _____    ______ ____
ROOT
ATOM      1  N   UNL     1      23.126   2.265  49.375  0.00  0.00    +0.000 N 
ATOM      2  C   UNL     1      21.989   1.321  49.397  0.00  0.00    +0.000 C 
ATOM      3  C   UNL     1      20.989   1.975  50.344  0.00  0.00    +0.000 C 
ATOM      4  C   UNL     1      21.903   2.448  51.479  0.00  0.00    +0.000 C 
ATOM      5  C   UNL     1      23.265   2.721  50.793  0.00  0.00    +0.000 C 
ATOM      6  H   UNL     1      23.997   1.843  49.055  0.00  0.00    +0.000 HD
ENDROOT
BRANCH   3   7
ATOM      7  C   UNL     1      19.818   1.098  50.723  0.00  0.00    +0.000 A 
ATOM      8  C   UNL     1      18.622   1.056  49.973  0.00  0.00    +0.000 A 
ATOM      9  C   UNL     1      17.544   0.260  50.382  0.00  0.00    +0.000 A 
ATOM     10  C   UNL     1      17.685  -0.473  51.540  0.00  0.00    +0.000 A 
ATOM     11  C   UNL     1      18.844  -0.446  52.274  0.00  0.00    +0.000 A 
ATOM     12  C   UNL     1      19.923   0.319  51.891  0.00  0.00    +0.000 A 
ATOM     13  O   UNL     1      18.783  -1.228  53.383  0.00  0.00    +0.000 OA
ATOM     14  C   UNL     1      17.435  -1.729  53.282  0.00  0.00    +0.000 C 
ATOM     15  O   UNL     1      16.741  -1.280  52.098  0.00  0.00    +0.000 OA
ENDBRANCH   3   7
BRANCH   5  16
ATOM     16  C   UNL     1      24.420   1.984  51.485  0.00  0.00    +0.000 A 
ATOM     17  C   UNL     1      24.184   0.988  52.448  0.00  0.00    +0.000 A 
ATOM     18  C   UNL     1      25.231   0.300  53.063  0.00  0.00    +0.000 A 
ATOM     19  C   UNL     1      26.546   0.587  52.730  0.00  0.00    +0.000 A 
ATOM     20  C   UNL     1      26.805   1.570  51.772  0.00  0.00    +0.000 A 
ATOM     21  C   UNL     1      25.754   2.258  51.149  0.00  0.00    +0.000 A 
BRANCH  19  22
ATOM     22  O   UNL     1      27.651  -0.016  53.270  0.00  0.00    +0.000 OA
ATOM     23  C   UNL     1      27.882   0.232  54.654  0.00  0.00    +0.000 C 
ENDBRANCH  19  22
ENDBRANCH   5  16
BRANCH   4  24
ATOM     24  C   UNL     1      21.374   3.712  52.103  0.00  0.00    +0.000 C 
ATOM     25  O   UNL     1      20.209   4.060  52.193  0.00  0.00    +0.000 OA
ATOM     26  O   UNL     1      22.353   4.510  52.572  0.00  0.00    +0.000 OA
ENDBRANCH   4  24
BRANCH   1  27
ATOM     27  C   UNL     1      22.902   3.348  48.403  0.00  0.00    +0.000 C 
BRANCH  27  28
ATOM     28  C   UNL     1      22.930   4.781  48.958  0.00  0.00    +0.000 C 
BRANCH  28  29
ATOM     29  C   UNL     1      24.167   5.622  48.629  0.00  0.00    +0.000 C 
BRANCH  29  30
ATOM     30  C   UNL     1      25.494   5.122  49.205  0.00  0.00    +0.000 C 
BRANCH  30  32
ATOM     31  C   UNL     1      27.934   5.000  48.576  0.00  0.00    +0.000 C 
ATOM     32  C   UNL     1      26.714   5.900  48.708  0.00  0.00    +0.000 C 
ENDBRANCH  30  32
ENDBRANCH  29  30
ENDBRANCH  28  29
ENDBRANCH  27  28
ENDBRANCH   1  27
TORSDOF 9
ENDMDL
MODEL 4
REMARK VINA RESULT:    -7.375      1.361      1.850
REMARK INTER + INTRA:         -13.561
REMARK INTER:                 -11.354
REMARK INTRA:                  -2.208
REMARK UNBOUND:                -2.306
REMARK  Name = 
REMARK  11 active torsions:
REMARK  status: ('A' for Active; 'I' for Inactive)
REMARK    1  A    between atoms: C_1  and  C_2
REMARK    2  A    between atoms: C_2  and  C_3
REMARK    3  A    between atoms: C_3  and  C_4
REMARK    4  A    between atoms: C_4  and  C_5
REMARK    5  A    between atoms: C_5  and  C_6
REMARK    6  A    between atoms: C_6  and  N_7
REMARK    7  A    between atoms: C_9  and  C_10
REMARK    8  A    between atoms: C_19  and  C_20
REMARK    9  A    between atoms: C_23  and  C_24
REMARK   10  A    between atoms: C_27  and  O_28
REMARK   11  A    between atoms: O_28  and  C_29
REMARK                            x       y       z     vdW  Elec       q    Type
REMARK                         _______ _______ _______ _____ _____    ______ ____
ROOT
ATOM      1  N   UNL     1      23.107   3.932  52.031  0.00  0.00    +0.000 N 
ATOM      2  C   UNL     1      23.866   5.068  51.468  0.00  0.00    +0.000 C 
ATOM      3  C   UNL     1      23.655   4.940  49.964  0.00  0.00    +0.000 C 
ATOM      4  C   UNL     1      23.832   3.433  49.755  0.00  0.00    +0.000 C 
ATOM      5  C   UNL     1      23.374   2.799  51.092  0.00  0.00    +0.000 C 
ATOM      6  H   UNL     1      23.396   3.679  52.976  0.00  0.00    +0.000 HD
ENDROOT
BRANCH   3   7
ATOM      7  C   UNL     1      24.518   5.858  49.130  0.00  0.00    +0.000 A 
ATOM      8  C   UNL     1      23.982   6.752  48.177  0.00  0.00    +0.000 A 
ATOM      9  C   UNL     1      24.821   7.557  47.394  0.00  0.00    +0.000 A 
ATOM     10  C   UNL     1      26.182   7.442  47.577  0.00  0.00    +0.000 A 
ATOM     11  C   UNL     1      26.714   6.582  48.503  0.00  0.00    +0.000 A 
ATOM     12  C   UNL     1      25.914   5.786  49.294  0.00  0.00    +0.000 A 
ATOM     13  O   UNL     1      28.072   6.609  48.527  0.00  0.00    +0.000 OA
ATOM     14  C   UNL     1      28.338   7.566  47.482  0.00  0.00    +0.000 C 
ATOM     15  O   UNL     1      27.142   8.123  46.895  0.00  0.00    +0.000 OA
ENDBRANCH   3   7
BRANCH   5  16
ATOM     16  C   UNL     1      24.431   1.851  51.676  0.00  0.00    +0.000 A 
ATOM     17  C   UNL     1      25.799   2.016  51.398  0.00  0.00    +0.000 A 
ATOM     18  C   UNL     1      26.765   1.171  51.945  0.00  0.00    +0.000 A 
ATOM     19  C   UNL     1      26.390   0.137  52.790  0.00  0.00    +0.000 A 
ATOM     20  C   UNL     1      25.037  -0.043  53.084  0.00  0.00    +0.000 A 
ATOM     21  C   UNL     1      24.066   0.808  52.540  0.00  0.00    +0.000 A 
BRANCH  19  22
ATOM     22  O   UNL     1      27.246  -0.756  53.378  0.00  0.00    +0.000 OA
ATOM     23  C   UNL     1      28.128  -0.219  54.361  0.00  0.00    +0.000 C 
ENDBRANCH  19  22
ENDBRANCH   5  16
BRANCH   4  24
ATOM     24  C   UNL     1      22.967   2.942  48.624  0.00  0.00    +0.000 C 
ATOM     25  O   UNL     1      22.808   3.467  47.535  0.00  0.00    +0.000 OA
ATOM     26  O   UNL     1      22.308   1.808  48.927  0.00  0.00    +0.000 OA
ENDBRANCH   4  24
BRANCH   1  27
ATOM     27  C   UNL     1      21.683   4.269  52.195  0.00  0.00    +0.000 C 
BRANCH  27  28
ATOM     28  C   UNL     1      20.673   3.178  51.804  0.00  0.00    +0.000 C 
BRANCH  28  29
ATOM     29  C   UNL     1      20.424   2.071  52.833  0.00  0.00    +0.000 C 
BRANCH  29  30
ATOM     30  C   UNL     1      20.464   0.637  52.301  0.00  0.00    +0.000 C 
BRANCH  30  32
ATOM     31  C   UNL     1      21.076   0.078  54.683  0.00  0.00    +0.000 C 
ATOM     32  C   UNL     1      20.437  -0.429  53.399  0.00  0.00    +0.000 C 
ENDBRANCH  30  32
ENDBRANCH  29  30
ENDBRANCH  28  29
ENDBRANCH  27  28
ENDBRANCH   1  27
TORSDOF 9
ENDMDL
MODEL 5
REMARK VINA RESULT:    -7.085      3.120      7.495
REMARK INTER + INTRA:         -13.119
REMARK INTER:                 -11.485
REMARK INTRA:                  -1.634
REMARK UNBOUND:                -2.306
REMARK  Name = 
REMARK  11 active torsions:
REMARK  status: ('A' for Active; 'I' for Inactive)
REMARK    1  A    between atoms: C_1  and  C_2
REMARK    2  A    between atoms: C_2  and  C_3
REMARK    3  A    between atoms: C_3  and  C_4
REMARK    4  A    between atoms: C_4  and  C_5
REMARK    5  A    between atoms: C_5  and  C_6
REMARK    6  A    between atoms: C_6  and  N_7
REMARK    7  A    between atoms: C_9  and  C_10
REMARK    8  A    between atoms: C_19  and  C_20
REMARK    9  A    between atoms: C_23  and  C_24
REMARK   10  A    between atoms: C_27  and  O_28
REMARK   11  A    between atoms: O_28  and  C_29
REMARK                            x       y       z     vdW  Elec       q    Type
REMARK                         _______ _______ _______ _____ _____    ______ ____
ROOT
ATOM      1  N   UNL     1      22.501   1.353  50.110  0.00  0.00    +0.000 N 
ATOM      2  C   UNL     1      21.420   0.368  50.320  0.00  0.00    +0.000 C 
ATOM      3  C   UNL     1      20.314   1.176  50.990  0.00  0.00    +0.000 C 
ATOM      4  C   UNL     1      21.108   2.003  52.006  0.00  0.00    +0.000 C 
ATOM      5  C   UNL     1      22.503   2.181  51.356  0.00  0.00    +0.000 C 
ATOM      6  H   UNL     1      23.417   0.926  49.972  0.00  0.00    +0.000 HD
ENDROOT
BRANCH   3   7
ATOM      7  C   UNL     1      19.167   0.348  51.522  0.00  0.00    +0.000 A 
ATOM      8  C   UNL     1      19.231  -0.343  52.752  0.00  0.00    +0.000 A 
ATOM      9  C   UNL     1      18.160  -1.135  53.188  0.00  0.00    +0.000 A 
ATOM     10  C   UNL     1      17.048  -1.223  52.378  0.00  0.00    +0.000 A 
ATOM     11  C   UNL     1      16.973  -0.552  51.184  0.00  0.00    +0.000 A 
ATOM     12  C   UNL     1      18.005   0.241  50.734  0.00  0.00    +0.000 A 
ATOM     13  O   UNL     1      15.803  -0.773  50.530  0.00  0.00    +0.000 OA
ATOM     14  C   UNL     1      15.159  -1.691  51.437  0.00  0.00    +0.000 C 
ATOM     15  O   UNL     1      15.931  -1.957  52.629  0.00  0.00    +0.000 OA
ENDBRANCH   3   7
BRANCH   5  16
ATOM     16  C   UNL     1      23.639   1.746  52.292  0.00  0.00    +0.000 A 
ATOM     17  C   UNL     1      23.757   0.417  52.735  0.00  0.00    +0.000 A 
ATOM     18  C   UNL     1      24.801   0.012  53.567  0.00  0.00    +0.000 A 
ATOM     19  C   UNL     1      25.760   0.925  53.979  0.00  0.00    +0.000 A 
ATOM     20  C   UNL     1      25.666   2.250  53.548  0.00  0.00    +0.000 A 
ATOM     21  C   UNL     1      24.620   2.658  52.707  0.00  0.00    +0.000 A 
BRANCH  19  22
ATOM     22  O   UNL     1      26.821   0.646  54.798  0.00  0.00    +0.000 OA
ATOM     23  C   UNL     1      27.926  -0.012  54.183  0.00  0.00    +0.000 C 
ENDBRANCH  19  22
ENDBRANCH   5  16
BRANCH   4  24
ATOM     24  C   UNL     1      20.463   3.345  52.228  0.00  0.00    +0.000 C 
ATOM     25  O   UNL     1      19.278   3.617  52.143  0.00  0.00    +0.000 OA
ATOM     26  O   UNL     1      21.356   4.309  52.526  0.00  0.00    +0.000 OA
ENDBRANCH   4  24
BRANCH   1  27
ATOM     27  C   UNL     1      22.295   2.116  48.867  0.00  0.00    +0.000 C 
BRANCH  27  28
ATOM     28  C   UNL     1      23.452   3.028  48.427  0.00  0.00    +0.000 C 
BRANCH  28  29
ATOM     29  C   UNL     1      23.340   4.509  48.800  0.00  0.00    +0.000 C 
BRANCH  29  30
ATOM     30  C   UNL     1      24.657   5.285  48.874  0.00  0.00    +0.000 C 
BRANCH  30  32
ATOM     31  C   UNL     1      26.742   3.963  49.390  0.00  0.00    +0.000 C 
ATOM     32  C   UNL     1      25.604   4.788  49.969  0.00  0.00    +0.000 C 
ENDBRANCH  30  32
ENDBRANCH  29  30
ENDBRANCH  28  29
ENDBRANCH  27  28
ENDBRANCH   1  27
TORSDOF 9
ENDMDL
MODEL 6
REMARK VINA RESULT:    -7.085      2.312      6.819
REMARK INTER + INTRA:         -13.118
REMARK INTER:                 -11.175
REMARK INTRA:                  -1.944
REMARK UNBOUND:                -2.306
REMARK  Name = 
REMARK  11 active torsions:
REMARK  status: ('A' for Active; 'I' for Inactive)
REMARK    1  A    between atoms: C_1  and  C_2
REMARK    2  A    between atoms: C_2  and  C_3
REMARK    3  A    between atoms: C_3  and  C_4
REMARK    4  A    between atoms: C_4  and  C_5
REMARK    5  A    between atoms: C_5  and  C_6
REMARK    6  A    between atoms: C_6  and  N_7
REMARK    7  A    between atoms: C_9  and  C_10
REMARK    8  A    between atoms: C_19  and  C_20
REMARK    9  A    between atoms: C_23  and  C_24
REMARK   10  A    between atoms: C_27  and  O_28
REMARK   11  A    between atoms: O_28  and  C_29
REMARK                            x       y       z     vdW  Elec       q    Type
REMARK                         _______ _______ _______ _____ _____    ______ ____
ROOT
ATOM      1  N   UNL     1      20.903   3.407  51.852  0.00  0.00    +0.000 N 
ATOM      2  C   UNL     1      22.221   3.099  52.444  0.00  0.00    +0.000 C 
ATOM      3  C   UNL     1      23.050   2.610  51.261  0.00  0.00    +0.000 C 
ATOM      4  C   UNL     1      22.051   1.697  50.542  0.00  0.00    +0.000 C 
ATOM      5  C   UNL     1      20.664   2.304  50.871  0.00  0.00    +0.000 C 
ATOM      6  H   UNL     1      20.148   3.437  52.536  0.00  0.00    +0.000 HD
ENDROOT
BRANCH   3   7
ATOM      7  C   UNL     1      24.385   2.011  51.636  0.00  0.00    +0.000 A 
ATOM      8  C   UNL     1      25.615   2.613  51.289  0.00  0.00    +0.000 A 
ATOM      9  C   UNL     1      26.833   2.002  51.620  0.00  0.00    +0.000 A 
ATOM     10  C   UNL     1      26.792   0.796  52.286  0.00  0.00    +0.000 A 
ATOM     11  C   UNL     1      25.603   0.206  52.633  0.00  0.00    +0.000 A 
ATOM     12  C   UNL     1      24.392   0.786  52.330  0.00  0.00    +0.000 A 
ATOM     13  O   UNL     1      25.773  -0.980  53.275  0.00  0.00    +0.000 OA
ATOM     14  C   UNL     1      27.211  -1.085  53.263  0.00  0.00    +0.000 C 
ATOM     15  O   UNL     1      27.867   0.053  52.665  0.00  0.00    +0.000 OA
ENDBRANCH   3   7
BRANCH   5  16
ATOM     16  C   UNL     1      19.700   1.261  51.456  0.00  0.00    +0.000 A 
ATOM     17  C   UNL     1      18.383   1.131  50.982  0.00  0.00    +0.000 A 
ATOM     18  C   UNL     1      17.511   0.170  51.494  0.00  0.00    +0.000 A 
ATOM     19  C   UNL     1      17.933  -0.692  52.496  0.00  0.00    +0.000 A 
ATOM     20  C   UNL     1      19.239  -0.585  52.979  0.00  0.00    +0.000 A 
ATOM     21  C   UNL     1      20.118   0.377  52.461  0.00  0.00    +0.000 A 
BRANCH  19  22
ATOM     22  O   UNL     1      17.167  -1.666  53.078  0.00  0.00    +0.000 OA
ATOM     23  C   UNL     1      17.881  -2.716  53.727  0.00  0.00    +0.000 C 
ENDBRANCH  19  22
ENDBRANCH   5  16
BRANCH   4  24
ATOM     24  C   UNL     1      22.285   1.711  49.055  0.00  0.00    +0.000 C 
ATOM     25  O   UNL     1      23.020   2.457  48.430  0.00  0.00    +0.000 OA
ATOM     26  O   UNL     1      21.551   0.788  48.404  0.00  0.00    +0.000 OA
ENDBRANCH   4  24
BRANCH   1  27
ATOM     27  C   UNL     1      20.882   4.759  51.269  0.00  0.00    +0.000 C 
BRANCH  27  28
ATOM     28  C   UNL     1      22.121   5.633  51.527  0.00  0.00    +0.000 C 
BRANCH  28  29
ATOM     29  C   UNL     1      22.837   6.191  50.294  0.00  0.00    +0.000 C 
BRANCH  29  30
ATOM     30  C   UNL     1      24.364   6.083  50.297  0.00  0.00    +0.000 C 
BRANCH  30  32
ATOM     31  C   UNL     1      26.431   5.513  48.968  0.00  0.00    +0.000 C 
ATOM     32  C   UNL     1      24.929   5.311  49.103  0.00  0.00    +0.000 C 
ENDBRANCH  30  32
ENDBRANCH  29  30
ENDBRANCH  28  29
ENDBRANCH  27  28
ENDBRANCH   1  27
TORSDOF 9
ENDMDL
MODEL 7
REMARK VINA RESULT:    -6.981      2.731      7.516
REMARK INTER + INTRA:         -12.960
REMARK INTER:                 -10.755
REMARK INTRA:                  -2.204
REMARK UNBOUND:                -2.306
REMARK  Name = 
REMARK  11 active torsions:
REMARK  status: ('A' for Active; 'I' for Inactive)
REMARK    1  A    between atoms: C_1  and  C_2
REMARK    2  A    between atoms: C_2  and  C_3
REMARK    3  A    between atoms: C_3  and  C_4
REMARK    4  A    between atoms: C_4  and  C_5
REMARK    5  A    between atoms: C_5  and  C_6
REMARK    6  A    between atoms: C_6  and  N_7
REMARK    7  A    between atoms: C_9  and  C_10
REMARK    8  A    between atoms: C_19  and  C_20
REMARK    9  A    between atoms: C_23  and  C_24
REMARK   10  A    between atoms: C_27  and  O_28
REMARK   11  A    between atoms: O_28  and  C_29
REMARK                            x       y       z     vdW  Elec       q    Type
REMARK                         _______ _______ _______ _____ _____    ______ ____
ROOT
ATOM      1  N   UNL     1      21.485   4.758  51.154  0.00  0.00    +0.000 N 
ATOM      2  C   UNL     1      22.289   4.026  52.155  0.00  0.00    +0.000 C 
ATOM      3  C   UNL     1      22.918   2.888  51.359  0.00  0.00    +0.000 C 
ATOM      4  C   UNL     1      21.736   2.418  50.507  0.00  0.00    +0.000 C 
ATOM      5  C   UNL     1      20.868   3.687  50.312  0.00  0.00    +0.000 C 
ATOM      6  H   UNL     1      20.758   5.342  51.567  0.00  0.00    +0.000 HD
ENDROOT
BRANCH   3   7
ATOM      7  C   UNL     1      23.619   1.847  52.200  0.00  0.00    +0.000 A 
ATOM      8  C   UNL     1      23.030   0.604  52.521  0.00  0.00    +0.000 A 
ATOM      9  C   UNL     1      23.697  -0.317  53.340  0.00  0.00    +0.000 A 
ATOM     10  C   UNL     1      24.939   0.030  53.826  0.00  0.00    +0.000 A 
ATOM     11  C   UNL     1      25.523   1.232  53.517  0.00  0.00    +0.000 A 
ATOM     12  C   UNL     1      24.896   2.153  52.707  0.00  0.00    +0.000 A 
ATOM     13  O   UNL     1      26.741   1.390  54.098  0.00  0.00    +0.000 OA
ATOM     14  C   UNL     1      26.844   0.159  54.840  0.00  0.00    +0.000 C 
ATOM     15  O   UNL     1      25.718  -0.725  54.648  0.00  0.00    +0.000 OA
ENDBRANCH   3   7
BRANCH   5  16
ATOM     16  C   UNL     1      19.406   3.457  50.717  0.00  0.00    +0.000 A 
ATOM     17  C   UNL     1      18.966   2.216  51.210  0.00  0.00    +0.000 A 
ATOM     18  C   UNL     1      17.643   2.010  51.602  0.00  0.00    +0.000 A 
ATOM     19  C   UNL     1      16.720   3.041  51.512  0.00  0.00    +0.000 A 
ATOM     20  C   UNL     1      17.134   4.285  51.029  0.00  0.00    +0.000 A 
ATOM     21  C   UNL     1      18.465   4.495  50.641  0.00  0.00    +0.000 A 
BRANCH  19  22
ATOM     22  O   UNL     1      15.398   2.954  51.859  0.00  0.00    +0.000 OA
ATOM     23  C   UNL     1      14.964   3.840  52.888  0.00  0.00    +0.000 C 
ENDBRANCH  19  22
ENDBRANCH   5  16
BRANCH   4  24
ATOM     24  C   UNL     1      22.206   1.901  49.173  0.00  0.00    +0.000 C 
ATOM     25  O   UNL     1      23.057   2.390  48.450  0.00  0.00    +0.000 OA
ATOM     26  O   UNL     1      21.554   0.787  48.787  0.00  0.00    +0.000 OA
ENDBRANCH   4  24
BRANCH   1  27
ATOM     27  C   UNL     1      22.309   5.725  50.410  0.00  0.00    +0.000 C 
BRANCH  27  28
ATOM     28  C   UNL     1      23.485   6.353  51.176  0.00  0.00    +0.000 C 
BRANCH  28  29
ATOM     29  C   UNL     1      24.823   6.436  50.435  0.00  0.00    +0.000 C 
BRANCH  29  30
ATOM     30  C   UNL     1      24.981   5.510  49.226  0.00  0.00    +0.000 C 
BRANCH  30  32
ATOM     31  C   UNL     1      26.315   3.400  49.585  0.00  0.00    +0.000 C 
ATOM     32  C   UNL     1      26.359   4.851  49.131  0.00  0.00    +0.000 C 
ENDBRANCH  30  32
ENDBRANCH  29  30
ENDBRANCH  28  29
ENDBRANCH  27  28
ENDBRANCH   1  27
TORSDOF 9
ENDMDL
MODEL 8
REMARK VINA RESULT:    -6.933      2.250      7.163
REMARK INTER + INTRA:         -12.887
REMARK INTER:                 -10.967
REMARK INTRA:                  -1.920
REMARK UNBOUND:                -2.306
REMARK  Name = 
REMARK  11 active torsions:
REMARK  status: ('A' for Active; 'I' for Inactive)
REMARK    1  A    between atoms: C_1  and  C_2
REMARK    2  A    between atoms: C_2  and  C_3
REMARK    3  A    between atoms: C_3  and  C_4
REMARK    4  A    between atoms: C_4  and  C_5
REMARK    5  A    between atoms: C_5  and  C_6
REMARK    6  A    between atoms: C_6  and  N_7
REMARK    7  A    between atoms: C_9  and  C_10
REMARK    8  A    between atoms: C_19  and  C_20
REMARK    9  A    between atoms: C_23  and  C_24
REMARK   10  A    between atoms: C_27  and  O_28
REMARK   11  A    between atoms: O_28  and  C_29
REMARK                            x       y       z     vdW  Elec       q    Type
REMARK                         _______ _______ _______ _____ _____    ______ ____
ROOT
ATOM      1  N   UNL     1      23.142   3.792  52.595  0.00  0.00    +0.000 N 
ATOM      2  C   UNL     1      24.126   2.882  53.216  0.00  0.00    +0.000 C 
ATOM      3  C   UNL     1      25.139   2.625  52.106  0.00  0.00    +0.000 C 
ATOM      4  C   UNL     1      24.223   2.413  50.897  0.00  0.00    +0.000 C 
ATOM      5  C   UNL     1      22.968   3.266  51.205  0.00  0.00    +0.000 C 
ATOM      6  H   UNL     1      22.244   3.810  53.078  0.00  0.00    +0.000 HD
ENDROOT
BRANCH   3   7
ATOM      7  C   UNL     1      26.141   1.535  52.412  0.00  0.00    +0.000 A 
ATOM      8  C   UNL     1      25.873   0.167  52.183  0.00  0.00    +0.000 A 
ATOM      9  C   UNL     1      26.814  -0.815  52.520  0.00  0.00    +0.000 A 
ATOM     10  C   UNL     1      28.002  -0.406  53.087  0.00  0.00    +0.000 A 
ATOM     11  C   UNL     1      28.275   0.920  53.309  0.00  0.00    +0.000 A 
ATOM     12  C   UNL     1      27.374   1.908  52.979  0.00  0.00    +0.000 A 
ATOM     13  O   UNL     1      29.490   1.118  53.882  0.00  0.00    +0.000 OA
ATOM     14  C   UNL     1      29.942  -0.244  54.026  0.00  0.00    +0.000 C 
ATOM     15  O   UNL     1      29.016  -1.216  53.495  0.00  0.00    +0.000 OA
ENDBRANCH   3   7
BRANCH   5  16
ATOM     16  C   UNL     1      21.672   2.451  51.095  0.00  0.00    +0.000 A 
ATOM     17  C   UNL     1      21.488   1.497  50.080  0.00  0.00    +0.000 A 
ATOM     18  C   UNL     1      20.321   0.737  49.990  0.00  0.00    +0.000 A 
ATOM     19  C   UNL     1      19.303   0.910  50.916  0.00  0.00    +0.000 A 
ATOM     20  C   UNL     1      19.464   1.849  51.937  0.00  0.00    +0.000 A 
ATOM     21  C   UNL     1      20.639   2.609  52.031  0.00  0.00    +0.000 A 
BRANCH  19  22
ATOM     22  O   UNL     1      18.115   0.229  50.924  0.00  0.00    +0.000 OA
ATOM     23  C   UNL     1      17.876  -0.595  52.062  0.00  0.00    +0.000 C 
ENDBRANCH  19  22
ENDBRANCH   5  16
BRANCH   4  24
ATOM     24  C   UNL     1      24.882   2.896  49.632  0.00  0.00    +0.000 C 
ATOM     25  O   UNL     1      26.077   3.018  49.422  0.00  0.00    +0.000 OA
ATOM     26  O   UNL     1      23.993   3.238  48.679  0.00  0.00    +0.000 OA
ENDBRANCH   4  24
BRANCH   1  27
ATOM     27  C   UNL     1      23.589   5.194  52.667  0.00  0.00    +0.000 C 
BRANCH  27  28
ATOM     28  C   UNL     1      23.557   5.990  51.353  0.00  0.00    +0.000 C 
BRANCH  28  29
ATOM     29  C   UNL     1      24.891   6.562  50.863  0.00  0.00    +0.000 C 
BRANCH  29  30
ATOM     30  C   UNL     1      25.148   6.474  49.357  0.00  0.00    +0.000 C 
BRANCH  30  32
ATOM     31  C   UNL     1      27.450   6.050  48.417  0.00  0.00    +0.000 C 
ATOM     32  C   UNL     1      26.474   7.102  48.921  0.00  0.00    +0.000 C 
ENDBRANCH  30  32
ENDBRANCH  29  30
ENDBRANCH  28  29
ENDBRANCH  27  28
ENDBRANCH   1  27
TORSDOF 9
ENDMDL
MODEL 9
REMARK VINA RESULT:    -6.918      2.524      6.478
REMARK INTER + INTRA:         -12.864
REMARK INTER:                 -10.847
REMARK INTRA:                  -2.017
REMARK UNBOUND:                -2.306
REMARK  Name = 
REMARK  11 active torsions:
REMARK  status: ('A' for Active; 'I' for Inactive)
REMARK    1  A    between atoms: C_1  and  C_2
REMARK    2  A    between atoms: C_2  and  C_3
REMARK    3  A    between atoms: C_3  and  C_4
REMARK    4  A    between atoms: C_4  and  C_5
REMARK    5  A    between atoms: C_5  and  C_6
REMARK    6  A    between atoms: C_6  and  N_7
REMARK    7  A    between atoms: C_9  and  C_10
REMARK    8  A    between atoms: C_19  and  C_20
REMARK    9  A    between atoms: C_23  and  C_24
REMARK   10  A    between atoms: C_27  and  O_28
REMARK   11  A    between atoms: O_28  and  C_29
REMARK                            x       y       z     vdW  Elec       q    Type
REMARK                         _______ _______ _______ _____ _____    ______ ____
ROOT
ATOM      1  N   UNL     1      23.340   3.832  48.511  0.00  0.00    +0.000 N 
ATOM      2  C   UNL     1      23.584   2.573  49.245  0.00  0.00    +0.000 C 
ATOM      3  C   UNL     1      23.229   2.915  50.688  0.00  0.00    +0.000 C 
ATOM      4  C   UNL     1      23.878   4.293  50.847  0.00  0.00    +0.000 C 
ATOM      5  C   UNL     1      23.848   4.904  49.423  0.00  0.00    +0.000 C 
ATOM      6  H   UNL     1      23.822   3.879  47.614  0.00  0.00    +0.000 HD
ENDROOT
BRANCH   3   7
ATOM      7  C   UNL     1      23.607   1.854  51.695  0.00  0.00    +0.000 A 
ATOM      8  C   UNL     1      22.711   0.845  52.114  0.00  0.00    +0.000 A 
ATOM      9  C   UNL     1      23.089  -0.095  53.081  0.00  0.00    +0.000 A 
ATOM     10  C   UNL     1      24.356  -0.000  53.616  0.00  0.00    +0.000 A 
ATOM     11  C   UNL     1      25.236   0.971  53.213  0.00  0.00    +0.000 A 
ATOM     12  C   UNL     1      24.897   1.903  52.257  0.00  0.00    +0.000 A 
ATOM     13  O   UNL     1      26.428   0.903  53.862  0.00  0.00    +0.000 OA
ATOM     14  C   UNL     1      26.185  -0.208  54.748  0.00  0.00    +0.000 C 
ATOM     15  O   UNL     1      24.883  -0.808  54.576  0.00  0.00    +0.000 OA
ENDBRANCH   3   7
BRANCH   5  16
ATOM     16  C   UNL     1      25.233   5.386  48.970  0.00  0.00    +0.000 A 
ATOM     17  C   UNL     1      25.419   6.660  48.405  0.00  0.00    +0.000 A 
ATOM     18  C   UNL     1      26.680   7.111  48.013  0.00  0.00    +0.000 A 
ATOM     19  C   UNL     1      27.793   6.301  48.178  0.00  0.00    +0.000 A 
ATOM     20  C   UNL     1      27.634   5.033  48.742  0.00  0.00    +0.000 A 
ATOM     21  C   UNL     1      26.369   4.580  49.141  0.00  0.00    +0.000 A 
BRANCH  19  22
ATOM     22  O   UNL     1      29.074   6.633  47.826  0.00  0.00    +0.000 OA
ATOM     23  C   UNL     1      30.050   5.605  47.980  0.00  0.00    +0.000 C 
ENDBRANCH  19  22
ENDBRANCH   5  16
BRANCH   4  24
ATOM     24  C   UNL     1      23.089   5.153  51.798  0.00  0.00    +0.000 C 
ATOM     25  O   UNL     1      22.305   6.042  51.511  0.00  0.00    +0.000 OA
ATOM     26  O   UNL     1      23.346   4.872  53.090  0.00  0.00    +0.000 OA
ENDBRANCH   4  24
BRANCH   1  27
ATOM     27  C   UNL     1      21.922   3.967  48.138  0.00  0.00    +0.000 C 
BRANCH  27  28
ATOM     28  C   UNL     1      21.186   5.201  48.686  0.00  0.00    +0.000 C 
BRANCH  28  29
ATOM     29  C   UNL     1      19.951   4.936  49.552  0.00  0.00    +0.000 C 
BRANCH  29  30
ATOM     30  C   UNL     1      19.466   3.485  49.607  0.00  0.00    +0.000 C 
BRANCH  30  32
ATOM     31  C   UNL     1      19.906   3.358  52.087  0.00  0.00    +0.000 C 
ATOM     32  C   UNL     1      18.912   3.072  50.972  0.00  0.00    +0.000 C 
ENDBRANCH  30  32
ENDBRANCH  29  30
ENDBRANCH  28  29
ENDBRANCH  27  28
ENDBRANCH   1  27
TORSDOF 9
ENDMDL
