MODEL 1
REMARK VINA RESULT:    -8.205      0.000      0.000
REMARK INTER + INTRA:         -10.961
REMARK INTER:                 -10.363
REMARK INTRA:                  -0.598
REMARK UNBOUND:                -0.598
REMARK  Name = 
REMARK  7 active torsions:
REMARK  status: ('A' for Active; 'I' for Inactive)
REMARK    1  A    between atoms: C_1  and  O_2
REMARK    2  A    between atoms: O_2  and  C_3
REMARK    3  A    between atoms: C_7  and  N_8
REMARK    4  A    between atoms: N_14  and  C_15
REMARK    5  A    between atoms: C_24  and  N_25
REMARK    6  A    between atoms: C_28  and  O_29
REMARK    7  A    between atoms: O_29  and  C_30
REMARK                            x       y       z     vdW  Elec       q    Type
REMARK                         _______ _______ _______ _____ _____    ______ ____
ROOT
ATOM      1  C   UNL     1      15.800   2.028  50.319  0.00  0.00    +0.000 A 
ATOM      2  C   UNL     1      17.192   1.880  50.328  0.00  0.00    +0.000 A 
ATOM      3  C   UNL     1      17.838   1.006  51.188  0.00  0.00    +0.000 A 
ATOM      4  N   UNL     1      19.179   0.935  51.123  0.00  0.00    +0.000 NA
ATOM      5  C   UNL     1      19.847   0.095  51.937  0.00  0.00    +0.000 A 
ATOM      6  C   UNL     1      19.148  -0.708  52.835  0.00  0.00    +0.000 A 
ATOM      7  C   UNL     1      17.753  -0.692  52.883  0.00  0.00    +0.000 A 
ATOM      8  C   UNL     1      17.065   0.232  52.072  0.00  0.00    +0.000 A 
ATOM      9  C   UNL     1      15.659   0.420  52.103  0.00  0.00    +0.000 A 
ATOM     10  C   UNL     1      15.027   1.328  51.251  0.00  0.00    +0.000 A 
ENDROOT
BRANCH   5  11
ATOM     11  N   UNL     1      21.220   0.062  51.868  0.00  0.00    +0.000 N 
ATOM     12  C   UNL     1      21.992  -0.697  52.860  0.00  0.00    +0.000 C 
ATOM     13  C   UNL     1      22.974   0.217  53.618  0.00  0.00    +0.000 C 
ATOM     14  N   UNL     1      23.820   0.965  52.673  0.00  0.00    +0.000 N 
ATOM     15  C   UNL     1      25.195   0.916  52.495  0.00  0.00    +0.000 C 
ATOM     16  O   UNL     1      25.711   1.522  51.557  0.00  0.00    +0.000 OA
ATOM     17  N   UNL     1      25.905   0.169  53.409  0.00  0.00    +0.000 N 
ATOM     18  C   UNL     1      23.030   1.769  51.728  0.00  0.00    +0.000 C 
ATOM     19  C   UNL     1      21.982   0.933  50.962  0.00  0.00    +0.000 C 
ATOM     20  H   UNL     1      25.389  -0.234  54.144  0.00  0.00    +0.000 HD
BRANCH  17  21
ATOM     21  C   UNL     1      27.301  -0.084  53.402  0.00  0.00    +0.000 A 
ATOM     22  C   UNL     1      27.872  -1.314  53.062  0.00  0.00    +0.000 A 
ATOM     23  C   UNL     1      29.246  -1.531  53.208  0.00  0.00    +0.000 A 
ATOM     24  C   UNL     1      30.071  -0.513  53.671  0.00  0.00    +0.000 A 
ATOM     25  C   UNL     1      29.529   0.740  53.944  0.00  0.00    +0.000 A 
ATOM     26  C   UNL     1      28.152   0.956  53.802  0.00  0.00    +0.000 A 
ENDBRANCH  17  21
ENDBRANCH   5  11
BRANCH   7  27
ATOM     27  N   UNL     1      17.110  -1.441  53.890  0.00  0.00    +0.000 N 
ATOM     28  H   UNL     1      17.301  -2.402  53.986  0.00  0.00    +0.000 HD
ATOM     29  H   UNL     1      16.470  -1.003  54.497  0.00  0.00    +0.000 HD
ENDBRANCH   7  27
BRANCH   1  31
ATOM     30  C   UNL     1      15.228   4.260  49.794  0.00  0.00    +0.000 C 
ATOM     31  O   UNL     1      15.143   2.877  49.460  0.00  0.00    +0.000 OA
ENDBRANCH   1  31
BRANCH  10  32
ATOM     32  O   UNL     1      13.670   1.537  51.236  0.00  0.00    +0.000 OA
ATOM     33  C   UNL     1      13.123   2.181  52.382  0.00  0.00    +0.000 C 
ENDBRANCH  10  32
TORSDOF 5
ENDMDL
MODEL 2
REMARK VINA RESULT:    -8.188      3.788      4.871
REMARK INTER + INTRA:         -10.940
REMARK INTER:                 -10.456
REMARK INTRA:                  -0.484
REMARK UNBOUND:                -0.598
REMARK  Name = 
REMARK  7 active torsions:
REMARK  status: ('A' for Active; 'I' for Inactive)
REMARK    1  A    between atoms: C_1  and  O_2
REMARK    2  A    between atoms: O_2  and  C_3
REMARK    3  A    between atoms: C_7  and  N_8
REMARK    4  A    between atoms: N_14  and  C_15
REMARK    5  A    between atoms: C_24  and  N_25
REMARK    6  A    between atoms: C_28  and  O_29
REMARK    7  A    between atoms: O_29  and  C_30
REMARK                            x       y       z     vdW  Elec       q    Type
REMARK                         _______ _______ _______ _____ _____    ______ ____
ROOT
ATOM      1  C   UNL     1      16.938  -0.315  51.501  0.00  0.00    +0.000 A 
ATOM      2  C   UNL     1      18.090   0.450  51.280  0.00  0.00    +0.000 A 
ATOM      3  C   UNL     1      19.244   0.283  52.029  0.00  0.00    +0.000 A 
ATOM      4  N   UNL     1      20.298   1.067  51.743  0.00  0.00    +0.000 NA
ATOM      5  C   UNL     1      21.442   0.935  52.443  0.00  0.00    +0.000 A 
ATOM      6  C   UNL     1      21.536  -0.020  53.451  0.00  0.00    +0.000 A 
ATOM      7  C   UNL     1      20.473  -0.882  53.730  0.00  0.00    +0.000 A 
ATOM      8  C   UNL     1      19.261  -0.699  53.036  0.00  0.00    +0.000 A 
ATOM      9  C   UNL     1      18.079  -1.437  53.298  0.00  0.00    +0.000 A 
ATOM     10  C   UNL     1      16.914  -1.235  52.554  0.00  0.00    +0.000 A 
ENDROOT
BRANCH   5  11
ATOM     11  N   UNL     1      22.496   1.767  52.147  0.00  0.00    +0.000 N 
ATOM     12  C   UNL     1      22.377   2.755  51.067  0.00  0.00    +0.000 C 
ATOM     13  C   UNL     1      23.452   2.530  49.986  0.00  0.00    +0.000 C 
ATOM     14  N   UNL     1      24.794   2.489  50.591  0.00  0.00    +0.000 N 
ATOM     15  C   UNL     1      25.871   3.343  50.400  0.00  0.00    +0.000 C 
ATOM     16  O   UNL     1      26.875   3.225  51.100  0.00  0.00    +0.000 OA
ATOM     17  N   UNL     1      25.733   4.292  49.411  0.00  0.00    +0.000 N 
ATOM     18  C   UNL     1      24.912   1.451  51.626  0.00  0.00    +0.000 C 
ATOM     19  C   UNL     1      23.834   1.575  52.724  0.00  0.00    +0.000 C 
ATOM     20  H   UNL     1      24.901   4.261  48.884  0.00  0.00    +0.000 HD
BRANCH  17  21
ATOM     21  C   UNL     1      26.661   5.310  49.071  0.00  0.00    +0.000 A 
ATOM     22  C   UNL     1      26.390   6.678  49.166  0.00  0.00    +0.000 A 
ATOM     23  C   UNL     1      27.302   7.624  48.687  0.00  0.00    +0.000 A 
ATOM     24  C   UNL     1      28.507   7.215  48.128  0.00  0.00    +0.000 A 
ATOM     25  C   UNL     1      28.823   5.859  48.093  0.00  0.00    +0.000 A 
ATOM     26  C   UNL     1      27.908   4.912  48.569  0.00  0.00    +0.000 A 
ENDBRANCH  17  21
ENDBRANCH   5  11
BRANCH   7  27
ATOM     27  N   UNL     1      20.589  -1.749  54.836  0.00  0.00    +0.000 N 
ATOM     28  H   UNL     1      20.724  -1.381  55.739  0.00  0.00    +0.000 HD
ATOM     29  H   UNL     1      20.534  -2.724  54.706  0.00  0.00    +0.000 HD
ENDBRANCH   7  27
BRANCH   1  31
ATOM     30  C   UNL     1      15.780  -0.888  49.523  0.00  0.00    +0.000 C 
ATOM     31  O   UNL     1      15.791  -0.174  50.756  0.00  0.00    +0.000 OA
ENDBRANCH   1  31
BRANCH  10  32
ATOM     32  O   UNL     1      15.750  -1.931  52.762  0.00  0.00    +0.000 OA
ATOM     33  C   UNL     1      15.839  -3.348  52.646  0.00  0.00    +0.000 C 
ENDBRANCH  10  32
TORSDOF 5
ENDMDL
MODEL 3
REMARK VINA RESULT:    -7.983      4.042      9.391
REMARK INTER + INTRA:         -10.680
REMARK INTER:                 -10.555
REMARK INTRA:                  -0.126
REMARK UNBOUND:                -0.598
REMARK  Name = 
REMARK  7 active torsions:
REMARK  status: ('A' for Active; 'I' for Inactive)
REMARK    1  A    between atoms: C_1  and  O_2
REMARK    2  A    between atoms: O_2  and  C_3
REMARK    3  A    between atoms: C_7  and  N_8
REMARK    4  A    between atoms: N_14  and  C_15
REMARK    5  A    between atoms: C_24  and  N_25
REMARK    6  A    between atoms: C_28  and  O_29
REMARK    7  A    between atoms: O_29  and  C_30
REMARK                            x       y       z     vdW  Elec       q    Type
REMARK                         _______ _______ _______ _____ _____    ______ ____
ROOT
ATOM      1  C   UNL     1      24.410   6.114  48.383  0.00  0.00    +0.000 A 
ATOM      2  C   UNL     1      23.605   5.085  48.886  0.00  0.00    +0.000 A 
ATOM      3  C   UNL     1      24.102   4.098  49.723  0.00  0.00    +0.000 A 
ATOM      4  N   UNL     1      23.250   3.151  50.154  0.00  0.00    +0.000 NA
ATOM      5  C   UNL     1      23.689   2.176  50.973  0.00  0.00    +0.000 A 
ATOM      6  C   UNL     1      25.019   2.157  51.383  0.00  0.00    +0.000 A 
ATOM      7  C   UNL     1      25.909   3.160  50.994  0.00  0.00    +0.000 A 
ATOM      8  C   UNL     1      25.459   4.142  50.089  0.00  0.00    +0.000 A 
ATOM      9  C   UNL     1      26.289   5.151  49.538  0.00  0.00    +0.000 A 
ATOM     10  C   UNL     1      25.779   6.120  48.670  0.00  0.00    +0.000 A 
ENDROOT
BRANCH   5  11
ATOM     11  N   UNL     1      22.803   1.205  51.377  0.00  0.00    +0.000 N 
ATOM     12  C   UNL     1      21.463   1.133  50.781  0.00  0.00    +0.000 C 
ATOM     13  C   UNL     1      20.367   1.276  51.854  0.00  0.00    +0.000 C 
ATOM     14  N   UNL     1      20.574   0.302  52.938  0.00  0.00    +0.000 N 
ATOM     15  C   UNL     1      19.762  -0.749  53.342  0.00  0.00    +0.000 C 
ATOM     16  O   UNL     1      20.169  -1.543  54.188  0.00  0.00    +0.000 OA
ATOM     17  N   UNL     1      18.523  -0.830  52.747  0.00  0.00    +0.000 N 
ATOM     18  C   UNL     1      21.898   0.432  53.566  0.00  0.00    +0.000 C 
ATOM     19  C   UNL     1      23.053   0.351  52.546  0.00  0.00    +0.000 C 
ATOM     20  H   UNL     1      18.289  -0.111  52.116  0.00  0.00    +0.000 HD
BRANCH  17  21
ATOM     21  C   UNL     1      17.547  -1.841  52.944  0.00  0.00    +0.000 A 
ATOM     22  C   UNL     1      17.786  -3.035  53.631  0.00  0.00    +0.000 A 
ATOM     23  C   UNL     1      16.820  -4.046  53.670  0.00  0.00    +0.000 A 
ATOM     24  C   UNL     1      15.592  -3.865  53.045  0.00  0.00    +0.000 A 
ATOM     25  C   UNL     1      15.311  -2.652  52.419  0.00  0.00    +0.000 A 
ATOM     26  C   UNL     1      16.281  -1.643  52.376  0.00  0.00    +0.000 A 
ENDBRANCH  17  21
ENDBRANCH   5  11
BRANCH   7  27
ATOM     27  N   UNL     1      27.267   3.023  51.349  0.00  0.00    +0.000 N 
ATOM     28  H   UNL     1      27.969   3.158  50.671  0.00  0.00    +0.000 HD
ATOM     29  H   UNL     1      27.514   2.792  52.274  0.00  0.00    +0.000 HD
ENDBRANCH   7  27
BRANCH   1  31
ATOM     30  C   UNL     1      22.687   6.824  46.930  0.00  0.00    +0.000 C 
ATOM     31  O   UNL     1      23.930   7.109  47.566  0.00  0.00    +0.000 OA
ENDBRANCH   1  31
BRANCH  10  32
ATOM     32  O   UNL     1      26.539   7.121  48.120  0.00  0.00    +0.000 OA
ATOM     33  C   UNL     1      27.932   6.852  47.990  0.00  0.00    +0.000 C 
ENDBRANCH  10  32
TORSDOF 5
ENDMDL
MODEL 4
REMARK VINA RESULT:    -7.933      5.141      6.770
REMARK INTER + INTRA:         -10.618
REMARK INTER:                 -10.291
REMARK INTRA:                  -0.327
REMARK UNBOUND:                -0.598
REMARK  Name = 
REMARK  7 active torsions:
REMARK  status: ('A' for Active; 'I' for Inactive)
REMARK    1  A    between atoms: C_1  and  O_2
REMARK    2  A    between atoms: O_2  and  C_3
REMARK    3  A    between atoms: C_7  and  N_8
REMARK    4  A    between atoms: N_14  and  C_15
REMARK    5  A    between atoms: C_24  and  N_25
REMARK    6  A    between atoms: C_28  and  O_29
REMARK    7  A    between atoms: O_29  and  C_30
REMARK                            x       y       z     vdW  Elec       q    Type
REMARK                         _______ _______ _______ _____ _____    ______ ____
ROOT
ATOM      1  C   UNL     1      21.436   0.042  53.755  0.00  0.00    +0.000 A 
ATOM      2  C   UNL     1      22.404   0.782  53.065  0.00  0.00    +0.000 A 
ATOM      3  C   UNL     1      22.184   1.281  51.791  0.00  0.00    +0.000 A 
ATOM      4  N   UNL     1      23.175   1.978  51.208  0.00  0.00    +0.000 NA
ATOM      5  C   UNL     1      23.004   2.486  49.973  0.00  0.00    +0.000 A 
ATOM      6  C   UNL     1      21.796   2.300  49.306  0.00  0.00    +0.000 A 
ATOM      7  C   UNL     1      20.733   1.627  49.911  0.00  0.00    +0.000 A 
ATOM      8  C   UNL     1      20.940   1.047  51.178  0.00  0.00    +0.000 A 
ATOM      9  C   UNL     1      19.979   0.252  51.853  0.00  0.00    +0.000 A 
ATOM     10  C   UNL     1      20.228  -0.270  53.123  0.00  0.00    +0.000 A 
ENDROOT
BRANCH   5  11
ATOM     11  N   UNL     1      24.043   3.172  49.391  0.00  0.00    +0.000 N 
ATOM     12  C   UNL     1      25.426   2.709  49.568  0.00  0.00    +0.000 C 
ATOM     13  C   UNL     1      26.296   3.795  50.229  0.00  0.00    +0.000 C 
ATOM     14  N   UNL     1      26.198   5.061  49.484  0.00  0.00    +0.000 N 
ATOM     15  C   UNL     1      27.186   5.761  48.806  0.00  0.00    +0.000 C 
ATOM     16  O   UNL     1      26.884   6.739  48.126  0.00  0.00    +0.000 OA
ATOM     17  N   UNL     1      28.475   5.294  48.947  0.00  0.00    +0.000 N 
ATOM     18  C   UNL     1      24.813   5.542  49.373  0.00  0.00    +0.000 C 
ATOM     19  C   UNL     1      23.862   4.489  48.764  0.00  0.00    +0.000 C 
ATOM     20  H   UNL     1      28.602   4.529  49.555  0.00  0.00    +0.000 HD
BRANCH  17  21
ATOM     21  C   UNL     1      29.638   5.796  48.309  0.00  0.00    +0.000 A 
ATOM     22  C   UNL     1      30.572   4.996  47.644  0.00  0.00    +0.000 A 
ATOM     23  C   UNL     1      31.764   5.541  47.154  0.00  0.00    +0.000 A 
ATOM     24  C   UNL     1      32.025   6.899  47.302  0.00  0.00    +0.000 A 
ATOM     25  C   UNL     1      31.072   7.721  47.897  0.00  0.00    +0.000 A 
ATOM     26  C   UNL     1      29.881   7.174  48.390  0.00  0.00    +0.000 A 
ENDBRANCH  17  21
ENDBRANCH   5  11
BRANCH   7  27
ATOM     27  N   UNL     1      19.578   1.372  49.142  0.00  0.00    +0.000 N 
ATOM     28  H   UNL     1      19.237   2.059  48.524  0.00  0.00    +0.000 HD
ATOM     29  H   UNL     1      19.112   0.508  49.223  0.00  0.00    +0.000 HD
ENDBRANCH   7  27
BRANCH   1  31
ATOM     30  C   UNL     1      22.643  -1.441  55.143  0.00  0.00    +0.000 C 
ATOM     31  O   UNL     1      21.631  -0.445  55.026  0.00  0.00    +0.000 OA
ENDBRANCH   1  31
BRANCH  10  32
ATOM     32  O   UNL     1      19.326  -1.034  53.821  0.00  0.00    +0.000 OA
ATOM     33  C   UNL     1      18.048  -1.205  53.214  0.00  0.00    +0.000 C 
ENDBRANCH  10  32
TORSDOF 5
ENDMDL
MODEL 5
REMARK VINA RESULT:    -7.909      6.200     11.385
REMARK INTER + INTRA:         -10.588
REMARK INTER:                 -10.006
REMARK INTRA:                  -0.582
REMARK UNBOUND:                -0.598
REMARK  Name = 
REMARK  7 active torsions:
REMARK  status: ('A' for Active; 'I' for Inactive)
REMARK    1  A    between atoms: C_1  and  O_2
REMARK    2  A    between atoms: O_2  and  C_3
REMARK    3  A    between atoms: C_7  and  N_8
REMARK    4  A    between atoms: N_14  and  C_15
REMARK    5  A    between atoms: C_24  and  N_25
REMARK    6  A    between atoms: C_28  and  O_29
REMARK    7  A    between atoms: O_29  and  C_30
REMARK                            x       y       z     vdW  Elec       q    Type
REMARK                         _______ _______ _______ _____ _____    ______ ____
ROOT
ATOM      1  C   UNL     1      29.758   7.336  47.674  0.00  0.00    +0.000 A 
ATOM      2  C   UNL     1      28.795   6.363  47.972  0.00  0.00    +0.000 A 
ATOM      3  C   UNL     1      27.680   6.640  48.746  0.00  0.00    +0.000 A 
ATOM      4  N   UNL     1      26.812   5.639  48.979  0.00  0.00    +0.000 NA
ATOM      5  C   UNL     1      25.712   5.864  49.722  0.00  0.00    +0.000 A 
ATOM      6  C   UNL     1      25.467   7.134  50.238  0.00  0.00    +0.000 A 
ATOM      7  C   UNL     1      26.324   8.201  49.965  0.00  0.00    +0.000 A 
ATOM      8  C   UNL     1      27.504   7.945  49.238  0.00  0.00    +0.000 A 
ATOM      9  C   UNL     1      28.505   8.918  48.984  0.00  0.00    +0.000 A 
ATOM     10  C   UNL     1      29.639   8.615  48.227  0.00  0.00    +0.000 A 
ENDROOT
BRANCH   5  11
ATOM     11  N   UNL     1      24.855   4.817  49.966  0.00  0.00    +0.000 N 
ATOM     12  C   UNL     1      23.495   5.073  50.457  0.00  0.00    +0.000 C 
ATOM     13  C   UNL     1      23.251   4.379  51.811  0.00  0.00    +0.000 C 
ATOM     14  N   UNL     1      23.576   2.946  51.724  0.00  0.00    +0.000 N 
ATOM     15  C   UNL     1      22.745   1.845  51.876  0.00  0.00    +0.000 C 
ATOM     16  O   UNL     1      23.175   0.718  51.633  0.00  0.00    +0.000 OA
ATOM     17  N   UNL     1      21.459   2.101  52.298  0.00  0.00    +0.000 N 
ATOM     18  C   UNL     1      24.963   2.710  51.293  0.00  0.00    +0.000 C 
ATOM     19  C   UNL     1      25.304   3.417  49.964  0.00  0.00    +0.000 C 
ATOM     20  H   UNL     1      21.243   3.039  52.505  0.00  0.00    +0.000 HD
BRANCH  17  21
ATOM     21  C   UNL     1      20.413   1.158  52.465  0.00  0.00    +0.000 A 
ATOM     22  C   UNL     1      20.375   0.206  53.487  0.00  0.00    +0.000 A 
ATOM     23  C   UNL     1      19.383  -0.781  53.512  0.00  0.00    +0.000 A 
ATOM     24  C   UNL     1      18.402  -0.812  52.528  0.00  0.00    +0.000 A 
ATOM     25  C   UNL     1      18.384   0.174  51.544  0.00  0.00    +0.000 A 
ATOM     26  C   UNL     1      19.380   1.158  51.518  0.00  0.00    +0.000 A 
ENDBRANCH  17  21
ENDBRANCH   5  11
BRANCH   7  27
ATOM     27  N   UNL     1      26.084   9.433  50.609  0.00  0.00    +0.000 N 
ATOM     28  H   UNL     1      25.632   9.452  51.483  0.00  0.00    +0.000 HD
ATOM     29  H   UNL     1      26.369  10.275  50.183  0.00  0.00    +0.000 HD
ENDBRANCH   7  27
BRANCH   1  31
ATOM     30  C   UNL     1      31.618   5.936  47.268  0.00  0.00    +0.000 C 
ATOM     31  O   UNL     1      30.861   7.083  46.893  0.00  0.00    +0.000 OA
ENDBRANCH   1  31
BRANCH  10  32
ATOM     32  O   UNL     1      30.628   9.524  47.945  0.00  0.00    +0.000 OA
ATOM     33  C   UNL     1      30.597  10.736  48.692  0.00  0.00    +0.000 C 
ENDBRANCH  10  32
TORSDOF 5
ENDMDL
MODEL 6
REMARK VINA RESULT:    -7.812      2.744     10.806
REMARK INTER + INTRA:         -10.465
REMARK INTER:                  -9.922
REMARK INTRA:                  -0.542
REMARK UNBOUND:                -0.598
REMARK  Name = 
REMARK  7 active torsions:
REMARK  status: ('A' for Active; 'I' for Inactive)
REMARK    1  A    between atoms: C_1  and  O_2
REMARK    2  A    between atoms: O_2  and  C_3
REMARK    3  A    between atoms: C_7  and  N_8
REMARK    4  A    between atoms: N_14  and  C_15
REMARK    5  A    between atoms: C_24  and  N_25
REMARK    6  A    between atoms: C_28  and  O_29
REMARK    7  A    between atoms: O_29  and  C_30
REMARK                            x       y       z     vdW  Elec       q    Type
REMARK                         _______ _______ _______ _____ _____    ______ ____
ROOT
ATOM      1  C   UNL     1      28.006  -0.660  53.311  0.00  0.00    +0.000 A 
ATOM      2  C   UNL     1      26.683  -1.065  53.098  0.00  0.00    +0.000 A 
ATOM      3  C   UNL     1      25.627  -0.166  53.088  0.00  0.00    +0.000 A 
ATOM      4  N   UNL     1      24.391  -0.651  52.877  0.00  0.00    +0.000 NA
ATOM      5  C   UNL     1      23.336   0.185  52.854  0.00  0.00    +0.000 A 
ATOM      6  C   UNL     1      23.528   1.553  53.035  0.00  0.00    +0.000 A 
ATOM      7  C   UNL     1      24.807   2.086  53.201  0.00  0.00    +0.000 A 
ATOM      8  C   UNL     1      25.898   1.199  53.285  0.00  0.00    +0.000 A 
ATOM      9  C   UNL     1      27.230   1.605  53.554  0.00  0.00    +0.000 A 
ATOM     10  C   UNL     1      28.279   0.683  53.592  0.00  0.00    +0.000 A 
ENDROOT
BRANCH   5  11
ATOM     11  N   UNL     1      22.080  -0.340  52.663  0.00  0.00    +0.000 N 
ATOM     12  C   UNL     1      21.128   0.327  51.767  0.00  0.00    +0.000 C 
ATOM     13  C   UNL     1      19.841   0.722  52.516  0.00  0.00    +0.000 C 
ATOM     14  N   UNL     1      19.267  -0.443  53.209  0.00  0.00    +0.000 N 
ATOM     15  C   UNL     1      18.046  -1.073  53.008  0.00  0.00    +0.000 C 
ATOM     16  O   UNL     1      17.796  -2.122  53.598  0.00  0.00    +0.000 OA
ATOM     17  N   UNL     1      17.176  -0.458  52.133  0.00  0.00    +0.000 N 
ATOM     18  C   UNL     1      20.214  -1.060  54.150  0.00  0.00    +0.000 C 
ATOM     19  C   UNL     1      21.555  -1.439  53.485  0.00  0.00    +0.000 C 
ATOM     20  H   UNL     1      17.467   0.403  51.756  0.00  0.00    +0.000 HD
BRANCH  17  21
ATOM     21  C   UNL     1      15.906  -0.935  51.719  0.00  0.00    +0.000 A 
ATOM     22  C   UNL     1      14.794  -1.030  52.560  0.00  0.00    +0.000 A 
ATOM     23  C   UNL     1      13.612  -1.636  52.121  0.00  0.00    +0.000 A 
ATOM     24  C   UNL     1      13.520  -2.133  50.825  0.00  0.00    +0.000 A 
ATOM     25  C   UNL     1      14.594  -1.980  49.952  0.00  0.00    +0.000 A 
ATOM     26  C   UNL     1      15.778  -1.377  50.395  0.00  0.00    +0.000 A 
ENDBRANCH  17  21
ENDBRANCH   5  11
BRANCH   7  27
ATOM     27  N   UNL     1      24.925   3.461  53.494  0.00  0.00    +0.000 N 
ATOM     28  H   UNL     1      25.683   3.787  54.031  0.00  0.00    +0.000 HD
ATOM     29  H   UNL     1      24.249   4.095  53.161  0.00  0.00    +0.000 HD
ENDBRANCH   7  27
BRANCH   1  31
ATOM     30  C   UNL     1      28.724  -2.900  53.091  0.00  0.00    +0.000 C 
ATOM     31  O   UNL     1      29.067  -1.534  53.306  0.00  0.00    +0.000 OA
ENDBRANCH   1  31
BRANCH  10  32
ATOM     32  O   UNL     1      29.584   1.028  53.838  0.00  0.00    +0.000 OA
ATOM     33  C   UNL     1      29.786   2.184  54.646  0.00  0.00    +0.000 C 
ENDBRANCH  10  32
TORSDOF 5
ENDMDL
MODEL 7
REMARK VINA RESULT:    -7.731      6.569     11.144
REMARK INTER + INTRA:         -10.363
REMARK INTER:                  -9.981
REMARK INTRA:                  -0.382
REMARK UNBOUND:                -0.598
REMARK  Name = 
REMARK  7 active torsions:
REMARK  status: ('A' for Active; 'I' for Inactive)
REMARK    1  A    between atoms: C_1  and  O_2
REMARK    2  A    between atoms: O_2  and  C_3
REMARK    3  A    between atoms: C_7  and  N_8
REMARK    4  A    between atoms: N_14  and  C_15
REMARK    5  A    between atoms: C_24  and  N_25
REMARK    6  A    between atoms: C_28  and  O_29
REMARK    7  A    between atoms: O_29  and  C_30
REMARK                            x       y       z     vdW  Elec       q    Type
REMARK                         _______ _______ _______ _____ _____    ______ ____
ROOT
ATOM      1  C   UNL     1      29.892   8.080  47.710  0.00  0.00    +0.000 A 
ATOM      2  C   UNL     1      29.227   6.957  48.218  0.00  0.00    +0.000 A 
ATOM      3  C   UNL     1      27.846   6.893  48.309  0.00  0.00    +0.000 A 
ATOM      4  N   UNL     1      27.300   5.772  48.812  0.00  0.00    +0.000 NA
ATOM      5  C   UNL     1      25.961   5.664  48.915  0.00  0.00    +0.000 A 
ATOM      6  C   UNL     1      25.144   6.708  48.488  0.00  0.00    +0.000 A 
ATOM      7  C   UNL     1      25.685   7.859  47.912  0.00  0.00    +0.000 A 
ATOM      8  C   UNL     1      27.087   7.990  47.864  0.00  0.00    +0.000 A 
ATOM      9  C   UNL     1      27.759   9.150  47.400  0.00  0.00    +0.000 A 
ATOM     10  C   UNL     1      29.153   9.210  47.344  0.00  0.00    +0.000 A 
ENDROOT
BRANCH   5  11
ATOM     11  N   UNL     1      25.431   4.517  49.457  0.00  0.00    +0.000 N 
ATOM     12  C   UNL     1      24.132   4.555  50.141  0.00  0.00    +0.000 C 
ATOM     13  C   UNL     1      24.258   4.084  51.602  0.00  0.00    +0.000 C 
ATOM     14  N   UNL     1      24.910   2.766  51.667  0.00  0.00    +0.000 N 
ATOM     15  C   UNL     1      24.405   1.556  52.123  0.00  0.00    +0.000 C 
ATOM     16  O   UNL     1      25.060   0.527  51.974  0.00  0.00    +0.000 OA
ATOM     17  N   UNL     1      23.167   1.597  52.727  0.00  0.00    +0.000 N 
ATOM     18  C   UNL     1      26.238   2.764  51.034  0.00  0.00    +0.000 C 
ATOM     19  C   UNL     1      26.206   3.274  49.577  0.00  0.00    +0.000 C 
ATOM     20  H   UNL     1      22.758   2.487  52.831  0.00  0.00    +0.000 HD
BRANCH  17  21
ATOM     21  C   UNL     1      22.420   0.494  53.213  0.00  0.00    +0.000 A 
ATOM     22  C   UNL     1      21.084   0.249  52.882  0.00  0.00    +0.000 A 
ATOM     23  C   UNL     1      20.369  -0.780  53.504  0.00  0.00    +0.000 A 
ATOM     24  C   UNL     1      20.988  -1.593  54.446  0.00  0.00    +0.000 A 
ATOM     25  C   UNL     1      22.338  -1.408  54.732  0.00  0.00    +0.000 A 
ATOM     26  C   UNL     1      23.052  -0.375  54.113  0.00  0.00    +0.000 A 
ENDBRANCH  17  21
ENDBRANCH   5  11
BRANCH   7  27
ATOM     27  N   UNL     1      24.814   8.925  47.606  0.00  0.00    +0.000 N 
ATOM     28  H   UNL     1      25.133   9.855  47.665  0.00  0.00    +0.000 HD
ATOM     29  H   UNL     1      23.885   8.741  47.334  0.00  0.00    +0.000 HD
ENDBRANCH   7  27
BRANCH   1  31
ATOM     30  C   UNL     1      31.970   8.166  48.831  0.00  0.00    +0.000 C 
ATOM     31  O   UNL     1      31.260   8.153  47.596  0.00  0.00    +0.000 OA
ENDBRANCH   1  31
BRANCH  10  32
ATOM     32  O   UNL     1      29.848  10.304  46.893  0.00  0.00    +0.000 OA
ATOM     33  C   UNL     1      30.054  11.349  47.840  0.00  0.00    +0.000 C 
ENDBRANCH  10  32
TORSDOF 5
ENDMDL
MODEL 8
REMARK VINA RESULT:    -7.662      2.485     10.804
REMARK INTER + INTRA:         -10.276
REMARK INTER:                  -9.999
REMARK INTRA:                  -0.276
REMARK UNBOUND:                -0.598
REMARK  Name = 
REMARK  7 active torsions:
REMARK  status: ('A' for Active; 'I' for Inactive)
REMARK    1  A    between atoms: C_1  and  O_2
REMARK    2  A    between atoms: O_2  and  C_3
REMARK    3  A    between atoms: C_7  and  N_8
REMARK    4  A    between atoms: N_14  and  C_15
REMARK    5  A    between atoms: C_24  and  N_25
REMARK    6  A    between atoms: C_28  and  O_29
REMARK    7  A    between atoms: O_29  and  C_30
REMARK                            x       y       z     vdW  Elec       q    Type
REMARK                         _______ _______ _______ _____ _____    ______ ____
ROOT
ATOM      1  C   UNL     1      26.054   0.017  52.971  0.00  0.00    +0.000 A 
ATOM      2  C   UNL     1      24.724   0.454  52.968  0.00  0.00    +0.000 A 
ATOM      3  C   UNL     1      24.344   1.662  52.405  0.00  0.00    +0.000 A 
ATOM      4  N   UNL     1      23.042   1.996  52.452  0.00  0.00    +0.000 NA
ATOM      5  C   UNL     1      22.627   3.158  51.913  0.00  0.00    +0.000 A 
ATOM      6  C   UNL     1      23.543   4.006  51.297  0.00  0.00    +0.000 A 
ATOM      7  C   UNL     1      24.890   3.656  51.187  0.00  0.00    +0.000 A 
ATOM      8  C   UNL     1      25.327   2.468  51.806  0.00  0.00    +0.000 A 
ATOM      9  C   UNL     1      26.683   2.054  51.856  0.00  0.00    +0.000 A 
ATOM     10  C   UNL     1      27.054   0.848  52.454  0.00  0.00    +0.000 A 
ENDROOT
BRANCH   5  11
ATOM     11  N   UNL     1      21.294   3.486  51.999  0.00  0.00    +0.000 N 
ATOM     12  C   UNL     1      20.378   2.658  52.793  0.00  0.00    +0.000 C 
ATOM     13  C   UNL     1      19.235   2.101  51.923  0.00  0.00    +0.000 C 
ATOM     14  N   UNL     1      18.556   3.189  51.201  0.00  0.00    +0.000 N 
ATOM     15  C   UNL     1      17.242   3.625  51.301  0.00  0.00    +0.000 C 
ATOM     16  O   UNL     1      16.890   4.644  50.709  0.00  0.00    +0.000 OA
ATOM     17  N   UNL     1      16.401   2.862  52.081  0.00  0.00    +0.000 N 
ATOM     18  C   UNL     1      19.479   3.968  50.361  0.00  0.00    +0.000 C 
ATOM     19  C   UNL     1      20.685   4.521  51.151  0.00  0.00    +0.000 C 
ATOM     20  H   UNL     1      16.784   2.041  52.469  0.00  0.00    +0.000 HD
BRANCH  17  21
ATOM     21  C   UNL     1      15.043   3.133  52.386  0.00  0.00    +0.000 A 
ATOM     22  C   UNL     1      13.960   2.560  51.713  0.00  0.00    +0.000 A 
ATOM     23  C   UNL     1      12.651   2.975  51.976  0.00  0.00    +0.000 A 
ATOM     24  C   UNL     1      12.405   3.952  52.934  0.00  0.00    +0.000 A 
ATOM     25  C   UNL     1      13.466   4.479  53.665  0.00  0.00    +0.000 A 
ATOM     26  C   UNL     1      14.777   4.066  53.398  0.00  0.00    +0.000 A 
ENDBRANCH  17  21
ENDBRANCH   5  11
BRANCH   7  27
ATOM     27  N   UNL     1      25.786   4.607  50.654  0.00  0.00    +0.000 N 
ATOM     28  H   UNL     1      26.749   4.538  50.847  0.00  0.00    +0.000 HD
ATOM     29  H   UNL     1      25.448   5.340  50.090  0.00  0.00    +0.000 HD
ENDBRANCH   7  27
BRANCH   1  31
ATOM     30  C   UNL     1      26.797  -2.188  52.559  0.00  0.00    +0.000 C 
ATOM     31  O   UNL     1      26.446  -1.186  53.509  0.00  0.00    +0.000 OA
ENDBRANCH   1  31
BRANCH  10  32
ATOM     32  O   UNL     1      28.349   0.399  52.518  0.00  0.00    +0.000 OA
ATOM     33  C   UNL     1      29.099   0.811  53.657  0.00  0.00    +0.000 C 
ENDBRANCH  10  32
TORSDOF 5
ENDMDL
MODEL 9
REMARK VINA RESULT:    -7.613      6.660     10.866
REMARK INTER + INTRA:         -10.214
REMARK INTER:                  -9.704
REMARK INTRA:                  -0.510
REMARK UNBOUND:                -0.598
REMARK  Name = 
REMARK  7 active torsions:
REMARK  status: ('A' for Active; 'I' for Inactive)
REMARK    1  A    between atoms: C_1  and  O_2
REMARK    2  A    between atoms: O_2  and  C_3
REMARK    3  A    between atoms: C_7  and  N_8
REMARK    4  A    between atoms: N_14  and  C_15
REMARK    5  A    between atoms: C_24  and  N_25
REMARK    6  A    between atoms: C_28  and  O_29
REMARK    7  A    between atoms: O_29  and  C_30
REMARK                            x       y       z     vdW  Elec       q    Type
REMARK                         _______ _______ _______ _____ _____    ______ ____
ROOT
ATOM      1  C   UNL     1      26.900  10.054  48.334  0.00  0.00    +0.000 A 
ATOM      2  C   UNL     1      26.240   8.916  48.815  0.00  0.00    +0.000 A 
ATOM      3  C   UNL     1      26.808   7.653  48.757  0.00  0.00    +0.000 A 
ATOM      4  N   UNL     1      26.096   6.621  49.242  0.00  0.00    +0.000 NA
ATOM      5  C   UNL     1      26.610   5.376  49.211  0.00  0.00    +0.000 A 
ATOM      6  C   UNL     1      27.883   5.162  48.689  0.00  0.00    +0.000 A 
ATOM      7  C   UNL     1      28.663   6.224  48.229  0.00  0.00    +0.000 A 
ATOM      8  C   UNL     1      28.095   7.514  48.209  0.00  0.00    +0.000 A 
ATOM      9  C   UNL     1      28.743   8.656  47.672  0.00  0.00    +0.000 A 
ATOM     10  C   UNL     1      28.144   9.917  47.710  0.00  0.00    +0.000 A 
ENDROOT
BRANCH   5  11
ATOM     11  N   UNL     1      25.850   4.336  49.690  0.00  0.00    +0.000 N 
ATOM     12  C   UNL     1      24.503   4.587  50.220  0.00  0.00    +0.000 C 
ATOM     13  C   UNL     1      24.388   4.131  51.687  0.00  0.00    +0.000 C 
ATOM     14  N   UNL     1      24.816   2.729  51.829  0.00  0.00    +0.000 N 
ATOM     15  C   UNL     1      24.081   1.622  52.226  0.00  0.00    +0.000 C 
ATOM     16  O   UNL     1      24.581   0.500  52.155  0.00  0.00    +0.000 OA
ATOM     17  N   UNL     1      22.804   1.865  52.683  0.00  0.00    +0.000 N 
ATOM     18  C   UNL     1      26.190   2.511  51.353  0.00  0.00    +0.000 C 
ATOM     19  C   UNL     1      26.403   2.991  49.901  0.00  0.00    +0.000 C 
ATOM     20  H   UNL     1      22.529   2.808  52.738  0.00  0.00    +0.000 HD
BRANCH  17  21
ATOM     21  C   UNL     1      21.844   0.900  53.082  0.00  0.00    +0.000 A 
ATOM     22  C   UNL     1      22.049  -0.033  54.103  0.00  0.00    +0.000 A 
ATOM     23  C   UNL     1      21.113  -1.042  54.352  0.00  0.00    +0.000 A 
ATOM     24  C   UNL     1      19.946  -1.115  53.599  0.00  0.00    +0.000 A 
ATOM     25  C   UNL     1      19.693  -0.150  52.628  0.00  0.00    +0.000 A 
ATOM     26  C   UNL     1      20.633   0.857  52.377  0.00  0.00    +0.000 A 
ENDBRANCH  17  21
ENDBRANCH   5  11
BRANCH   7  27
ATOM     27  N   UNL     1      29.895   5.930  47.608  0.00  0.00    +0.000 N 
ATOM     28  H   UNL     1      29.995   5.105  47.080  0.00  0.00    +0.000 HD
ATOM     29  H   UNL     1      30.655   6.548  47.703  0.00  0.00    +0.000 HD
ENDBRANCH   7  27
BRANCH   1  31
ATOM     30  C   UNL     1      25.152  11.497  47.664  0.00  0.00    +0.000 C 
ATOM     31  O   UNL     1      26.359  11.316  48.399  0.00  0.00    +0.000 OA
ENDBRANCH   1  31
BRANCH  10  32
ATOM     32  O   UNL     1      28.734  11.053  47.214  0.00  0.00    +0.000 OA
ATOM     33  C   UNL     1      30.101  11.252  47.564  0.00  0.00    +0.000 C 
ENDBRANCH  10  32
TORSDOF 5
ENDMDL
