MODEL 1
REMARK VINA RESULT:    -8.722      0.000      0.000
REMARK INTER + INTRA:         -13.103
REMARK INTER:                 -11.781
REMARK INTRA:                  -1.322
REMARK UNBOUND:                -1.322
REMARK  Name = 
REMARK  13 active torsions:
REMARK  status: ('A' for Active; 'I' for Inactive)
REMARK    1  A    between atoms: C_1  and  C_2
REMARK    2  A    between atoms: C_2  and  C_3
REMARK    3  A    between atoms: C_3  and  C_4
REMARK    4  A    between atoms: C_10  and  C_11
REMARK    5  A    between atoms: C_11  and  C_13
REMARK    6  A    between atoms: C_13  and  C_14
REMARK    7  A    between atoms: C_13  and  C_15
REMARK    8  A    between atoms: C_15  and  C_16
REMARK    9  A    between atoms: C_15  and  C_17
REMARK   10  A    between atoms: C_15  and  O_18
REMARK   11  A    between atoms: C_19  and  O_20
REMARK   12  A    between atoms: C_25  and  C_26
REMARK   13  A    between atoms: C_25  and  C_27
REMARK                            x       y       z     vdW  Elec       q    Type
REMARK                         _______ _______ _______ _____ _____    ______ ____
ROOT
ATOM      1  C   UNL     1      21.464   1.204  52.714  0.00  0.00    +0.000 A 
ATOM      2  C   UNL     1      21.519   0.381  53.786  0.00  0.00    +0.000 A 
ATOM      3  C   UNL     1      22.294  -0.841  53.681  0.00  0.00    +0.000 A 
ATOM      4  O   UNL     1      21.934  -1.925  54.120  0.00  0.00    +0.000 OA
ATOM      5  O   UNL     1      23.529  -0.594  53.167  0.00  0.00    +0.000 OA
ATOM      6  C   UNL     1      23.804   0.627  52.531  0.00  0.00    +0.000 A 
ATOM      7  C   UNL     1      25.134   1.033  52.492  0.00  0.00    +0.000 A 
ATOM      8  C   UNL     1      25.449   2.043  51.577  0.00  0.00    +0.000 A 
ATOM      9  C   UNL     1      24.471   2.594  50.729  0.00  0.00    +0.000 A 
ATOM     10  C   UNL     1      23.113   2.271  50.935  0.00  0.00    +0.000 A 
ATOM     11  C   UNL     1      22.750   1.362  51.945  0.00  0.00    +0.000 A 
ATOM     12  O   UNL     1      22.126   2.853  50.152  0.00  0.00    +0.000 OA
ATOM     13  C   UNL     1      22.501   3.389  48.855  0.00  0.00    +0.000 C 
ATOM     14  C   UNL     1      22.277   2.320  47.774  0.00  0.00    +0.000 C 
ATOM     15  C   UNL     1      21.563   4.577  48.569  0.00  0.00    +0.000 C 
ATOM     16  C   UNL     1      23.925   3.895  48.774  0.00  0.00    +0.000 C 
ATOM     17  C   UNL     1      24.829   3.536  49.680  0.00  0.00    +0.000 C 
ENDROOT
BRANCH   7  18
ATOM     18  C   UNL     1      26.137   0.616  53.527  0.00  0.00    +0.000 C 
ATOM     19  O   UNL     1      26.092   1.250  54.595  0.00  0.00    +0.000 OA
BRANCH  18  20
ATOM     20  C   UNL     1      27.114  -0.579  53.443  0.00  0.00    +0.000 C 
ATOM     21  C   UNL     1      26.854  -1.467  52.211  0.00  0.00    +0.000 C 
BRANCH  20  22
ATOM     22  C   UNL     1      28.579  -0.286  53.908  0.00  0.00    +0.000 C 
ATOM     23  C   UNL     1      29.459  -1.488  53.524  0.00  0.00    +0.000 C 
ATOM     24  C   UNL     1      29.163   0.987  53.275  0.00  0.00    +0.000 C 
BRANCH  22  25
ATOM     25  O   UNL     1      28.725  -0.193  55.322  0.00  0.00    +0.000 OA
ATOM     26  H   UNL     1      29.475  -0.739  55.606  0.00  0.00    +0.000 HD
ENDBRANCH  22  25
ENDBRANCH  20  22
ENDBRANCH  18  20
ENDBRANCH   7  18
BRANCH   8  27
ATOM     27  O   UNL     1      26.731   2.537  51.466  0.00  0.00    +0.000 OA
ATOM     28  H   UNL     1      27.463   1.953  51.504  0.00  0.00    +0.000 HD
ENDBRANCH   8  27
BRANCH   1  29
ATOM     29  C   UNL     1      20.323   2.178  52.772  0.00  0.00    +0.000 C 
BRANCH  29  31
ATOM     30  C   UNL     1      19.275   0.678  50.954  0.00  0.00    +0.000 C 
ATOM     31  C   UNL     1      19.188   1.961  51.776  0.00  0.00    +0.000 C 
ENDBRANCH  29  31
ENDBRANCH   1  29
TORSDOF 7
ENDMDL
MODEL 2
REMARK VINA RESULT:    -8.404      1.827      7.299
REMARK INTER + INTRA:         -12.674
REMARK INTER:                 -10.810
REMARK INTRA:                  -1.864
REMARK UNBOUND:                -1.322
REMARK  Name = 
REMARK  13 active torsions:
REMARK  status: ('A' for Active; 'I' for Inactive)
REMARK    1  A    between atoms: C_1  and  C_2
REMARK    2  A    between atoms: C_2  and  C_3
REMARK    3  A    between atoms: C_3  and  C_4
REMARK    4  A    between atoms: C_10  and  C_11
REMARK    5  A    between atoms: C_11  and  C_13
REMARK    6  A    between atoms: C_13  and  C_14
REMARK    7  A    between atoms: C_13  and  C_15
REMARK    8  A    between atoms: C_15  and  C_16
REMARK    9  A    between atoms: C_15  and  C_17
REMARK   10  A    between atoms: C_15  and  O_18
REMARK   11  A    between atoms: C_19  and  O_20
REMARK   12  A    between atoms: C_25  and  C_26
REMARK   13  A    between atoms: C_25  and  C_27
REMARK                            x       y       z     vdW  Elec       q    Type
REMARK                         _______ _______ _______ _____ _____    ______ ____
ROOT
ATOM      1  C   UNL     1      24.039   2.646  50.410  0.00  0.00    +0.000 A 
ATOM      2  C   UNL     1      23.147   3.164  49.534  0.00  0.00    +0.000 A 
ATOM      3  C   UNL     1      22.320   2.249  48.769  0.00  0.00    +0.000 A 
ATOM      4  O   UNL     1      22.061   2.385  47.581  0.00  0.00    +0.000 OA
ATOM      5  O   UNL     1      21.754   1.311  49.574  0.00  0.00    +0.000 OA
ATOM      6  C   UNL     1      22.231   1.112  50.880  0.00  0.00    +0.000 A 
ATOM      7  C   UNL     1      21.347   0.555  51.797  0.00  0.00    +0.000 A 
ATOM      8  C   UNL     1      21.909   0.042  52.970  0.00  0.00    +0.000 A 
ATOM      9  C   UNL     1      23.299   0.070  53.190  0.00  0.00    +0.000 A 
ATOM     10  C   UNL     1      24.125   0.802  52.311  0.00  0.00    +0.000 A 
ATOM     11  C   UNL     1      23.565   1.451  51.194  0.00  0.00    +0.000 A 
ATOM     12  O   UNL     1      25.490   0.897  52.545  0.00  0.00    +0.000 OA
ATOM     13  C   UNL     1      26.119  -0.117  53.373  0.00  0.00    +0.000 C 
ATOM     14  C   UNL     1      26.677  -1.236  52.479  0.00  0.00    +0.000 C 
ATOM     15  C   UNL     1      27.297   0.561  54.098  0.00  0.00    +0.000 C 
ATOM     16  C   UNL     1      25.213  -0.718  54.425  0.00  0.00    +0.000 C 
ATOM     17  C   UNL     1      23.893  -0.595  54.340  0.00  0.00    +0.000 C 
ENDROOT
BRANCH   7  18
ATOM     18  C   UNL     1      19.859   0.708  51.681  0.00  0.00    +0.000 C 
ATOM     19  O   UNL     1      19.202  -0.330  51.876  0.00  0.00    +0.000 OA
BRANCH  18  20
ATOM     20  C   UNL     1      19.075   2.024  51.472  0.00  0.00    +0.000 C 
ATOM     21  C   UNL     1      19.751   3.228  52.155  0.00  0.00    +0.000 C 
BRANCH  20  22
ATOM     22  C   UNL     1      18.400   2.191  50.069  0.00  0.00    +0.000 C 
ATOM     23  C   UNL     1      16.875   2.109  50.253  0.00  0.00    +0.000 C 
ATOM     24  C   UNL     1      18.755   3.525  49.392  0.00  0.00    +0.000 C 
BRANCH  22  25
ATOM     25  O   UNL     1      18.694   1.133  49.161  0.00  0.00    +0.000 OA
ATOM     26  H   UNL     1      19.533   1.317  48.711  0.00  0.00    +0.000 HD
ENDBRANCH  22  25
ENDBRANCH  20  22
ENDBRANCH  18  20
ENDBRANCH   7  18
BRANCH   8  27
ATOM     27  O   UNL     1      21.126  -0.516  53.958  0.00  0.00    +0.000 OA
ATOM     28  H   UNL     1      20.925  -0.024  54.730  0.00  0.00    +0.000 HD
ENDBRANCH   8  27
BRANCH   1  29
ATOM     29  C   UNL     1      25.110   3.620  50.809  0.00  0.00    +0.000 C 
BRANCH  29  31
ATOM     30  C   UNL     1      26.877   4.444  49.120  0.00  0.00    +0.000 C 
ATOM     31  C   UNL     1      26.485   3.419  50.180  0.00  0.00    +0.000 C 
ENDBRANCH  29  31
ENDBRANCH   1  29
TORSDOF 7
ENDMDL
MODEL 3
REMARK VINA RESULT:    -8.034      1.496      4.387
REMARK INTER + INTRA:         -12.174
REMARK INTER:                 -10.452
REMARK INTRA:                  -1.722
REMARK UNBOUND:                -1.322
REMARK  Name = 
REMARK  13 active torsions:
REMARK  status: ('A' for Active; 'I' for Inactive)
REMARK    1  A    between atoms: C_1  and  C_2
REMARK    2  A    between atoms: C_2  and  C_3
REMARK    3  A    between atoms: C_3  and  C_4
REMARK    4  A    between atoms: C_10  and  C_11
REMARK    5  A    between atoms: C_11  and  C_13
REMARK    6  A    between atoms: C_13  and  C_14
REMARK    7  A    between atoms: C_13  and  C_15
REMARK    8  A    between atoms: C_15  and  C_16
REMARK    9  A    between atoms: C_15  and  C_17
REMARK   10  A    between atoms: C_15  and  O_18
REMARK   11  A    between atoms: C_19  and  O_20
REMARK   12  A    between atoms: C_25  and  C_26
REMARK   13  A    between atoms: C_25  and  C_27
REMARK                            x       y       z     vdW  Elec       q    Type
REMARK                         _______ _______ _______ _____ _____    ______ ____
ROOT
ATOM      1  C   UNL     1      22.596   2.594  49.295  0.00  0.00    +0.000 A 
ATOM      2  C   UNL     1      23.817   3.144  49.104  0.00  0.00    +0.000 A 
ATOM      3  C   UNL     1      24.357   4.004  50.141  0.00  0.00    +0.000 A 
ATOM      4  O   UNL     1      24.951   5.052  49.926  0.00  0.00    +0.000 OA
ATOM      5  O   UNL     1      24.249   3.422  51.365  0.00  0.00    +0.000 OA
ATOM      6  C   UNL     1      23.409   2.312  51.554  0.00  0.00    +0.000 A 
ATOM      7  C   UNL     1      23.708   1.469  52.618  0.00  0.00    +0.000 A 
ATOM      8  C   UNL     1      22.698   0.586  53.015  0.00  0.00    +0.000 A 
ATOM      9  C   UNL     1      21.442   0.578  52.380  0.00  0.00    +0.000 A 
ATOM     10  C   UNL     1      21.257   1.327  51.199  0.00  0.00    +0.000 A 
ATOM     11  C   UNL     1      22.306   2.118  50.695  0.00  0.00    +0.000 A 
ATOM     12  O   UNL     1      20.046   1.283  50.521  0.00  0.00    +0.000 OA
ATOM     13  C   UNL     1      18.860   0.879  51.256  0.00  0.00    +0.000 C 
ATOM     14  C   UNL     1      18.143   2.126  51.797  0.00  0.00    +0.000 C 
ATOM     15  C   UNL     1      17.926   0.177  50.252  0.00  0.00    +0.000 C 
ATOM     16  C   UNL     1      19.124  -0.083  52.392  0.00  0.00    +0.000 C 
ATOM     17  C   UNL     1      20.347  -0.234  52.888  0.00  0.00    +0.000 C 
ENDROOT
BRANCH   7  18
ATOM     18  C   UNL     1      25.099   1.312  53.161  0.00  0.00    +0.000 C 
ATOM     19  O   UNL     1      25.286   1.803  54.288  0.00  0.00    +0.000 OA
BRANCH  18  20
ATOM     20  C   UNL     1      26.257   0.512  52.525  0.00  0.00    +0.000 C 
ATOM     21  C   UNL     1      27.216   1.405  51.714  0.00  0.00    +0.000 C 
BRANCH  20  22
ATOM     22  C   UNL     1      26.820  -0.664  53.393  0.00  0.00    +0.000 C 
ATOM     23  C   UNL     1      26.876  -1.927  52.518  0.00  0.00    +0.000 C 
ATOM     24  C   UNL     1      28.224  -0.375  53.949  0.00  0.00    +0.000 C 
BRANCH  22  25
ATOM     25  O   UNL     1      25.973  -1.034  54.476  0.00  0.00    +0.000 OA
ATOM     26  H   UNL     1      26.022  -0.357  55.170  0.00  0.00    +0.000 HD
ENDBRANCH  22  25
ENDBRANCH  20  22
ENDBRANCH  18  20
ENDBRANCH   7  18
BRANCH   8  27
ATOM     27  O   UNL     1      22.890  -0.309  54.045  0.00  0.00    +0.000 OA
ATOM     28  H   UNL     1      22.191  -0.874  54.311  0.00  0.00    +0.000 HD
ENDBRANCH   8  27
BRANCH   1  29
ATOM     29  C   UNL     1      21.964   2.101  48.026  0.00  0.00    +0.000 C 
BRANCH  29  31
ATOM     30  C   UNL     1      19.633   3.152  47.678  0.00  0.00    +0.000 C 
ATOM     31  C   UNL     1      21.101   3.099  47.260  0.00  0.00    +0.000 C 
ENDBRANCH  29  31
ENDBRANCH   1  29
TORSDOF 7
ENDMDL
MODEL 4
REMARK VINA RESULT:    -7.712      2.150      6.772
REMARK INTER + INTRA:         -11.740
REMARK INTER:                 -10.892
REMARK INTRA:                  -0.848
REMARK UNBOUND:                -1.322
REMARK  Name = 
REMARK  13 active torsions:
REMARK  status: ('A' for Active; 'I' for Inactive)
REMARK    1  A    between atoms: C_1  and  C_2
REMARK    2  A    between atoms: C_2  and  C_3
REMARK    3  A    between atoms: C_3  and  C_4
REMARK    4  A    between atoms: C_10  and  C_11
REMARK    5  A    between atoms: C_11  and  C_13
REMARK    6  A    between atoms: C_13  and  C_14
REMARK    7  A    between atoms: C_13  and  C_15
REMARK    8  A    between atoms: C_15  and  C_16
REMARK    9  A    between atoms: C_15  and  C_17
REMARK   10  A    between atoms: C_15  and  O_18
REMARK   11  A    between atoms: C_19  and  O_20
REMARK   12  A    between atoms: C_25  and  C_26
REMARK   13  A    between atoms: C_25  and  C_27
REMARK                            x       y       z     vdW  Elec       q    Type
REMARK                         _______ _______ _______ _____ _____    ______ ____
ROOT
ATOM      1  C   UNL     1      25.766   1.797  52.359  0.00  0.00    +0.000 A 
ATOM      2  C   UNL     1      26.458   2.691  51.615  0.00  0.00    +0.000 A 
ATOM      3  C   UNL     1      26.008   2.958  50.262  0.00  0.00    +0.000 A 
ATOM      4  O   UNL     1      26.754   3.082  49.300  0.00  0.00    +0.000 OA
ATOM      5  O   UNL     1      24.669   3.200  50.230  0.00  0.00    +0.000 OA
ATOM      6  C   UNL     1      23.860   2.871  51.330  0.00  0.00    +0.000 A 
ATOM      7  C   UNL     1      22.667   3.571  51.467  0.00  0.00    +0.000 A 
ATOM      8  C   UNL     1      21.718   3.019  52.333  0.00  0.00    +0.000 A 
ATOM      9  C   UNL     1      21.958   1.806  53.005  0.00  0.00    +0.000 A 
ATOM     10  C   UNL     1      23.248   1.235  52.966  0.00  0.00    +0.000 A 
ATOM     11  C   UNL     1      24.267   1.848  52.214  0.00  0.00    +0.000 A 
ATOM     12  O   UNL     1      23.525   0.074  53.675  0.00  0.00    +0.000 OA
ATOM     13  C   UNL     1      22.416  -0.791  54.040  0.00  0.00    +0.000 C 
ATOM     14  C   UNL     1      22.235  -1.874  52.965  0.00  0.00    +0.000 C 
ATOM     15  C   UNL     1      22.798  -1.478  55.365  0.00  0.00    +0.000 C 
ATOM     16  C   UNL     1      21.103  -0.071  54.255  0.00  0.00    +0.000 C 
ATOM     17  C   UNL     1      20.916   1.159  53.788  0.00  0.00    +0.000 C 
ENDROOT
BRANCH   7  18
ATOM     18  C   UNL     1      22.479   4.961  50.934  0.00  0.00    +0.000 C 
ATOM     19  O   UNL     1      21.536   5.598  51.435  0.00  0.00    +0.000 OA
BRANCH  18  20
ATOM     20  C   UNL     1      23.396   5.704  49.936  0.00  0.00    +0.000 C 
ATOM     21  C   UNL     1      22.753   5.855  48.544  0.00  0.00    +0.000 C 
BRANCH  20  22
ATOM     22  C   UNL     1      24.246   6.870  50.543  0.00  0.00    +0.000 C 
ATOM     23  C   UNL     1      25.694   6.723  50.044  0.00  0.00    +0.000 C 
ATOM     24  C   UNL     1      23.718   8.259  50.152  0.00  0.00    +0.000 C 
BRANCH  22  25
ATOM     25  O   UNL     1      24.365   6.816  51.961  0.00  0.00    +0.000 OA
ATOM     26  H   UNL     1      23.664   7.353  52.364  0.00  0.00    +0.000 HD
ENDBRANCH  22  25
ENDBRANCH  20  22
ENDBRANCH  18  20
ENDBRANCH   7  18
BRANCH   8  27
ATOM     27  O   UNL     1      20.508   3.637  52.562  0.00  0.00    +0.000 OA
ATOM     28  H   UNL     1      20.379   4.139  53.342  0.00  0.00    +0.000 HD
ENDBRANCH   8  27
BRANCH   1  29
ATOM     29  C   UNL     1      26.541   1.282  53.538  0.00  0.00    +0.000 C 
BRANCH  29  31
ATOM     30  C   UNL     1      26.621  -1.088  52.520  0.00  0.00    +0.000 C 
ATOM     31  C   UNL     1      27.334  -0.003  53.324  0.00  0.00    +0.000 C 
ENDBRANCH  29  31
ENDBRANCH   1  29
TORSDOF 7
ENDMDL
MODEL 5
REMARK VINA RESULT:    -7.647      2.910      6.894
REMARK INTER + INTRA:         -11.651
REMARK INTER:                 -10.185
REMARK INTRA:                  -1.466
REMARK UNBOUND:                -1.322
REMARK  Name = 
REMARK  13 active torsions:
REMARK  status: ('A' for Active; 'I' for Inactive)
REMARK    1  A    between atoms: C_1  and  C_2
REMARK    2  A    between atoms: C_2  and  C_3
REMARK    3  A    between atoms: C_3  and  C_4
REMARK    4  A    between atoms: C_10  and  C_11
REMARK    5  A    between atoms: C_11  and  C_13
REMARK    6  A    between atoms: C_13  and  C_14
REMARK    7  A    between atoms: C_13  and  C_15
REMARK    8  A    between atoms: C_15  and  C_16
REMARK    9  A    between atoms: C_15  and  C_17
REMARK   10  A    between atoms: C_15  and  O_18
REMARK   11  A    between atoms: C_19  and  O_20
REMARK   12  A    between atoms: C_25  and  C_26
REMARK   13  A    between atoms: C_25  and  C_27
REMARK                            x       y       z     vdW  Elec       q    Type
REMARK                         _______ _______ _______ _____ _____    ______ ____
ROOT
ATOM      1  C   UNL     1      25.652   2.311  51.359  0.00  0.00    +0.000 A 
ATOM      2  C   UNL     1      26.728   2.980  50.885  0.00  0.00    +0.000 A 
ATOM      3  C   UNL     1      26.598   3.699  49.632  0.00  0.00    +0.000 A 
ATOM      4  O   UNL     1      27.450   3.714  48.754  0.00  0.00    +0.000 OA
ATOM      5  O   UNL     1      25.477   4.470  49.624  0.00  0.00    +0.000 OA
ATOM      6  C   UNL     1      24.468   4.269  50.580  0.00  0.00    +0.000 A 
ATOM      7  C   UNL     1      23.637   5.349  50.856  0.00  0.00    +0.000 A 
ATOM      8  C   UNL     1      22.444   5.060  51.527  0.00  0.00    +0.000 A 
ATOM      9  C   UNL     1      22.102   3.740  51.877  0.00  0.00    +0.000 A 
ATOM     10  C   UNL     1      23.059   2.714  51.731  0.00  0.00    +0.000 A 
ATOM     11  C   UNL     1      24.325   3.003  51.188  0.00  0.00    +0.000 A 
ATOM     12  O   UNL     1      22.766   1.417  52.130  0.00  0.00    +0.000 OA
ATOM     13  C   UNL     1      21.370   1.027  52.233  0.00  0.00    +0.000 C 
ATOM     14  C   UNL     1      20.921   0.379  50.913  0.00  0.00    +0.000 C 
ATOM     15  C   UNL     1      21.279  -0.029  53.351  0.00  0.00    +0.000 C 
ATOM     16  C   UNL     1      20.428   2.157  52.585  0.00  0.00    +0.000 C 
ATOM     17  C   UNL     1      20.799   3.424  52.441  0.00  0.00    +0.000 C 
ENDROOT
BRANCH   7  18
ATOM     18  C   UNL     1      24.078   6.773  50.687  0.00  0.00    +0.000 C 
ATOM     19  O   UNL     1      24.340   7.376  51.743  0.00  0.00    +0.000 OA
BRANCH  18  20
ATOM     20  C   UNL     1      24.351   7.508  49.355  0.00  0.00    +0.000 C 
ATOM     21  C   UNL     1      23.191   8.434  48.944  0.00  0.00    +0.000 C 
BRANCH  20  22
ATOM     22  C   UNL     1      25.834   7.951  49.122  0.00  0.00    +0.000 C 
ATOM     23  C   UNL     1      26.244   7.537  47.698  0.00  0.00    +0.000 C 
ATOM     24  C   UNL     1      26.037   9.466  49.283  0.00  0.00    +0.000 C 
BRANCH  22  25
ATOM     25  O   UNL     1      26.772   7.279  49.957  0.00  0.00    +0.000 OA
ATOM     26  H   UNL     1      26.999   6.422  49.563  0.00  0.00    +0.000 HD
ENDBRANCH  22  25
ENDBRANCH  20  22
ENDBRANCH  18  20
ENDBRANCH   7  18
BRANCH   8  27
ATOM     27  O   UNL     1      21.553   6.054  51.870  0.00  0.00    +0.000 OA
ATOM     28  H   UNL     1      21.363   6.741  51.263  0.00  0.00    +0.000 HD
ENDBRANCH   8  27
BRANCH   1  29
ATOM     29  C   UNL     1      26.004   1.278  52.390  0.00  0.00    +0.000 C 
BRANCH  29  31
ATOM     30  C   UNL     1      26.610  -1.201  52.776  0.00  0.00    +0.000 C 
ATOM     31  C   UNL     1      26.737   0.036  51.890  0.00  0.00    +0.000 C 
ENDBRANCH  29  31
ENDBRANCH   1  29
TORSDOF 7
ENDMDL
MODEL 6
REMARK VINA RESULT:    -7.468      2.183      7.221
REMARK INTER + INTRA:         -11.410
REMARK INTER:                 -10.253
REMARK INTRA:                  -1.157
REMARK UNBOUND:                -1.322
REMARK  Name = 
REMARK  13 active torsions:
REMARK  status: ('A' for Active; 'I' for Inactive)
REMARK    1  A    between atoms: C_1  and  C_2
REMARK    2  A    between atoms: C_2  and  C_3
REMARK    3  A    between atoms: C_3  and  C_4
REMARK    4  A    between atoms: C_10  and  C_11
REMARK    5  A    between atoms: C_11  and  C_13
REMARK    6  A    between atoms: C_13  and  C_14
REMARK    7  A    between atoms: C_13  and  C_15
REMARK    8  A    between atoms: C_15  and  C_16
REMARK    9  A    between atoms: C_15  and  C_17
REMARK   10  A    between atoms: C_15  and  O_18
REMARK   11  A    between atoms: C_19  and  O_20
REMARK   12  A    between atoms: C_25  and  C_26
REMARK   13  A    between atoms: C_25  and  C_27
REMARK                            x       y       z     vdW  Elec       q    Type
REMARK                         _______ _______ _______ _____ _____    ______ ____
ROOT
ATOM      1  C   UNL     1      23.567   2.291  50.508  0.00  0.00    +0.000 A 
ATOM      2  C   UNL     1      22.571   2.755  49.719  0.00  0.00    +0.000 A 
ATOM      3  C   UNL     1      21.637   1.801  49.152  0.00  0.00    +0.000 A 
ATOM      4  O   UNL     1      21.220   1.845  48.003  0.00  0.00    +0.000 OA
ATOM      5  O   UNL     1      21.175   0.945  50.103  0.00  0.00    +0.000 OA
ATOM      6  C   UNL     1      21.822   0.843  51.345  0.00  0.00    +0.000 A 
ATOM      7  C   UNL     1      21.064   0.385  52.416  0.00  0.00    +0.000 A 
ATOM      8  C   UNL     1      21.774  -0.044  53.543  0.00  0.00    +0.000 A 
ATOM      9  C   UNL     1      23.181  -0.030  53.570  0.00  0.00    +0.000 A 
ATOM     10  C   UNL     1      23.889   0.608  52.529  0.00  0.00    +0.000 A 
ATOM     11  C   UNL     1      23.191   1.175  51.447  0.00  0.00    +0.000 A 
ATOM     12  O   UNL     1      25.274   0.689  52.568  0.00  0.00    +0.000 OA
ATOM     13  C   UNL     1      25.998  -0.268  53.387  0.00  0.00    +0.000 C 
ATOM     14  C   UNL     1      26.415  -1.469  52.524  0.00  0.00    +0.000 C 
ATOM     15  C   UNL     1      27.272   0.440  53.887  0.00  0.00    +0.000 C 
ATOM     16  C   UNL     1      25.236  -0.758  54.599  0.00  0.00    +0.000 C 
ATOM     17  C   UNL     1      23.918  -0.612  54.681  0.00  0.00    +0.000 C 
ENDROOT
BRANCH   7  18
ATOM     18  C   UNL     1      19.576   0.563  52.489  0.00  0.00    +0.000 C 
ATOM     19  O   UNL     1      19.193   1.707  52.791  0.00  0.00    +0.000 OA
BRANCH  18  20
ATOM     20  C   UNL     1      18.498  -0.478  52.112  0.00  0.00    +0.000 C 
ATOM     21  C   UNL     1      18.240  -1.495  53.241  0.00  0.00    +0.000 C 
BRANCH  20  22
ATOM     22  C   UNL     1      17.306   0.065  51.254  0.00  0.00    +0.000 C 
ATOM     23  C   UNL     1      17.851   0.477  49.876  0.00  0.00    +0.000 C 
ATOM     24  C   UNL     1      16.187  -0.971  51.063  0.00  0.00    +0.000 C 
BRANCH  22  25
ATOM     25  O   UNL     1      16.729   1.262  51.766  0.00  0.00    +0.000 OA
ATOM     26  H   UNL     1      17.328   1.655  52.421  0.00  0.00    +0.000 HD
ENDBRANCH  22  25
ENDBRANCH  20  22
ENDBRANCH  18  20
ENDBRANCH   7  18
BRANCH   8  27
ATOM     27  O   UNL     1      21.126  -0.499  54.670  0.00  0.00    +0.000 OA
ATOM     28  H   UNL     1      20.543  -1.230  54.612  0.00  0.00    +0.000 HD
ENDBRANCH   8  27
BRANCH   1  29
ATOM     29  C   UNL     1      24.695   3.269  50.675  0.00  0.00    +0.000 C 
BRANCH  29  31
ATOM     30  C   UNL     1      23.580   4.685  52.521  0.00  0.00    +0.000 C 
ATOM     31  C   UNL     1      24.323   4.657  51.188  0.00  0.00    +0.000 C 
ENDBRANCH  29  31
ENDBRANCH   1  29
TORSDOF 7
ENDMDL
MODEL 7
REMARK VINA RESULT:    -7.231      1.739      2.288
REMARK INTER + INTRA:         -11.090
REMARK INTER:                  -9.581
REMARK INTRA:                  -1.509
REMARK UNBOUND:                -1.322
REMARK  Name = 
REMARK  13 active torsions:
REMARK  status: ('A' for Active; 'I' for Inactive)
REMARK    1  A    between atoms: C_1  and  C_2
REMARK    2  A    between atoms: C_2  and  C_3
REMARK    3  A    between atoms: C_3  and  C_4
REMARK    4  A    between atoms: C_10  and  C_11
REMARK    5  A    between atoms: C_11  and  C_13
REMARK    6  A    between atoms: C_13  and  C_14
REMARK    7  A    between atoms: C_13  and  C_15
REMARK    8  A    between atoms: C_15  and  C_16
REMARK    9  A    between atoms: C_15  and  C_17
REMARK   10  A    between atoms: C_15  and  O_18
REMARK   11  A    between atoms: C_19  and  O_20
REMARK   12  A    between atoms: C_25  and  C_26
REMARK   13  A    between atoms: C_25  and  C_27
REMARK                            x       y       z     vdW  Elec       q    Type
REMARK                         _______ _______ _______ _____ _____    ______ ____
ROOT
ATOM      1  C   UNL     1      21.766   2.691  51.892  0.00  0.00    +0.000 A 
ATOM      2  C   UNL     1      21.784   1.641  52.746  0.00  0.00    +0.000 A 
ATOM      3  C   UNL     1      22.387   0.399  52.301  0.00  0.00    +0.000 A 
ATOM      4  O   UNL     1      21.920  -0.710  52.519  0.00  0.00    +0.000 OA
ATOM      5  O   UNL     1      23.608   0.620  51.743  0.00  0.00    +0.000 OA
ATOM      6  C   UNL     1      23.996   1.917  51.371  0.00  0.00    +0.000 A 
ATOM      7  C   UNL     1      25.361   2.172  51.302  0.00  0.00    +0.000 A 
ATOM      8  C   UNL     1      25.745   3.325  50.609  0.00  0.00    +0.000 A 
ATOM      9  C   UNL     1      24.792   4.162  49.998  0.00  0.00    +0.000 A 
ATOM     10  C   UNL     1      23.420   3.953  50.251  0.00  0.00    +0.000 A 
ATOM     11  C   UNL     1      23.010   2.879  51.063  0.00  0.00    +0.000 A 
ATOM     12  O   UNL     1      22.468   4.806  49.711  0.00  0.00    +0.000 OA
ATOM     13  C   UNL     1      22.825   5.583  48.537  0.00  0.00    +0.000 C 
ATOM     14  C   UNL     1      22.396   4.825  47.271  0.00  0.00    +0.000 C 
ATOM     15  C   UNL     1      22.030   6.901  48.610  0.00  0.00    +0.000 C 
ATOM     16  C   UNL     1      24.293   5.934  48.441  0.00  0.00    +0.000 C 
ATOM     17  C   UNL     1      25.200   5.277  49.156  0.00  0.00    +0.000 C 
ENDROOT
BRANCH   7  18
ATOM     18  C   UNL     1      26.367   1.418  52.121  0.00  0.00    +0.000 C 
ATOM     19  O   UNL     1      27.232   0.807  51.468  0.00  0.00    +0.000 OA
BRANCH  18  20
ATOM     20  C   UNL     1      26.505   1.429  53.660  0.00  0.00    +0.000 C 
ATOM     21  C   UNL     1      25.490   2.370  54.336  0.00  0.00    +0.000 C 
BRANCH  20  22
ATOM     22  C   UNL     1      26.861   0.052  54.315  0.00  0.00    +0.000 C 
ATOM     23  C   UNL     1      28.325   0.102  54.782  0.00  0.00    +0.000 C 
ATOM     24  C   UNL     1      25.961  -0.288  55.514  0.00  0.00    +0.000 C 
BRANCH  22  25
ATOM     25  O   UNL     1      26.829  -1.042  53.403  0.00  0.00    +0.000 OA
ATOM     26  H   UNL     1      26.647  -1.862  53.889  0.00  0.00    +0.000 HD
ENDBRANCH  22  25
ENDBRANCH  20  22
ENDBRANCH  18  20
ENDBRANCH   7  18
BRANCH   8  27
ATOM     27  O   UNL     1      27.069   3.687  50.494  0.00  0.00    +0.000 OA
ATOM     28  H   UNL     1      27.704   3.056  50.217  0.00  0.00    +0.000 HD
ENDBRANCH   8  27
BRANCH   1  29
ATOM     29  C   UNL     1      20.766   3.745  52.271  0.00  0.00    +0.000 C 
BRANCH  29  31
ATOM     30  C   UNL     1      19.494   2.970  50.164  0.00  0.00    +0.000 C 
ATOM     31  C   UNL     1      19.480   3.792  51.450  0.00  0.00    +0.000 C 
ENDBRANCH  29  31
ENDBRANCH   1  29
TORSDOF 7
ENDMDL
MODEL 8
REMARK VINA RESULT:    -6.541      3.250      8.006
REMARK INTER + INTRA:         -10.158
REMARK INTER:                  -8.139
REMARK INTRA:                  -2.019
REMARK UNBOUND:                -1.322
REMARK  Name = 
REMARK  13 active torsions:
REMARK  status: ('A' for Active; 'I' for Inactive)
REMARK    1  A    between atoms: C_1  and  C_2
REMARK    2  A    between atoms: C_2  and  C_3
REMARK    3  A    between atoms: C_3  and  C_4
REMARK    4  A    between atoms: C_10  and  C_11
REMARK    5  A    between atoms: C_11  and  C_13
REMARK    6  A    between atoms: C_13  and  C_14
REMARK    7  A    between atoms: C_13  and  C_15
REMARK    8  A    between atoms: C_15  and  C_16
REMARK    9  A    between atoms: C_15  and  C_17
REMARK   10  A    between atoms: C_15  and  O_18
REMARK   11  A    between atoms: C_19  and  O_20
REMARK   12  A    between atoms: C_25  and  C_26
REMARK   13  A    between atoms: C_25  and  C_27
REMARK                            x       y       z     vdW  Elec       q    Type
REMARK                         _______ _______ _______ _____ _____    ______ ____
ROOT
ATOM      1  C   UNL     1      22.976   1.748  50.599  0.00  0.00    +0.000 A 
ATOM      2  C   UNL     1      22.921   2.502  49.477  0.00  0.00    +0.000 A 
ATOM      3  C   UNL     1      22.256   1.955  48.310  0.00  0.00    +0.000 A 
ATOM      4  O   UNL     1      22.674   2.063  47.165  0.00  0.00    +0.000 OA
ATOM      5  O   UNL     1      21.040   1.440  48.636  0.00  0.00    +0.000 OA
ATOM      6  C   UNL     1      20.707   1.195  49.978  0.00  0.00    +0.000 A 
ATOM      7  C   UNL     1      19.354   1.172  50.298  0.00  0.00    +0.000 A 
ATOM      8  C   UNL     1      19.016   0.594  51.526  0.00  0.00    +0.000 A 
ATOM      9  C   UNL     1      19.998   0.046  52.373  0.00  0.00    +0.000 A 
ATOM     10  C   UNL     1      21.362   0.257  52.080  0.00  0.00    +0.000 A 
ATOM     11  C   UNL     1      21.733   0.960  50.919  0.00  0.00    +0.000 A 
ATOM     12  O   UNL     1      22.346  -0.219  52.935  0.00  0.00    +0.000 OA
ATOM     13  C   UNL     1      22.011  -1.311  53.833  0.00  0.00    +0.000 C 
ATOM     14  C   UNL     1      22.389  -2.648  53.176  0.00  0.00    +0.000 C 
ATOM     15  C   UNL     1      22.866  -1.131  55.101  0.00  0.00    +0.000 C 
ATOM     16  C   UNL     1      20.559  -1.351  54.256  0.00  0.00    +0.000 C 
ATOM     17  C   UNL     1      19.632  -0.683  53.577  0.00  0.00    +0.000 C 
ENDROOT
BRANCH   7  18
ATOM     18  C   UNL     1      18.325   1.935  49.518  0.00  0.00    +0.000 C 
ATOM     19  O   UNL     1      17.324   1.279  49.177  0.00  0.00    +0.000 OA
BRANCH  18  20
ATOM     20  C   UNL     1      18.328   3.450  49.212  0.00  0.00    +0.000 C 
ATOM     21  C   UNL     1      18.833   4.290  50.400  0.00  0.00    +0.000 C 
BRANCH  20  22
ATOM     22  C   UNL     1      18.719   3.841  47.747  0.00  0.00    +0.000 C 
ATOM     23  C   UNL     1      17.495   4.488  47.076  0.00  0.00    +0.000 C 
ATOM     24  C   UNL     1      19.902   4.820  47.687  0.00  0.00    +0.000 C 
BRANCH  22  25
ATOM     25  O   UNL     1      19.016   2.724  46.915  0.00  0.00    +0.000 OA
ATOM     26  H   UNL     1      18.540   2.813  46.074  0.00  0.00    +0.000 HD
ENDBRANCH  22  25
ENDBRANCH  20  22
ENDBRANCH  18  20
ENDBRANCH   7  18
BRANCH   8  27
ATOM     27  O   UNL     1      17.708   0.534  51.956  0.00  0.00    +0.000 OA
ATOM     28  H   UNL     1      17.432  -0.162  52.520  0.00  0.00    +0.000 HD
ENDBRANCH   8  27
BRANCH   1  29
ATOM     29  C   UNL     1      24.029   2.205  51.568  0.00  0.00    +0.000 C 
BRANCH  29  31
ATOM     30  C   UNL     1      23.485   4.573  52.435  0.00  0.00    +0.000 C 
ATOM     31  C   UNL     1      23.557   3.077  52.728  0.00  0.00    +0.000 C 
ENDBRANCH  29  31
ENDBRANCH   1  29
TORSDOF 7
ENDMDL
MODEL 9
REMARK VINA RESULT:    -6.311      4.501      7.681
REMARK INTER + INTRA:          -9.847
REMARK INTER:                  -7.725
REMARK INTRA:                  -2.122
REMARK UNBOUND:                -1.322
REMARK  Name = 
REMARK  13 active torsions:
REMARK  status: ('A' for Active; 'I' for Inactive)
REMARK    1  A    between atoms: C_1  and  C_2
REMARK    2  A    between atoms: C_2  and  C_3
REMARK    3  A    between atoms: C_3  and  C_4
REMARK    4  A    between atoms: C_10  and  C_11
REMARK    5  A    between atoms: C_11  and  C_13
REMARK    6  A    between atoms: C_13  and  C_14
REMARK    7  A    between atoms: C_13  and  C_15
REMARK    8  A    between atoms: C_15  and  C_16
REMARK    9  A    between atoms: C_15  and  C_17
REMARK   10  A    between atoms: C_15  and  O_18
REMARK   11  A    between atoms: C_19  and  O_20
REMARK   12  A    between atoms: C_25  and  C_26
REMARK   13  A    between atoms: C_25  and  C_27
REMARK                            x       y       z     vdW  Elec       q    Type
REMARK                         _______ _______ _______ _____ _____    ______ ____
ROOT
ATOM      1  C   UNL     1      21.100   0.973  50.262  0.00  0.00    +0.000 A 
ATOM      2  C   UNL     1      22.174   1.499  49.629  0.00  0.00    +0.000 A 
ATOM      3  C   UNL     1      21.984   2.076  48.311  0.00  0.00    +0.000 A 
ATOM      4  O   UNL     1      22.757   1.923  47.375  0.00  0.00    +0.000 OA
ATOM      5  O   UNL     1      20.920   2.923  48.296  0.00  0.00    +0.000 OA
ATOM      6  C   UNL     1      19.986   2.912  49.345  0.00  0.00    +0.000 A 
ATOM      7  C   UNL     1      19.255   4.076  49.551  0.00  0.00    +0.000 A 
ATOM      8  C   UNL     1      18.107   3.958  50.342  0.00  0.00    +0.000 A 
ATOM      9  C   UNL     1      17.710   2.718  50.875  0.00  0.00    +0.000 A 
ATOM     10  C   UNL     1      18.582   1.612  50.782  0.00  0.00    +0.000 A 
ATOM     11  C   UNL     1      19.812   1.739  50.111  0.00  0.00    +0.000 A 
ATOM     12  O   UNL     1      18.239   0.396  51.358  0.00  0.00    +0.000 OA
ATOM     13  C   UNL     1      16.834   0.127  51.615  0.00  0.00    +0.000 C 
ATOM     14  C   UNL     1      16.232  -0.633  50.423  0.00  0.00    +0.000 C 
ATOM     15  C   UNL     1      16.769  -0.781  52.857  0.00  0.00    +0.000 C 
ATOM     16  C   UNL     1      16.002   1.359  51.899  0.00  0.00    +0.000 C 
ATOM     17  C   UNL     1      16.442   2.569  51.572  0.00  0.00    +0.000 C 
ENDROOT
BRANCH   7  18
ATOM     18  C   UNL     1      19.773   5.434  49.175  0.00  0.00    +0.000 C 
ATOM     19  O   UNL     1      18.987   6.137  48.516  0.00  0.00    +0.000 OA
BRANCH  18  20
ATOM     20  C   UNL     1      21.105   6.074  49.623  0.00  0.00    +0.000 C 
ATOM     21  C   UNL     1      21.435   5.779  51.099  0.00  0.00    +0.000 C 
BRANCH  20  22
ATOM     22  C   UNL     1      22.244   6.085  48.549  0.00  0.00    +0.000 C 
ATOM     23  C   UNL     1      22.624   7.547  48.261  0.00  0.00    +0.000 C 
ATOM     24  C   UNL     1      23.497   5.318  49.000  0.00  0.00    +0.000 C 
BRANCH  22  25
ATOM     25  O   UNL     1      21.839   5.579  47.280  0.00  0.00    +0.000 OA
ATOM     26  H   UNL     1      22.581   5.639  46.657  0.00  0.00    +0.000 HD
ENDBRANCH  22  25
ENDBRANCH  20  22
ENDBRANCH  18  20
ENDBRANCH   7  18
BRANCH   8  27
ATOM     27  O   UNL     1      17.317   5.050  50.629  0.00  0.00    +0.000 OA
ATOM     28  H   UNL     1      17.589   5.907  50.366  0.00  0.00    +0.000 HD
ENDBRANCH   8  27
BRANCH   1  29
ATOM     29  C   UNL     1      21.471   0.043  51.381  0.00  0.00    +0.000 C 
BRANCH  29  31
ATOM     30  C   UNL     1      20.729   0.226  53.846  0.00  0.00    +0.000 C 
ATOM     31  C   UNL     1      21.693   0.677  52.751  0.00  0.00    +0.000 C 
ENDBRANCH  29  31
ENDBRANCH   1  29
TORSDOF 7
ENDMDL
