MODEL 1
REMARK VINA RESULT:    -9.227      0.000      0.000
REMARK INTER + INTRA:         -10.939
REMARK INTER:                 -10.576
REMARK INTRA:                  -0.363
REMARK UNBOUND:                -0.363
REMARK  Name = 
REMARK  8 active torsions:
REMARK  status: ('A' for Active; 'I' for Inactive)
REMARK    1  A    between atoms: C_1  and  C_2
REMARK    2  A    between atoms: C_2  and  C_3
REMARK    3  A    between atoms: C_3  and  C_4
REMARK    4  A    between atoms: C_16  and  C_17
REMARK    5  A    between atoms: C_16  and  C_18
REMARK    6  A    between atoms: C_22  and  C_23
REMARK    7  A    between atoms: C_24  and  C_25
REMARK    8  A    between atoms: C_26  and  O_27
REMARK                            x       y       z     vdW  Elec       q    Type
REMARK                         _______ _______ _______ _____ _____    ______ ____
ROOT
ATOM      1  C   UNL     1      22.107   0.809  52.850  0.00  0.00    +0.000 A 
ATOM      2  C   UNL     1      20.878   1.325  52.647  0.00  0.00    +0.000 A 
ATOM      3  C   UNL     1      20.594   2.735  52.400  0.00  0.00    +0.000 A 
ATOM      4  O   UNL     1      19.460   3.175  52.284  0.00  0.00    +0.000 OA
ATOM      5  O   UNL     1      21.700   3.513  52.228  0.00  0.00    +0.000 OA
ATOM      6  C   UNL     1      22.910   2.861  52.027  0.00  0.00    +0.000 A 
ATOM      7  C   UNL     1      23.663   3.335  50.999  0.00  0.00    +0.000 A 
ATOM      8  C   UNL     1      25.035   3.219  51.055  0.00  0.00    +0.000 A 
ATOM      9  C   UNL     1      25.564   2.362  52.032  0.00  0.00    +0.000 A 
ATOM     10  C   UNL     1      24.692   1.483  52.731  0.00  0.00    +0.000 A 
ATOM     11  C   UNL     1      23.291   1.696  52.665  0.00  0.00    +0.000 A 
ATOM     12  O   UNL     1      25.191   0.474  53.532  0.00  0.00    +0.000 OA
ATOM     13  C   UNL     1      26.633   0.218  53.521  0.00  0.00    +0.000 C 
ATOM     14  C   UNL     1      27.072  -0.123  54.955  0.00  0.00    +0.000 C 
ATOM     15  C   UNL     1      26.901  -0.998  52.620  0.00  0.00    +0.000 C 
ATOM     16  C   UNL     1      27.488   1.359  53.022  0.00  0.00    +0.000 C 
ATOM     17  C   UNL     1      26.988   2.350  52.281  0.00  0.00    +0.000 C 
ATOM     18  O   UNL     1      25.820   3.937  50.203  0.00  0.00    +0.000 OA
ATOM     19  C   UNL     1      25.188   4.605  49.074  0.00  0.00    +0.000 C 
ATOM     20  C   UNL     1      25.944   5.919  48.860  0.00  0.00    +0.000 C 
ATOM     21  C   UNL     1      23.676   4.909  49.183  0.00  0.00    +0.000 C 
ATOM     22  C   UNL     1      23.028   5.289  47.845  0.00  0.00    +0.000 C 
ATOM     23  C   UNL     1      22.967   3.717  49.741  0.00  0.00    +0.000 C 
ENDROOT
BRANCH  23  24
ATOM     24  O   UNL     1      23.032   2.606  48.841  0.00  0.00    +0.000 OA
ATOM     25  H   UNL     1      23.921   2.552  48.457  0.00  0.00    +0.000 HD
ENDBRANCH  23  24
BRANCH   1  26
ATOM     26  C   UNL     1      22.210  -0.685  52.876  0.00  0.00    +0.000 C 
BRANCH  26  28
ATOM     27  C   UNL     1      22.770  -1.379  55.225  0.00  0.00    +0.000 C 
ATOM     28  C   UNL     1      21.673  -1.281  54.172  0.00  0.00    +0.000 C 
ENDBRANCH  26  28
ENDBRANCH   1  26
TORSDOF 3
ENDMDL
MODEL 2
REMARK VINA RESULT:    -8.637      2.022      5.479
REMARK INTER + INTRA:         -10.262
REMARK INTER:                  -9.901
REMARK INTRA:                  -0.361
REMARK UNBOUND:                -0.363
REMARK  Name = 
REMARK  8 active torsions:
REMARK  status: ('A' for Active; 'I' for Inactive)
REMARK    1  A    between atoms: C_1  and  C_2
REMARK    2  A    between atoms: C_2  and  C_3
REMARK    3  A    between atoms: C_3  and  C_4
REMARK    4  A    between atoms: C_16  and  C_17
REMARK    5  A    between atoms: C_16  and  C_18
REMARK    6  A    between atoms: C_22  and  C_23
REMARK    7  A    between atoms: C_24  and  C_25
REMARK    8  A    between atoms: C_26  and  O_27
REMARK                            x       y       z     vdW  Elec       q    Type
REMARK                         _______ _______ _______ _____ _____    ______ ____
ROOT
ATOM      1  C   UNL     1      23.346   3.152  49.553  0.00  0.00    +0.000 A 
ATOM      2  C   UNL     1      22.506   3.447  48.541  0.00  0.00    +0.000 A 
ATOM      3  C   UNL     1      21.456   2.566  48.043  0.00  0.00    +0.000 A 
ATOM      4  O   UNL     1      20.755   2.843  47.081  0.00  0.00    +0.000 OA
ATOM      5  O   UNL     1      21.262   1.441  48.787  0.00  0.00    +0.000 OA
ATOM      6  C   UNL     1      21.857   1.398  50.041  0.00  0.00    +0.000 A 
ATOM      7  C   UNL     1      21.052   0.981  51.055  0.00  0.00    +0.000 A 
ATOM      8  C   UNL     1      21.607   0.347  52.144  0.00  0.00    +0.000 A 
ATOM      9  C   UNL     1      23.002   0.421  52.283  0.00  0.00    +0.000 A 
ATOM     10  C   UNL     1      23.735   1.327  51.470  0.00  0.00    +0.000 A 
ATOM     11  C   UNL     1      23.109   1.904  50.334  0.00  0.00    +0.000 A 
ATOM     12  O   UNL     1      25.065   1.596  51.724  0.00  0.00    +0.000 OA
ATOM     13  C   UNL     1      25.669   1.057  52.946  0.00  0.00    +0.000 C 
ATOM     14  C   UNL     1      27.106   0.617  52.619  0.00  0.00    +0.000 C 
ATOM     15  C   UNL     1      25.722   2.180  53.993  0.00  0.00    +0.000 C 
ATOM     16  C   UNL     1      24.943  -0.115  53.563  0.00  0.00    +0.000 C 
ATOM     17  C   UNL     1      23.667  -0.388  53.280  0.00  0.00    +0.000 C 
ATOM     18  O   UNL     1      20.815  -0.337  53.018  0.00  0.00    +0.000 OA
ATOM     19  C   UNL     1      19.373  -0.157  52.933  0.00  0.00    +0.000 C 
ATOM     20  C   UNL     1      18.740  -1.510  53.268  0.00  0.00    +0.000 C 
ATOM     21  C   UNL     1      18.796   0.346  51.590  0.00  0.00    +0.000 C 
ATOM     22  C   UNL     1      17.344   0.831  51.688  0.00  0.00    +0.000 C 
ATOM     23  C   UNL     1      19.644   1.464  51.071  0.00  0.00    +0.000 C 
ENDROOT
BRANCH  23  24
ATOM     24  O   UNL     1      19.575   2.608  51.928  0.00  0.00    +0.000 OA
ATOM     25  H   UNL     1      19.776   3.408  51.417  0.00  0.00    +0.000 HD
ENDBRANCH  23  24
BRANCH   1  26
ATOM     26  C   UNL     1      24.213   4.267  50.051  0.00  0.00    +0.000 C 
BRANCH  26  28
ATOM     27  C   UNL     1      26.610   3.768  49.484  0.00  0.00    +0.000 C 
ATOM     28  C   UNL     1      25.370   4.569  49.105  0.00  0.00    +0.000 C 
ENDBRANCH  26  28
ENDBRANCH   1  26
TORSDOF 3
ENDMDL
MODEL 3
REMARK VINA RESULT:    -8.006      1.643      4.693
REMARK INTER + INTRA:          -9.540
REMARK INTER:                  -9.175
REMARK INTRA:                  -0.365
REMARK UNBOUND:                -0.363
REMARK  Name = 
REMARK  8 active torsions:
REMARK  status: ('A' for Active; 'I' for Inactive)
REMARK    1  A    between atoms: C_1  and  C_2
REMARK    2  A    between atoms: C_2  and  C_3
REMARK    3  A    between atoms: C_3  and  C_4
REMARK    4  A    between atoms: C_16  and  C_17
REMARK    5  A    between atoms: C_16  and  C_18
REMARK    6  A    between atoms: C_22  and  C_23
REMARK    7  A    between atoms: C_24  and  C_25
REMARK    8  A    between atoms: C_26  and  O_27
REMARK                            x       y       z     vdW  Elec       q    Type
REMARK                         _______ _______ _______ _____ _____    ______ ____
ROOT
ATOM      1  C   UNL     1      25.557   1.648  52.176  0.00  0.00    +0.000 A 
ATOM      2  C   UNL     1      26.440   2.393  51.480  0.00  0.00    +0.000 A 
ATOM      3  C   UNL     1      26.145   3.092  50.234  0.00  0.00    +0.000 A 
ATOM      4  O   UNL     1      26.989   3.706  49.599  0.00  0.00    +0.000 OA
ATOM      5  O   UNL     1      24.831   3.073  49.873  0.00  0.00    +0.000 OA
ATOM      6  C   UNL     1      23.914   2.662  50.833  0.00  0.00    +0.000 A 
ATOM      7  C   UNL     1      22.817   3.454  50.968  0.00  0.00    +0.000 A 
ATOM      8  C   UNL     1      21.630   2.899  51.393  0.00  0.00    +0.000 A 
ATOM      9  C   UNL     1      21.688   1.607  51.939  0.00  0.00    +0.000 A 
ATOM     10  C   UNL     1      22.953   1.043  52.256  0.00  0.00    +0.000 A 
ATOM     11  C   UNL     1      24.132   1.643  51.741  0.00  0.00    +0.000 A 
ATOM     12  O   UNL     1      23.050  -0.120  52.995  0.00  0.00    +0.000 OA
ATOM     13  C   UNL     1      21.831  -0.677  53.588  0.00  0.00    +0.000 C 
ATOM     14  C   UNL     1      21.901  -2.210  53.482  0.00  0.00    +0.000 C 
ATOM     15  C   UNL     1      21.794  -0.286  55.073  0.00  0.00    +0.000 C 
ATOM     16  C   UNL     1      20.537  -0.218  52.958  0.00  0.00    +0.000 C 
ATOM     17  C   UNL     1      20.464   0.888  52.213  0.00  0.00    +0.000 C 
ATOM     18  O   UNL     1      20.461   3.587  51.254  0.00  0.00    +0.000 OA
ATOM     19  C   UNL     1      20.526   4.999  50.907  0.00  0.00    +0.000 C 
ATOM     20  C   UNL     1      19.331   5.284  49.994  0.00  0.00    +0.000 C 
ATOM     21  C   UNL     1      21.814   5.505  50.219  0.00  0.00    +0.000 C 
ATOM     22  C   UNL     1      21.943   7.034  50.203  0.00  0.00    +0.000 C 
ATOM     23  C   UNL     1      23.008   4.928  50.910  0.00  0.00    +0.000 C 
ENDROOT
BRANCH  23  24
ATOM     24  O   UNL     1      23.118   5.416  52.251  0.00  0.00    +0.000 OA
ATOM     25  H   UNL     1      22.357   5.983  52.453  0.00  0.00    +0.000 HD
ENDBRANCH  23  24
BRANCH   1  26
ATOM     26  C   UNL     1      25.992   1.187  53.533  0.00  0.00    +0.000 C 
BRANCH  26  28
ATOM     27  C   UNL     1      26.457  -1.143  52.717  0.00  0.00    +0.000 C 
ATOM     28  C   UNL     1      27.018   0.061  53.463  0.00  0.00    +0.000 C 
ENDBRANCH  26  28
ENDBRANCH   1  26
TORSDOF 3
ENDMDL
MODEL 4
REMARK VINA RESULT:    -7.988      2.194      6.384
REMARK INTER + INTRA:          -9.518
REMARK INTER:                  -9.224
REMARK INTRA:                  -0.295
REMARK UNBOUND:                -0.363
REMARK  Name = 
REMARK  8 active torsions:
REMARK  status: ('A' for Active; 'I' for Inactive)
REMARK    1  A    between atoms: C_1  and  C_2
REMARK    2  A    between atoms: C_2  and  C_3
REMARK    3  A    between atoms: C_3  and  C_4
REMARK    4  A    between atoms: C_16  and  C_17
REMARK    5  A    between atoms: C_16  and  C_18
REMARK    6  A    between atoms: C_22  and  C_23
REMARK    7  A    between atoms: C_24  and  C_25
REMARK    8  A    between atoms: C_26  and  O_27
REMARK                            x       y       z     vdW  Elec       q    Type
REMARK                         _______ _______ _______ _____ _____    ______ ____
ROOT
ATOM      1  C   UNL     1      22.488   6.484  50.060  0.00  0.00    +0.000 A 
ATOM      2  C   UNL     1      21.318   5.946  50.460  0.00  0.00    +0.000 A 
ATOM      3  C   UNL     1      21.009   4.520  50.453  0.00  0.00    +0.000 A 
ATOM      4  O   UNL     1      19.915   4.074  50.763  0.00  0.00    +0.000 OA
ATOM      5  O   UNL     1      22.065   3.714  50.148  0.00  0.00    +0.000 OA
ATOM      6  C   UNL     1      23.329   4.291  50.163  0.00  0.00    +0.000 A 
ATOM      7  C   UNL     1      24.285   3.583  50.822  0.00  0.00    +0.000 A 
ATOM      8  C   UNL     1      25.601   3.697  50.433  0.00  0.00    +0.000 A 
ATOM      9  C   UNL     1      25.922   4.754  49.567  0.00  0.00    +0.000 A 
ATOM     10  C   UNL     1      24.964   5.779  49.337  0.00  0.00    +0.000 A 
ATOM     11  C   UNL     1      23.614   5.569  49.722  0.00  0.00    +0.000 A 
ATOM     12  O   UNL     1      25.311   6.943  48.679  0.00  0.00    +0.000 OA
ATOM     13  C   UNL     1      26.722   7.177  48.365  0.00  0.00    +0.000 C 
ATOM     14  C   UNL     1      26.803   7.840  46.978  0.00  0.00    +0.000 C 
ATOM     15  C   UNL     1      27.295   8.146  49.410  0.00  0.00    +0.000 C 
ATOM     16  C   UNL     1      27.595   5.944  48.352  0.00  0.00    +0.000 C 
ATOM     17  C   UNL     1      27.232   4.812  48.959  0.00  0.00    +0.000 C 
ATOM     18  O   UNL     1      26.526   2.793  50.865  0.00  0.00    +0.000 OA
ATOM     19  C   UNL     1      26.158   1.886  51.942  0.00  0.00    +0.000 C 
ATOM     20  C   UNL     1      26.850   0.552  51.651  0.00  0.00    +0.000 C 
ATOM     21  C   UNL     1      24.651   1.629  52.172  0.00  0.00    +0.000 C 
ATOM     22  C   UNL     1      24.341   0.953  53.515  0.00  0.00    +0.000 C 
ATOM     23  C   UNL     1      23.908   2.924  52.102  0.00  0.00    +0.000 C 
ENDROOT
BRANCH  23  24
ATOM     24  O   UNL     1      24.278   3.794  53.176  0.00  0.00    +0.000 OA
ATOM     25  H   UNL     1      23.523   4.355  53.413  0.00  0.00    +0.000 HD
ENDBRANCH  23  24
BRANCH   1  26
ATOM     26  C   UNL     1      22.684   7.942  50.341  0.00  0.00    +0.000 C 
BRANCH  26  28
ATOM     27  C   UNL     1      21.050   9.488  49.220  0.00  0.00    +0.000 C 
ATOM     28  C   UNL     1      22.412   8.811  49.118  0.00  0.00    +0.000 C 
ENDBRANCH  26  28
ENDBRANCH   1  26
TORSDOF 3
ENDMDL
MODEL 5
REMARK VINA RESULT:    -7.485      2.031      5.054
REMARK INTER + INTRA:          -8.942
REMARK INTER:                  -8.682
REMARK INTRA:                  -0.260
REMARK UNBOUND:                -0.363
REMARK  Name = 
REMARK  8 active torsions:
REMARK  status: ('A' for Active; 'I' for Inactive)
REMARK    1  A    between atoms: C_1  and  C_2
REMARK    2  A    between atoms: C_2  and  C_3
REMARK    3  A    between atoms: C_3  and  C_4
REMARK    4  A    between atoms: C_16  and  C_17
REMARK    5  A    between atoms: C_16  and  C_18
REMARK    6  A    between atoms: C_22  and  C_23
REMARK    7  A    between atoms: C_24  and  C_25
REMARK    8  A    between atoms: C_26  and  O_27
REMARK                            x       y       z     vdW  Elec       q    Type
REMARK                         _______ _______ _______ _____ _____    ______ ____
ROOT
ATOM      1  C   UNL     1      22.520   0.720  52.848  0.00  0.00    +0.000 A 
ATOM      2  C   UNL     1      23.815   0.605  53.208  0.00  0.00    +0.000 A 
ATOM      3  C   UNL     1      24.951   0.896  52.340  0.00  0.00    +0.000 A 
ATOM      4  O   UNL     1      26.111   0.719  52.681  0.00  0.00    +0.000 OA
ATOM      5  O   UNL     1      24.620   1.458  51.144  0.00  0.00    +0.000 OA
ATOM      6  C   UNL     1      23.324   1.938  51.004  0.00  0.00    +0.000 A 
ATOM      7  C   UNL     1      23.219   3.182  50.465  0.00  0.00    +0.000 A 
ATOM      8  C   UNL     1      22.089   3.517  49.751  0.00  0.00    +0.000 A 
ATOM      9  C   UNL     1      20.986   2.657  49.861  0.00  0.00    +0.000 A 
ATOM     10  C   UNL     1      20.986   1.652  50.866  0.00  0.00    +0.000 A 
ATOM     11  C   UNL     1      22.199   1.327  51.525  0.00  0.00    +0.000 A 
ATOM     12  O   UNL     1      19.840   0.936  51.157  0.00  0.00    +0.000 OA
ATOM     13  C   UNL     1      18.581   1.342  50.528  0.00  0.00    +0.000 C 
ATOM     14  C   UNL     1      17.790   0.071  50.172  0.00  0.00    +0.000 C 
ATOM     15  C   UNL     1      17.772   2.158  51.547  0.00  0.00    +0.000 C 
ATOM     16  C   UNL     1      18.723   2.177  49.277  0.00  0.00    +0.000 C 
ATOM     17  C   UNL     1      19.848   2.833  48.986  0.00  0.00    +0.000 C 
ATOM     18  O   UNL     1      22.081   4.627  48.959  0.00  0.00    +0.000 OA
ATOM     19  C   UNL     1      23.172   5.583  49.094  0.00  0.00    +0.000 C 
ATOM     20  C   UNL     1      23.449   6.135  47.694  0.00  0.00    +0.000 C 
ATOM     21  C   UNL     1      24.497   5.069  49.701  0.00  0.00    +0.000 C 
ATOM     22  C   UNL     1      25.456   6.190  50.123  0.00  0.00    +0.000 C 
ATOM     23  C   UNL     1      24.202   4.214  50.893  0.00  0.00    +0.000 C 
ENDROOT
BRANCH  23  24
ATOM     24  O   UNL     1      23.612   4.981  51.948  0.00  0.00    +0.000 OA
ATOM     25  H   UNL     1      23.191   5.772  51.577  0.00  0.00    +0.000 HD
ENDBRANCH  23  24
BRANCH   1  26
ATOM     26  C   UNL     1      21.506   0.579  53.942  0.00  0.00    +0.000 C 
BRANCH  26  28
ATOM     27  C   UNL     1      21.198  -1.890  54.292  0.00  0.00    +0.000 C 
ATOM     28  C   UNL     1      21.799  -0.607  54.854  0.00  0.00    +0.000 C 
ENDBRANCH  26  28
ENDBRANCH   1  26
TORSDOF 3
ENDMDL
MODEL 6
REMARK VINA RESULT:    -7.467      2.326      5.815
REMARK INTER + INTRA:          -8.921
REMARK INTER:                  -8.707
REMARK INTRA:                  -0.214
REMARK UNBOUND:                -0.363
REMARK  Name = 
REMARK  8 active torsions:
REMARK  status: ('A' for Active; 'I' for Inactive)
REMARK    1  A    between atoms: C_1  and  C_2
REMARK    2  A    between atoms: C_2  and  C_3
REMARK    3  A    between atoms: C_3  and  C_4
REMARK    4  A    between atoms: C_16  and  C_17
REMARK    5  A    between atoms: C_16  and  C_18
REMARK    6  A    between atoms: C_22  and  C_23
REMARK    7  A    between atoms: C_24  and  C_25
REMARK    8  A    between atoms: C_26  and  O_27
REMARK                            x       y       z     vdW  Elec       q    Type
REMARK                         _______ _______ _______ _____ _____    ______ ____
ROOT
ATOM      1  C   UNL     1      23.591   1.153  52.663  0.00  0.00    +0.000 A 
ATOM      2  C   UNL     1      23.372   0.013  53.350  0.00  0.00    +0.000 A 
ATOM      3  C   UNL     1      22.162  -0.285  54.109  0.00  0.00    +0.000 A 
ATOM      4  O   UNL     1      22.026  -1.302  54.771  0.00  0.00    +0.000 OA
ATOM      5  O   UNL     1      21.160   0.627  53.957  0.00  0.00    +0.000 OA
ATOM      6  C   UNL     1      21.286   1.542  52.919  0.00  0.00    +0.000 A 
ATOM      7  C   UNL     1      20.177   1.707  52.151  0.00  0.00    +0.000 A 
ATOM      8  C   UNL     1      19.957   2.916  51.529  0.00  0.00    +0.000 A 
ATOM      9  C   UNL     1      21.032   3.818  51.488  0.00  0.00    +0.000 A 
ATOM     10  C   UNL     1      22.331   3.367  51.848  0.00  0.00    +0.000 A 
ATOM     11  C   UNL     1      22.474   2.131  52.531  0.00  0.00    +0.000 A 
ATOM     12  O   UNL     1      23.447   4.146  51.611  0.00  0.00    +0.000 OA
ATOM     13  C   UNL     1      23.290   5.377  50.832  0.00  0.00    +0.000 C 
ATOM     14  C   UNL     1      24.202   6.453  51.445  0.00  0.00    +0.000 C 
ATOM     15  C   UNL     1      23.749   5.100  49.393  0.00  0.00    +0.000 C 
ATOM     16  C   UNL     1      21.884   5.927  50.769  0.00  0.00    +0.000 C 
ATOM     17  C   UNL     1      20.815   5.174  51.039  0.00  0.00    +0.000 C 
ATOM     18  O   UNL     1      18.732   3.209  51.008  0.00  0.00    +0.000 OA
ATOM     19  C   UNL     1      17.759   2.133  50.879  0.00  0.00    +0.000 C 
ATOM     20  C   UNL     1      16.385   2.747  51.157  0.00  0.00    +0.000 C 
ATOM     21  C   UNL     1      17.945   0.893  51.784  0.00  0.00    +0.000 C 
ATOM     22  C   UNL     1      17.103  -0.315  51.351  0.00  0.00    +0.000 C 
ATOM     23  C   UNL     1      19.387   0.496  51.795  0.00  0.00    +0.000 C 
ENDROOT
BRANCH  23  24
ATOM     24  O   UNL     1      19.813   0.050  50.504  0.00  0.00    +0.000 OA
ATOM     25  H   UNL     1      19.062   0.072  49.890  0.00  0.00    +0.000 HD
ENDBRANCH  23  24
BRANCH   1  26
ATOM     26  C   UNL     1      24.801   1.180  51.780  0.00  0.00    +0.000 C 
BRANCH  26  28
ATOM     27  C   UNL     1      26.835  -0.249  52.146  0.00  0.00    +0.000 C 
ATOM     28  C   UNL     1      26.097   1.016  52.566  0.00  0.00    +0.000 C 
ENDBRANCH  26  28
ENDBRANCH   1  26
TORSDOF 3
ENDMDL
MODEL 7
REMARK VINA RESULT:    -7.355      1.804      5.864
REMARK INTER + INTRA:          -8.793
REMARK INTER:                  -8.281
REMARK INTRA:                  -0.512
REMARK UNBOUND:                -0.363
REMARK  Name = 
REMARK  8 active torsions:
REMARK  status: ('A' for Active; 'I' for Inactive)
REMARK    1  A    between atoms: C_1  and  C_2
REMARK    2  A    between atoms: C_2  and  C_3
REMARK    3  A    between atoms: C_3  and  C_4
REMARK    4  A    between atoms: C_16  and  C_17
REMARK    5  A    between atoms: C_16  and  C_18
REMARK    6  A    between atoms: C_22  and  C_23
REMARK    7  A    between atoms: C_24  and  C_25
REMARK    8  A    between atoms: C_26  and  O_27
REMARK                            x       y       z     vdW  Elec       q    Type
REMARK                         _______ _______ _______ _____ _____    ______ ____
ROOT
ATOM      1  C   UNL     1      21.952   4.732  50.351  0.00  0.00    +0.000 A 
ATOM      2  C   UNL     1      22.834   5.752  50.347  0.00  0.00    +0.000 A 
ATOM      3  C   UNL     1      23.779   6.044  51.419  0.00  0.00    +0.000 A 
ATOM      4  O   UNL     1      24.520   7.015  51.408  0.00  0.00    +0.000 OA
ATOM      5  O   UNL     1      23.829   5.100  52.402  0.00  0.00    +0.000 OA
ATOM      6  C   UNL     1      23.217   3.880  52.142  0.00  0.00    +0.000 A 
ATOM      7  C   UNL     1      23.954   2.781  52.452  0.00  0.00    +0.000 A 
ATOM      8  C   UNL     1      23.313   1.613  52.805  0.00  0.00    +0.000 A 
ATOM      9  C   UNL     1      21.936   1.538  52.548  0.00  0.00    +0.000 A 
ATOM     10  C   UNL     1      21.326   2.529  51.732  0.00  0.00    +0.000 A 
ATOM     11  C   UNL     1      22.030   3.728  51.450  0.00  0.00    +0.000 A 
ATOM     12  O   UNL     1      20.034   2.374  51.270  0.00  0.00    +0.000 OA
ATOM     13  C   UNL     1      19.355   1.096  51.500  0.00  0.00    +0.000 C 
ATOM     14  C   UNL     1      17.880   1.386  51.826  0.00  0.00    +0.000 C 
ATOM     15  C   UNL     1      19.422   0.274  50.203  0.00  0.00    +0.000 C 
ATOM     16  C   UNL     1      19.929   0.250  52.612  0.00  0.00    +0.000 C 
ATOM     17  C   UNL     1      21.167   0.434  53.077  0.00  0.00    +0.000 C 
ATOM     18  O   UNL     1      24.008   0.603  53.401  0.00  0.00    +0.000 OA
ATOM     19  C   UNL     1      25.462   0.669  53.406  0.00  0.00    +0.000 C 
ATOM     20  C   UNL     1      25.926   0.071  54.737  0.00  0.00    +0.000 C 
ATOM     21  C   UNL     1      26.111   2.061  53.230  0.00  0.00    +0.000 C 
ATOM     22  C   UNL     1      27.610   2.004  52.905  0.00  0.00    +0.000 C 
ATOM     23  C   UNL     1      25.409   2.805  52.139  0.00  0.00    +0.000 C 
ENDROOT
BRANCH  23  24
ATOM     24  O   UNL     1      25.602   2.170  50.871  0.00  0.00    +0.000 OA
ATOM     25  H   UNL     1      24.784   2.228  50.353  0.00  0.00    +0.000 HD
ENDBRANCH  23  24
BRANCH   1  26
ATOM     26  C   UNL     1      21.217   4.477  49.071  0.00  0.00    +0.000 C 
BRANCH  26  28
ATOM     27  C   UNL     1      22.019   2.319  48.063  0.00  0.00    +0.000 C 
ATOM     28  C   UNL     1      22.106   3.839  48.009  0.00  0.00    +0.000 C 
ENDBRANCH  26  28
ENDBRANCH   1  26
TORSDOF 3
ENDMDL
MODEL 8
REMARK VINA RESULT:    -7.266      2.572      6.469
REMARK INTER + INTRA:          -8.691
REMARK INTER:                  -8.264
REMARK INTRA:                  -0.428
REMARK UNBOUND:                -0.363
REMARK  Name = 
REMARK  8 active torsions:
REMARK  status: ('A' for Active; 'I' for Inactive)
REMARK    1  A    between atoms: C_1  and  C_2
REMARK    2  A    between atoms: C_2  and  C_3
REMARK    3  A    between atoms: C_3  and  C_4
REMARK    4  A    between atoms: C_16  and  C_17
REMARK    5  A    between atoms: C_16  and  C_18
REMARK    6  A    between atoms: C_22  and  C_23
REMARK    7  A    between atoms: C_24  and  C_25
REMARK    8  A    between atoms: C_26  and  O_27
REMARK                            x       y       z     vdW  Elec       q    Type
REMARK                         _______ _______ _______ _____ _____    ______ ____
ROOT
ATOM      1  C   UNL     1      19.904   4.188  50.472  0.00  0.00    +0.000 A 
ATOM      2  C   UNL     1      20.780   5.214  50.477  0.00  0.00    +0.000 A 
ATOM      3  C   UNL     1      21.794   5.442  51.501  0.00  0.00    +0.000 A 
ATOM      4  O   UNL     1      22.528   6.418  51.506  0.00  0.00    +0.000 OA
ATOM      5  O   UNL     1      21.912   4.436  52.413  0.00  0.00    +0.000 OA
ATOM      6  C   UNL     1      21.289   3.231  52.114  0.00  0.00    +0.000 A 
ATOM      7  C   UNL     1      22.050   2.119  52.301  0.00  0.00    +0.000 A 
ATOM      8  C   UNL     1      21.439   0.926  52.617  0.00  0.00    +0.000 A 
ATOM      9  C   UNL     1      20.047   0.856  52.447  0.00  0.00    +0.000 A 
ATOM     10  C   UNL     1      19.381   1.893  51.741  0.00  0.00    +0.000 A 
ATOM     11  C   UNL     1      20.059   3.115  51.494  0.00  0.00    +0.000 A 
ATOM     12  O   UNL     1      18.061   1.759  51.357  0.00  0.00    +0.000 OA
ATOM     13  C   UNL     1      17.404   0.463  51.545  0.00  0.00    +0.000 C 
ATOM     14  C   UNL     1      15.953   0.718  51.987  0.00  0.00    +0.000 C 
ATOM     15  C   UNL     1      17.387  -0.271  50.196  0.00  0.00    +0.000 C 
ATOM     16  C   UNL     1      18.054  -0.450  52.558  0.00  0.00    +0.000 C 
ATOM     17  C   UNL     1      19.320  -0.287  52.951  0.00  0.00    +0.000 C 
ATOM     18  O   UNL     1      22.175  -0.117  53.097  0.00  0.00    +0.000 OA
ATOM     19  C   UNL     1      23.626  -0.039  53.010  0.00  0.00    +0.000 C 
ATOM     20  C   UNL     1      24.180  -0.720  54.264  0.00  0.00    +0.000 C 
ATOM     21  C   UNL     1      24.257   1.367  52.884  0.00  0.00    +0.000 C 
ATOM     22  C   UNL     1      25.730   1.344  52.457  0.00  0.00    +0.000 C 
ATOM     23  C   UNL     1      23.480   2.176  51.894  0.00  0.00    +0.000 C 
ENDROOT
BRANCH  23  24
ATOM     24  O   UNL     1      23.591   1.628  50.577  0.00  0.00    +0.000 OA
ATOM     25  H   UNL     1      24.375   1.993  50.139  0.00  0.00    +0.000 HD
ENDBRANCH  23  24
BRANCH   1  26
ATOM     26  C   UNL     1      19.087   4.012  49.229  0.00  0.00    +0.000 C 
BRANCH  26  28
ATOM     27  C   UNL     1      20.562   2.321  48.100  0.00  0.00    +0.000 C 
ATOM     28  C   UNL     1      19.947   3.712  48.007  0.00  0.00    +0.000 C 
ENDBRANCH  26  28
ENDBRANCH   1  26
TORSDOF 3
ENDMDL
MODEL 9
REMARK VINA RESULT:    -6.971      1.806      5.598
REMARK INTER + INTRA:          -8.353
REMARK INTER:                  -8.308
REMARK INTRA:                  -0.045
REMARK UNBOUND:                -0.363
REMARK  Name = 
REMARK  8 active torsions:
REMARK  status: ('A' for Active; 'I' for Inactive)
REMARK    1  A    between atoms: C_1  and  C_2
REMARK    2  A    between atoms: C_2  and  C_3
REMARK    3  A    between atoms: C_3  and  C_4
REMARK    4  A    between atoms: C_16  and  C_17
REMARK    5  A    between atoms: C_16  and  C_18
REMARK    6  A    between atoms: C_22  and  C_23
REMARK    7  A    between atoms: C_24  and  C_25
REMARK    8  A    between atoms: C_26  and  O_27
REMARK                            x       y       z     vdW  Elec       q    Type
REMARK                         _______ _______ _______ _____ _____    ______ ____
ROOT
ATOM      1  C   UNL     1      21.585   4.185  50.827  0.00  0.00    +0.000 A 
ATOM      2  C   UNL     1      20.613   3.335  51.216  0.00  0.00    +0.000 A 
ATOM      3  C   UNL     1      20.709   1.880  51.170  0.00  0.00    +0.000 A 
ATOM      4  O   UNL     1      19.784   1.142  51.472  0.00  0.00    +0.000 OA
ATOM      5  O   UNL     1      21.943   1.405  50.838  0.00  0.00    +0.000 OA
ATOM      6  C   UNL     1      22.999   2.307  50.864  0.00  0.00    +0.000 A 
ATOM      7  C   UNL     1      24.120   1.873  51.499  0.00  0.00    +0.000 A 
ATOM      8  C   UNL     1      25.350   2.356  51.109  0.00  0.00    +0.000 A 
ATOM      9  C   UNL     1      25.357   3.482  50.272  0.00  0.00    +0.000 A 
ATOM     10  C   UNL     1      24.152   4.209  50.074  0.00  0.00    +0.000 A 
ATOM     11  C   UNL     1      22.916   3.625  50.459  0.00  0.00    +0.000 A 
ATOM     12  O   UNL     1      24.156   5.440  49.448  0.00  0.00    +0.000 OA
ATOM     13  C   UNL     1      25.445   6.062  49.135  0.00  0.00    +0.000 C 
ATOM     14  C   UNL     1      25.325   6.757  47.768  0.00  0.00    +0.000 C 
ATOM     15  C   UNL     1      25.742   7.124  50.205  0.00  0.00    +0.000 C 
ATOM     16  C   UNL     1      26.624   5.118  49.084  0.00  0.00    +0.000 C 
ATOM     17  C   UNL     1      26.594   3.914  49.661  0.00  0.00    +0.000 C 
ATOM     18  O   UNL     1      26.493   1.731  51.511  0.00  0.00    +0.000 OA
ATOM     19  C   UNL     1      26.401   0.729  52.564  0.00  0.00    +0.000 C 
ATOM     20  C   UNL     1      27.430  -0.354  52.232  0.00  0.00    +0.000 C 
ATOM     21  C   UNL     1      25.026   0.060  52.793  0.00  0.00    +0.000 C 
ATOM     22  C   UNL     1      24.930  -0.710  54.116  0.00  0.00    +0.000 C 
ATOM     23  C   UNL     1      23.954   1.102  52.762  0.00  0.00    +0.000 C 
ENDROOT
BRANCH  23  24
ATOM     24  O   UNL     1      24.083   2.012  53.859  0.00  0.00    +0.000 OA
ATOM     25  H   UNL     1      23.279   1.981  54.401  0.00  0.00    +0.000 HD
ENDBRANCH  23  24
BRANCH   1  26
ATOM     26  C   UNL     1      21.376   5.633  51.148  0.00  0.00    +0.000 C 
BRANCH  26  28
ATOM     27  C   UNL     1      20.641   5.519  48.748  0.00  0.00    +0.000 C 
ATOM     28  C   UNL     1      20.891   6.431  49.943  0.00  0.00    +0.000 C 
ENDBRANCH  26  28
ENDBRANCH   1  26
TORSDOF 3
ENDMDL
