MODEL 1
REMARK VINA RESULT:    -9.796      0.000      0.000
REMARK INTER + INTRA:         -12.632
REMARK INTER:                 -12.087
REMARK INTRA:                  -0.545
REMARK UNBOUND:                -0.545
REMARK  Name = 
REMARK  6 active torsions:
REMARK  status: ('A' for Active; 'I' for Inactive)
REMARK    1  A    between atoms: C_1  and  C_2
REMARK    2  A    between atoms: C_2  and  C_3
REMARK    3  A    between atoms: N_10  and  C_11
REMARK    4  A    between atoms: C_15  and  O_16
REMARK    5  A    between atoms: O_16  and  C_17
REMARK    6  A    between atoms: C_17  and  C_18
REMARK                            x       y       z     vdW  Elec       q    Type
REMARK                         _______ _______ _______ _____ _____    ______ ____
ROOT
ATOM      1  C   UNL     1      26.113  -1.072  52.673  0.00  0.00    +0.000 C 
ATOM      2  C   UNL     1      27.068  -0.193  53.500  0.00  0.00    +0.000 C 
ATOM      3  C   UNL     1      26.489  -0.068  54.931  0.00  0.00    +0.000 C 
ATOM      4  N   UNL     1      28.243  -1.057  53.677  0.00  0.00    +0.000 N 
ATOM      5  C   UNL     1      29.379  -0.473  53.815  0.00  0.00    +0.000 C 
ATOM      6  N   UNL     1      30.452  -1.235  54.133  0.00  0.00    +0.000 N 
ATOM      7  N   UNL     1      29.582   0.855  53.732  0.00  0.00    +0.000 N 
ATOM      8  C   UNL     1      28.627   1.594  53.265  0.00  0.00    +0.000 C 
ATOM      9  N   UNL     1      28.961   2.895  53.087  0.00  0.00    +0.000 N 
ATOM     10  N   UNL     1      27.359   1.157  52.938  0.00  0.00    +0.000 N 
ATOM     11  H   UNL     1      28.163  -2.038  53.690  0.00  0.00    +0.000 HD
ATOM     12  H   UNL     1      30.356  -2.212  54.206  0.00  0.00    +0.000 HD
ATOM     13  H   UNL     1      31.326  -0.812  54.292  0.00  0.00    +0.000 HD
ATOM     14  H   UNL     1      30.434   1.255  54.020  0.00  0.00    +0.000 HD
ATOM     15  H   UNL     1      29.865   3.208  53.320  0.00  0.00    +0.000 HD
ATOM     16  H   UNL     1      28.299   3.529  52.726  0.00  0.00    +0.000 HD
ENDROOT
BRANCH  10  17
ATOM     17  C   UNL     1      26.273   2.010  52.569  0.00  0.00    +0.000 A 
ATOM     18  C   UNL     1      25.264   2.363  53.480  0.00  0.00    +0.000 A 
ATOM     19  C   UNL     1      24.254   3.279  53.165  0.00  0.00    +0.000 A 
ATOM     20  C   UNL     1      24.132   3.760  51.869  0.00  0.00    +0.000 A 
ATOM     21  C   UNL     1      24.998   3.293  50.888  0.00  0.00    +0.000 A 
ATOM     22  C   UNL     1      26.090   2.493  51.256  0.00  0.00    +0.000 A 
BRANCH  21  23
ATOM     23  O   UNL     1      24.873   3.547  49.544  0.00  0.00    +0.000 OA
BRANCH  23  24
ATOM     24  C   UNL     1      24.845   4.934  49.184  0.00  0.00    +0.000 C 
BRANCH  24  25
ATOM     25  C   UNL     1      26.224   5.504  48.906  0.00  0.00    +0.000 A 
ATOM     26  C   UNL     1      27.358   4.709  48.697  0.00  0.00    +0.000 A 
ATOM     27  C   UNL     1      28.579   5.291  48.347  0.00  0.00    +0.000 A 
ATOM     28  C   UNL     1      28.692   6.681  48.213  0.00  0.00    +0.000 A 
ATOM     29 CL   UNL     1      30.218   7.327  47.726  0.00  0.00    +0.000 Cl
ATOM     30  C   UNL     1      27.581   7.488  48.461  0.00  0.00    +0.000 A 
ATOM     31 CL   UNL     1      27.638   9.211  48.342  0.00  0.00    +0.000 Cl
ATOM     32  C   UNL     1      26.358   6.901  48.806  0.00  0.00    +0.000 A 
ENDBRANCH  24  25
ENDBRANCH  23  24
ENDBRANCH  21  23
ENDBRANCH  10  17
TORSDOF 4
ENDMDL
MODEL 2
REMARK VINA RESULT:    -8.944      4.298      7.427
REMARK INTER + INTRA:         -11.581
REMARK INTER:                 -10.866
REMARK INTRA:                  -0.715
REMARK UNBOUND:                -0.545
REMARK  Name = 
REMARK  6 active torsions:
REMARK  status: ('A' for Active; 'I' for Inactive)
REMARK    1  A    between atoms: C_1  and  C_2
REMARK    2  A    between atoms: C_2  and  C_3
REMARK    3  A    between atoms: N_10  and  C_11
REMARK    4  A    between atoms: C_15  and  O_16
REMARK    5  A    between atoms: O_16  and  C_17
REMARK    6  A    between atoms: C_17  and  C_18
REMARK                            x       y       z     vdW  Elec       q    Type
REMARK                         _______ _______ _______ _____ _____    ______ ____
ROOT
ATOM      1  C   UNL     1      23.687   7.517  51.395  0.00  0.00    +0.000 C 
ATOM      2  C   UNL     1      24.702   7.554  50.238  0.00  0.00    +0.000 C 
ATOM      3  C   UNL     1      23.971   8.068  48.972  0.00  0.00    +0.000 C 
ATOM      4  N   UNL     1      25.582   8.672  50.605  0.00  0.00    +0.000 N 
ATOM      5  C   UNL     1      26.796   8.618  50.188  0.00  0.00    +0.000 C 
ATOM      6  N   UNL     1      27.583   9.703  50.379  0.00  0.00    +0.000 N 
ATOM      7  N   UNL     1      27.337   7.588  49.512  0.00  0.00    +0.000 N 
ATOM      8  C   UNL     1      26.679   6.474  49.459  0.00  0.00    +0.000 C 
ATOM      9  N   UNL     1      27.353   5.451  48.880  0.00  0.00    +0.000 N 
ATOM     10  N   UNL     1      25.404   6.271  49.947  0.00  0.00    +0.000 N 
ATOM     11  H   UNL     1      25.256   9.427  51.146  0.00  0.00    +0.000 HD
ATOM     12  H   UNL     1      27.234  10.483  50.868  0.00  0.00    +0.000 HD
ATOM     13  H   UNL     1      28.502   9.711  50.030  0.00  0.00    +0.000 HD
ATOM     14  H   UNL     1      28.211   7.678  49.069  0.00  0.00    +0.000 HD
ATOM     15  H   UNL     1      28.262   5.595  48.532  0.00  0.00    +0.000 HD
ATOM     16  H   UNL     1      26.932   4.564  48.806  0.00  0.00    +0.000 HD
ENDROOT
BRANCH  10  17
ATOM     17  C   UNL     1      24.634   5.083  49.746  0.00  0.00    +0.000 A 
ATOM     18  C   UNL     1      23.752   4.945  48.662  0.00  0.00    +0.000 A 
ATOM     19  C   UNL     1      23.072   3.752  48.393  0.00  0.00    +0.000 A 
ATOM     20  C   UNL     1      23.137   2.697  49.294  0.00  0.00    +0.000 A 
ATOM     21  C   UNL     1      23.851   2.858  50.475  0.00  0.00    +0.000 A 
ATOM     22  C   UNL     1      24.642   4.002  50.653  0.00  0.00    +0.000 A 
BRANCH  21  23
ATOM     23  O   UNL     1      23.846   1.970  51.522  0.00  0.00    +0.000 OA
BRANCH  23  24
ATOM     24  C   UNL     1      24.656   2.343  52.644  0.00  0.00    +0.000 C 
BRANCH  24  25
ATOM     25  C   UNL     1      25.815   1.392  52.884  0.00  0.00    +0.000 A 
ATOM     26  C   UNL     1      25.816   0.058  52.458  0.00  0.00    +0.000 A 
ATOM     27  C   UNL     1      26.953  -0.739  52.621  0.00  0.00    +0.000 A 
ATOM     28  C   UNL     1      28.104  -0.219  53.227  0.00  0.00    +0.000 A 
ATOM     29 CL   UNL     1      29.489  -1.244  53.347  0.00  0.00    +0.000 Cl
ATOM     30  C   UNL     1      28.101   1.095  53.695  0.00  0.00    +0.000 A 
ATOM     31 CL   UNL     1      29.469   1.807  54.476  0.00  0.00    +0.000 Cl
ATOM     32  C   UNL     1      26.963   1.891  53.525  0.00  0.00    +0.000 A 
ENDBRANCH  24  25
ENDBRANCH  23  24
ENDBRANCH  21  23
ENDBRANCH  10  17
TORSDOF 4
ENDMDL
MODEL 3
REMARK VINA RESULT:    -8.875      4.871      6.703
REMARK INTER + INTRA:         -11.496
REMARK INTER:                 -11.153
REMARK INTRA:                  -0.343
REMARK UNBOUND:                -0.545
REMARK  Name = 
REMARK  6 active torsions:
REMARK  status: ('A' for Active; 'I' for Inactive)
REMARK    1  A    between atoms: C_1  and  C_2
REMARK    2  A    between atoms: C_2  and  C_3
REMARK    3  A    between atoms: N_10  and  C_11
REMARK    4  A    between atoms: C_15  and  O_16
REMARK    5  A    between atoms: O_16  and  C_17
REMARK    6  A    between atoms: C_17  and  C_18
REMARK                            x       y       z     vdW  Elec       q    Type
REMARK                         _______ _______ _______ _____ _____    ______ ____
ROOT
ATOM      1  C   UNL     1      26.466  -1.310  52.111  0.00  0.00    +0.000 C 
ATOM      2  C   UNL     1      27.188  -0.358  53.081  0.00  0.00    +0.000 C 
ATOM      3  C   UNL     1      26.361  -0.285  54.389  0.00  0.00    +0.000 C 
ATOM      4  N   UNL     1      28.381  -1.122  53.470  0.00  0.00    +0.000 N 
ATOM      5  C   UNL     1      29.424  -0.447  53.796  0.00  0.00    +0.000 C 
ATOM      6  N   UNL     1      30.484  -1.118  54.304  0.00  0.00    +0.000 N 
ATOM      7  N   UNL     1      29.529   0.894  53.734  0.00  0.00    +0.000 N 
ATOM      8  C   UNL     1      28.612   1.553  53.100  0.00  0.00    +0.000 C 
ATOM      9  N   UNL     1      28.864   2.878  52.967  0.00  0.00    +0.000 N 
ATOM     10  N   UNL     1      27.461   1.014  52.563  0.00  0.00    +0.000 N 
ATOM     11  H   UNL     1      28.380  -2.106  53.480  0.00  0.00    +0.000 HD
ATOM     12  H   UNL     1      30.457  -2.100  54.370  0.00  0.00    +0.000 HD
ATOM     13  H   UNL     1      31.279  -0.625  54.607  0.00  0.00    +0.000 HD
ATOM     14  H   UNL     1      30.282   1.362  54.160  0.00  0.00    +0.000 HD
ATOM     15  H   UNL     1      29.685   3.263  53.350  0.00  0.00    +0.000 HD
ATOM     16  H   UNL     1      28.226   3.455  52.489  0.00  0.00    +0.000 HD
ENDROOT
BRANCH  10  17
ATOM     17  C   UNL     1      26.390   1.775  52.001  0.00  0.00    +0.000 A 
ATOM     18  C   UNL     1      26.533   2.477  50.791  0.00  0.00    +0.000 A 
ATOM     19  C   UNL     1      25.465   3.139  50.176  0.00  0.00    +0.000 A 
ATOM     20  C   UNL     1      24.245   3.250  50.831  0.00  0.00    +0.000 A 
ATOM     21  C   UNL     1      24.115   2.729  52.113  0.00  0.00    +0.000 A 
ATOM     22  C   UNL     1      25.147   1.944  52.647  0.00  0.00    +0.000 A 
BRANCH  21  23
ATOM     23  O   UNL     1      23.033   2.927  52.934  0.00  0.00    +0.000 OA
BRANCH  23  24
ATOM     24  C   UNL     1      21.755   2.872  52.286  0.00  0.00    +0.000 C 
BRANCH  24  25
ATOM     25  C   UNL     1      20.990   1.595  52.587  0.00  0.00    +0.000 A 
ATOM     26  C   UNL     1      21.302   0.745  53.655  0.00  0.00    +0.000 A 
ATOM     27  C   UNL     1      20.499  -0.363  53.939  0.00  0.00    +0.000 A 
ATOM     28  C   UNL     1      19.377  -0.648  53.151  0.00  0.00    +0.000 A 
ATOM     29 CL   UNL     1      18.400  -2.002  53.592  0.00  0.00    +0.000 Cl
ATOM     30  C   UNL     1      19.080   0.166  52.057  0.00  0.00    +0.000 A 
ATOM     31 CL   UNL     1      17.730  -0.128  51.018  0.00  0.00    +0.000 Cl
ATOM     32  C   UNL     1      19.883   1.278  51.779  0.00  0.00    +0.000 A 
ENDBRANCH  24  25
ENDBRANCH  23  24
ENDBRANCH  21  23
ENDBRANCH  10  17
TORSDOF 4
ENDMDL
MODEL 4
REMARK VINA RESULT:    -8.740      3.491      4.572
REMARK INTER + INTRA:         -11.329
REMARK INTER:                 -10.835
REMARK INTRA:                  -0.494
REMARK UNBOUND:                -0.545
REMARK  Name = 
REMARK  6 active torsions:
REMARK  status: ('A' for Active; 'I' for Inactive)
REMARK    1  A    between atoms: C_1  and  C_2
REMARK    2  A    between atoms: C_2  and  C_3
REMARK    3  A    between atoms: N_10  and  C_11
REMARK    4  A    between atoms: C_15  and  O_16
REMARK    5  A    between atoms: O_16  and  C_17
REMARK    6  A    between atoms: C_17  and  C_18
REMARK                            x       y       z     vdW  Elec       q    Type
REMARK                         _______ _______ _______ _____ _____    ______ ____
ROOT
ATOM      1  C   UNL     1      26.671  -1.213  52.592  0.00  0.00    +0.000 C 
ATOM      2  C   UNL     1      26.602   0.024  53.505  0.00  0.00    +0.000 C 
ATOM      3  C   UNL     1      26.496  -0.464  54.972  0.00  0.00    +0.000 C 
ATOM      4  N   UNL     1      27.962   0.573  53.423  0.00  0.00    +0.000 N 
ATOM      5  C   UNL     1      28.090   1.841  53.591  0.00  0.00    +0.000 C 
ATOM      6  N   UNL     1      29.342   2.349  53.673  0.00  0.00    +0.000 N 
ATOM      7  N   UNL     1      27.072   2.705  53.758  0.00  0.00    +0.000 N 
ATOM      8  C   UNL     1      25.869   2.292  53.516  0.00  0.00    +0.000 C 
ATOM      9  N   UNL     1      24.921   3.259  53.576  0.00  0.00    +0.000 N 
ATOM     10  N   UNL     1      25.513   0.996  53.202  0.00  0.00    +0.000 N 
ATOM     11  H   UNL     1      28.740  -0.004  53.248  0.00  0.00    +0.000 HD
ATOM     12  H   UNL     1      30.121   1.758  53.558  0.00  0.00    +0.000 HD
ATOM     13  H   UNL     1      29.473   3.308  53.849  0.00  0.00    +0.000 HD
ATOM     14  H   UNL     1      27.238   3.629  54.056  0.00  0.00    +0.000 HD
ATOM     15  H   UNL     1      25.175   4.183  53.800  0.00  0.00    +0.000 HD
ATOM     16  H   UNL     1      23.979   3.037  53.396  0.00  0.00    +0.000 HD
ENDROOT
BRANCH  10  17
ATOM     17  C   UNL     1      24.168   0.526  53.089  0.00  0.00    +0.000 A 
ATOM     18  C   UNL     1      23.609  -0.359  54.027  0.00  0.00    +0.000 A 
ATOM     19  C   UNL     1      22.265  -0.745  53.987  0.00  0.00    +0.000 A 
ATOM     20  C   UNL     1      21.466  -0.376  52.913  0.00  0.00    +0.000 A 
ATOM     21  C   UNL     1      22.029   0.346  51.868  0.00  0.00    +0.000 A 
ATOM     22  C   UNL     1      23.333   0.847  51.998  0.00  0.00    +0.000 A 
BRANCH  21  23
ATOM     23  O   UNL     1      21.404   0.617  50.675  0.00  0.00    +0.000 OA
BRANCH  23  24
ATOM     24  C   UNL     1      20.518   1.743  50.691  0.00  0.00    +0.000 C 
BRANCH  24  25
ATOM     25  C   UNL     1      21.245   3.070  50.816  0.00  0.00    +0.000 A 
ATOM     26  C   UNL     1      21.234   3.847  51.981  0.00  0.00    +0.000 A 
ATOM     27  C   UNL     1      22.004   5.010  52.067  0.00  0.00    +0.000 A 
ATOM     28  C   UNL     1      22.788   5.425  50.983  0.00  0.00    +0.000 A 
ATOM     29 CL   UNL     1      23.756   6.842  51.178  0.00  0.00    +0.000 Cl
ATOM     30  C   UNL     1      22.775   4.683  49.800  0.00  0.00    +0.000 A 
ATOM     31 CL   UNL     1      23.693   5.136  48.408  0.00  0.00    +0.000 Cl
ATOM     32  C   UNL     1      22.007   3.516  49.720  0.00  0.00    +0.000 A 
ENDBRANCH  24  25
ENDBRANCH  23  24
ENDBRANCH  21  23
ENDBRANCH  10  17
TORSDOF 4
ENDMDL
MODEL 5
REMARK VINA RESULT:    -8.617      4.583      7.112
REMARK INTER + INTRA:         -11.178
REMARK INTER:                 -10.351
REMARK INTRA:                  -0.827
REMARK UNBOUND:                -0.545
REMARK  Name = 
REMARK  6 active torsions:
REMARK  status: ('A' for Active; 'I' for Inactive)
REMARK    1  A    between atoms: C_1  and  C_2
REMARK    2  A    between atoms: C_2  and  C_3
REMARK    3  A    between atoms: N_10  and  C_11
REMARK    4  A    between atoms: C_15  and  O_16
REMARK    5  A    between atoms: O_16  and  C_17
REMARK    6  A    between atoms: C_17  and  C_18
REMARK                            x       y       z     vdW  Elec       q    Type
REMARK                         _______ _______ _______ _____ _____    ______ ____
ROOT
ATOM      1  C   UNL     1      22.582   3.308  48.873  0.00  0.00    +0.000 C 
ATOM      2  C   UNL     1      23.612   3.942  49.825  0.00  0.00    +0.000 C 
ATOM      3  C   UNL     1      24.908   3.095  49.766  0.00  0.00    +0.000 C 
ATOM      4  N   UNL     1      23.982   5.185  49.133  0.00  0.00    +0.000 N 
ATOM      5  C   UNL     1      24.360   6.169  49.867  0.00  0.00    +0.000 C 
ATOM      6  N   UNL     1      24.851   7.270  49.251  0.00  0.00    +0.000 N 
ATOM      7  N   UNL     1      24.369   6.172  51.213  0.00  0.00    +0.000 N 
ATOM      8  C   UNL     1      23.754   5.217  51.833  0.00  0.00    +0.000 C 
ATOM      9  N   UNL     1      23.695   5.369  53.179  0.00  0.00    +0.000 N 
ATOM     10  N   UNL     1      23.170   4.117  51.238  0.00  0.00    +0.000 N 
ATOM     11  H   UNL     1      23.941   5.259  48.152  0.00  0.00    +0.000 HD
ATOM     12  H   UNL     1      24.866   7.318  48.268  0.00  0.00    +0.000 HD
ATOM     13  H   UNL     1      25.193   8.021  49.786  0.00  0.00    +0.000 HD
ATOM     14  H   UNL     1      24.832   6.882  51.713  0.00  0.00    +0.000 HD
ATOM     15  H   UNL     1      24.111   6.152  53.604  0.00  0.00    +0.000 HD
ATOM     16  H   UNL     1      23.236   4.695  53.731  0.00  0.00    +0.000 HD
ENDROOT
BRANCH  10  17
ATOM     17  C   UNL     1      22.630   2.998  51.945  0.00  0.00    +0.000 A 
ATOM     18  C   UNL     1      21.260   2.900  52.242  0.00  0.00    +0.000 A 
ATOM     19  C   UNL     1      20.701   1.765  52.840  0.00  0.00    +0.000 A 
ATOM     20  C   UNL     1      21.523   0.745  53.301  0.00  0.00    +0.000 A 
ATOM     21  C   UNL     1      22.901   0.885  53.195  0.00  0.00    +0.000 A 
ATOM     22  C   UNL     1      23.431   1.958  52.462  0.00  0.00    +0.000 A 
BRANCH  21  23
ATOM     23  O   UNL     1      23.822   0.044  53.767  0.00  0.00    +0.000 OA
BRANCH  23  24
ATOM     24  C   UNL     1      24.578  -0.753  52.846  0.00  0.00    +0.000 C 
BRANCH  24  25
ATOM     25  C   UNL     1      26.075  -0.679  53.086  0.00  0.00    +0.000 A 
ATOM     26  C   UNL     1      26.930  -1.781  52.957  0.00  0.00    +0.000 A 
ATOM     27  C   UNL     1      28.313  -1.626  53.094  0.00  0.00    +0.000 A 
ATOM     28  C   UNL     1      28.864  -0.370  53.376  0.00  0.00    +0.000 A 
ATOM     29 CL   UNL     1      30.583  -0.244  53.478  0.00  0.00    +0.000 Cl
ATOM     30  C   UNL     1      28.019   0.728  53.549  0.00  0.00    +0.000 A 
ATOM     31 CL   UNL     1      28.613   2.307  53.922  0.00  0.00    +0.000 Cl
ATOM     32  C   UNL     1      26.637   0.571  53.406  0.00  0.00    +0.000 A 
ENDBRANCH  24  25
ENDBRANCH  23  24
ENDBRANCH  21  23
ENDBRANCH  10  17
TORSDOF 4
ENDMDL
MODEL 6
REMARK VINA RESULT:    -8.584      2.595      3.960
REMARK INTER + INTRA:         -11.137
REMARK INTER:                 -10.268
REMARK INTRA:                  -0.869
REMARK UNBOUND:                -0.545
REMARK  Name = 
REMARK  6 active torsions:
REMARK  status: ('A' for Active; 'I' for Inactive)
REMARK    1  A    between atoms: C_1  and  C_2
REMARK    2  A    between atoms: C_2  and  C_3
REMARK    3  A    between atoms: N_10  and  C_11
REMARK    4  A    between atoms: C_15  and  O_16
REMARK    5  A    between atoms: O_16  and  C_17
REMARK    6  A    between atoms: C_17  and  C_18
REMARK                            x       y       z     vdW  Elec       q    Type
REMARK                         _______ _______ _______ _____ _____    ______ ____
ROOT
ATOM      1  C   UNL     1      26.195   1.945  51.656  0.00  0.00    +0.000 C 
ATOM      2  C   UNL     1      26.599   0.778  52.575  0.00  0.00    +0.000 C 
ATOM      3  C   UNL     1      26.762  -0.490  51.701  0.00  0.00    +0.000 C 
ATOM      4  N   UNL     1      27.979   1.116  52.952  0.00  0.00    +0.000 N 
ATOM      5  C   UNL     1      28.393   0.689  54.091  0.00  0.00    +0.000 C 
ATOM      6  N   UNL     1      29.702   0.852  54.395  0.00  0.00    +0.000 N 
ATOM      7  N   UNL     1      27.639   0.027  54.989  0.00  0.00    +0.000 N 
ATOM      8  C   UNL     1      26.357   0.002  54.816  0.00  0.00    +0.000 C 
ATOM      9  N   UNL     1      25.664  -0.565  55.834  0.00  0.00    +0.000 N 
ATOM     10  N   UNL     1      25.684   0.505  53.721  0.00  0.00    +0.000 N 
ATOM     11  H   UNL     1      28.559   1.645  52.359  0.00  0.00    +0.000 HD
ATOM     12  H   UNL     1      30.295   1.330  53.771  0.00  0.00    +0.000 HD
ATOM     13  H   UNL     1      30.059   0.494  55.238  0.00  0.00    +0.000 HD
ATOM     14  H   UNL     1      28.053  -0.426  55.759  0.00  0.00    +0.000 HD
ATOM     15  H   UNL     1      26.143  -0.924  56.615  0.00  0.00    +0.000 HD
ATOM     16  H   UNL     1      24.682  -0.618  55.792  0.00  0.00    +0.000 HD
ENDROOT
BRANCH  10  17
ATOM     17  C   UNL     1      24.286   0.333  53.473  0.00  0.00    +0.000 A 
ATOM     18  C   UNL     1      23.701  -0.940  53.377  0.00  0.00    +0.000 A 
ATOM     19  C   UNL     1      22.321  -1.124  53.241  0.00  0.00    +0.000 A 
ATOM     20  C   UNL     1      21.490  -0.029  53.042  0.00  0.00    +0.000 A 
ATOM     21  C   UNL     1      22.051   1.238  52.945  0.00  0.00    +0.000 A 
ATOM     22  C   UNL     1      23.413   1.414  53.232  0.00  0.00    +0.000 A 
BRANCH  21  23
ATOM     23  O   UNL     1      21.370   2.372  52.573  0.00  0.00    +0.000 OA
BRANCH  23  24
ATOM     24  C   UNL     1      21.286   2.599  51.161  0.00  0.00    +0.000 C 
BRANCH  24  25
ATOM     25  C   UNL     1      22.503   3.313  50.600  0.00  0.00    +0.000 A 
ATOM     26  C   UNL     1      23.252   2.827  49.522  0.00  0.00    +0.000 A 
ATOM     27  C   UNL     1      24.301   3.581  48.988  0.00  0.00    +0.000 A 
ATOM     28  C   UNL     1      24.630   4.828  49.534  0.00  0.00    +0.000 A 
ATOM     29 CL   UNL     1      25.904   5.727  48.791  0.00  0.00    +0.000 Cl
ATOM     30  C   UNL     1      23.920   5.305  50.637  0.00  0.00    +0.000 A 
ATOM     31 CL   UNL     1      24.275   6.821  51.387  0.00  0.00    +0.000 Cl
ATOM     32  C   UNL     1      22.866   4.551  51.164  0.00  0.00    +0.000 A 
ENDBRANCH  24  25
ENDBRANCH  23  24
ENDBRANCH  21  23
ENDBRANCH  10  17
TORSDOF 4
ENDMDL
MODEL 7
REMARK VINA RESULT:    -8.578      3.351      4.911
REMARK INTER + INTRA:         -11.129
REMARK INTER:                 -10.449
REMARK INTRA:                  -0.681
REMARK UNBOUND:                -0.545
REMARK  Name = 
REMARK  6 active torsions:
REMARK  status: ('A' for Active; 'I' for Inactive)
REMARK    1  A    between atoms: C_1  and  C_2
REMARK    2  A    between atoms: C_2  and  C_3
REMARK    3  A    between atoms: N_10  and  C_11
REMARK    4  A    between atoms: C_15  and  O_16
REMARK    5  A    between atoms: O_16  and  C_17
REMARK    6  A    between atoms: C_17  and  C_18
REMARK                            x       y       z     vdW  Elec       q    Type
REMARK                         _______ _______ _______ _____ _____    ______ ____
ROOT
ATOM      1  C   UNL     1      24.934   2.992  53.666  0.00  0.00    +0.000 C 
ATOM      2  C   UNL     1      25.763   1.876  53.006  0.00  0.00    +0.000 C 
ATOM      3  C   UNL     1      25.507   1.924  51.479  0.00  0.00    +0.000 C 
ATOM      4  N   UNL     1      27.142   2.364  53.139  0.00  0.00    +0.000 N 
ATOM      5  C   UNL     1      28.070   1.478  53.210  0.00  0.00    +0.000 C 
ATOM      6  N   UNL     1      29.356   1.899  53.177  0.00  0.00    +0.000 N 
ATOM      7  N   UNL     1      27.868   0.148  53.247  0.00  0.00    +0.000 N 
ATOM      8  C   UNL     1      26.665  -0.285  53.451  0.00  0.00    +0.000 C 
ATOM      9  N   UNL     1      26.572  -1.628  53.611  0.00  0.00    +0.000 N 
ATOM     10  N   UNL     1      25.531   0.498  53.528  0.00  0.00    +0.000 N 
ATOM     11  H   UNL     1      27.346   3.327  53.173  0.00  0.00    +0.000 HD
ATOM     12  H   UNL     1      29.557   2.863  53.150  0.00  0.00    +0.000 HD
ATOM     13  H   UNL     1      30.088   1.243  53.181  0.00  0.00    +0.000 HD
ATOM     14  H   UNL     1      28.615  -0.480  53.122  0.00  0.00    +0.000 HD
ATOM     15  H   UNL     1      27.380  -2.187  53.556  0.00  0.00    +0.000 HD
ATOM     16  H   UNL     1      25.696  -2.044  53.781  0.00  0.00    +0.000 HD
ENDROOT
BRANCH  10  17
ATOM     17  C   UNL     1      24.195  -0.006  53.602  0.00  0.00    +0.000 A 
ATOM     18  C   UNL     1      23.749  -0.768  54.695  0.00  0.00    +0.000 A 
ATOM     19  C   UNL     1      22.418  -1.178  54.831  0.00  0.00    +0.000 A 
ATOM     20  C   UNL     1      21.517  -0.969  53.795  0.00  0.00    +0.000 A 
ATOM     21  C   UNL     1      21.963  -0.384  52.617  0.00  0.00    +0.000 A 
ATOM     22  C   UNL     1      23.258   0.152  52.559  0.00  0.00    +0.000 A 
BRANCH  21  23
ATOM     23  O   UNL     1      21.227  -0.286  51.462  0.00  0.00    +0.000 OA
BRANCH  23  24
ATOM     24  C   UNL     1      20.619   0.991  51.231  0.00  0.00    +0.000 C 
BRANCH  24  25
ATOM     25  C   UNL     1      21.569   1.997  50.605  0.00  0.00    +0.000 A 
ATOM     26  C   UNL     1      22.174   1.811  49.357  0.00  0.00    +0.000 A 
ATOM     27  C   UNL     1      22.960   2.819  48.791  0.00  0.00    +0.000 A 
ATOM     28  C   UNL     1      23.168   4.025  49.471  0.00  0.00    +0.000 A 
ATOM     29 CL   UNL     1      24.106   5.246  48.688  0.00  0.00    +0.000 Cl
ATOM     30  C   UNL     1      22.606   4.207  50.736  0.00  0.00    +0.000 A 
ATOM     31 CL   UNL     1      22.832   5.653  51.654  0.00  0.00    +0.000 Cl
ATOM     32  C   UNL     1      21.815   3.198  51.297  0.00  0.00    +0.000 A 
ENDBRANCH  24  25
ENDBRANCH  23  24
ENDBRANCH  21  23
ENDBRANCH  10  17
TORSDOF 4
ENDMDL
MODEL 8
REMARK VINA RESULT:    -8.563      5.382      8.346
REMARK INTER + INTRA:         -11.111
REMARK INTER:                 -10.638
REMARK INTRA:                  -0.473
REMARK UNBOUND:                -0.545
REMARK  Name = 
REMARK  6 active torsions:
REMARK  status: ('A' for Active; 'I' for Inactive)
REMARK    1  A    between atoms: C_1  and  C_2
REMARK    2  A    between atoms: C_2  and  C_3
REMARK    3  A    between atoms: N_10  and  C_11
REMARK    4  A    between atoms: C_15  and  O_16
REMARK    5  A    between atoms: O_16  and  C_17
REMARK    6  A    between atoms: C_17  and  C_18
REMARK                            x       y       z     vdW  Elec       q    Type
REMARK                         _______ _______ _______ _____ _____    ______ ____
ROOT
ATOM      1  C   UNL     1      23.658   7.775  51.134  0.00  0.00    +0.000 C 
ATOM      2  C   UNL     1      24.747   7.887  50.051  0.00  0.00    +0.000 C 
ATOM      3  C   UNL     1      24.171   8.708  48.871  0.00  0.00    +0.000 C 
ATOM      4  N   UNL     1      25.726   8.797  50.659  0.00  0.00    +0.000 N 
ATOM      5  C   UNL     1      26.951   8.662  50.296  0.00  0.00    +0.000 C 
ATOM      6  N   UNL     1      27.847   9.584  50.721  0.00  0.00    +0.000 N 
ATOM      7  N   UNL     1      27.411   7.707  49.465  0.00  0.00    +0.000 N 
ATOM      8  C   UNL     1      26.630   6.716  49.177  0.00  0.00    +0.000 C 
ATOM      9  N   UNL     1      27.215   5.734  48.449  0.00  0.00    +0.000 N 
ATOM     10  N   UNL     1      25.309   6.596  49.560  0.00  0.00    +0.000 N 
ATOM     11  H   UNL     1      25.456   9.480  51.315  0.00  0.00    +0.000 HD
ATOM     12  H   UNL     1      27.561  10.303  51.330  0.00  0.00    +0.000 HD
ATOM     13  H   UNL     1      28.783   9.535  50.421  0.00  0.00    +0.000 HD
ATOM     14  H   UNL     1      28.318   7.761  49.087  0.00  0.00    +0.000 HD
ATOM     15  H   UNL     1      28.157   5.819  48.176  0.00  0.00    +0.000 HD
ATOM     16  H   UNL     1      26.699   4.936  48.193  0.00  0.00    +0.000 HD
ENDROOT
BRANCH  10  17
ATOM     17  C   UNL     1      24.419   5.573  49.107  0.00  0.00    +0.000 A 
ATOM     18  C   UNL     1      23.526   5.784  48.043  0.00  0.00    +0.000 A 
ATOM     19  C   UNL     1      22.725   4.762  47.521  0.00  0.00    +0.000 A 
ATOM     20  C   UNL     1      22.680   3.525  48.149  0.00  0.00    +0.000 A 
ATOM     21  C   UNL     1      23.408   3.330  49.317  0.00  0.00    +0.000 A 
ATOM     22  C   UNL     1      24.315   4.315  49.736  0.00  0.00    +0.000 A 
BRANCH  21  23
ATOM     23  O   UNL     1      23.311   2.226  50.127  0.00  0.00    +0.000 OA
BRANCH  23  24
ATOM     24  C   UNL     1      24.331   2.112  51.128  0.00  0.00    +0.000 C 
BRANCH  24  25
ATOM     25  C   UNL     1      24.010   1.071  52.187  0.00  0.00    +0.000 A 
ATOM     26  C   UNL     1      24.981   0.483  53.006  0.00  0.00    +0.000 A 
ATOM     27  C   UNL     1      24.611  -0.395  54.029  0.00  0.00    +0.000 A 
ATOM     28  C   UNL     1      23.263  -0.711  54.241  0.00  0.00    +0.000 A 
ATOM     29 CL   UNL     1      22.874  -1.760  55.556  0.00  0.00    +0.000 Cl
ATOM     30  C   UNL     1      22.288  -0.166  53.403  0.00  0.00    +0.000 A 
ATOM     31 CL   UNL     1      20.606  -0.522  53.578  0.00  0.00    +0.000 Cl
ATOM     32  C   UNL     1      22.663   0.717  52.384  0.00  0.00    +0.000 A 
ENDBRANCH  24  25
ENDBRANCH  23  24
ENDBRANCH  21  23
ENDBRANCH  10  17
TORSDOF 4
ENDMDL
MODEL 9
REMARK VINA RESULT:    -8.158      6.128      8.830
REMARK INTER + INTRA:         -10.611
REMARK INTER:                  -9.905
REMARK INTRA:                  -0.706
REMARK UNBOUND:                -0.545
REMARK  Name = 
REMARK  6 active torsions:
REMARK  status: ('A' for Active; 'I' for Inactive)
REMARK    1  A    between atoms: C_1  and  C_2
REMARK    2  A    between atoms: C_2  and  C_3
REMARK    3  A    between atoms: N_10  and  C_11
REMARK    4  A    between atoms: C_15  and  O_16
REMARK    5  A    between atoms: O_16  and  C_17
REMARK    6  A    between atoms: C_17  and  C_18
REMARK                            x       y       z     vdW  Elec       q    Type
REMARK                         _______ _______ _______ _____ _____    ______ ____
ROOT
ATOM      1  C   UNL     1      23.593   3.152  49.185  0.00  0.00    +0.000 C 
ATOM      2  C   UNL     1      24.163   4.224  50.132  0.00  0.00    +0.000 C 
ATOM      3  C   UNL     1      25.692   4.309  49.899  0.00  0.00    +0.000 C 
ATOM      4  N   UNL     1      23.657   5.478  49.556  0.00  0.00    +0.000 N 
ATOM      5  C   UNL     1      23.473   6.458  50.366  0.00  0.00    +0.000 C 
ATOM      6  N   UNL     1      23.156   7.665  49.842  0.00  0.00    +0.000 N 
ATOM      7  N   UNL     1      23.634   6.399  51.701  0.00  0.00    +0.000 N 
ATOM      8  C   UNL     1      23.767   5.236  52.253  0.00  0.00    +0.000 C 
ATOM      9  N   UNL     1      23.786   5.257  53.608  0.00  0.00    +0.000 N 
ATOM     10  N   UNL     1      23.868   4.034  51.581  0.00  0.00    +0.000 N 
ATOM     11  H   UNL     1      23.468   5.562  48.594  0.00  0.00    +0.000 HD
ATOM     12  H   UNL     1      23.027   7.761  48.871  0.00  0.00    +0.000 HD
ATOM     13  H   UNL     1      23.056   8.446  50.432  0.00  0.00    +0.000 HD
ATOM     14  H   UNL     1      23.651   7.220  52.244  0.00  0.00    +0.000 HD
ATOM     15  H   UNL     1      23.713   6.113  54.088  0.00  0.00    +0.000 HD
ATOM     16  H   UNL     1      23.873   4.416  54.113  0.00  0.00    +0.000 HD
ENDROOT
BRANCH  10  17
ATOM     17  C   UNL     1      24.166   2.779  52.197  0.00  0.00    +0.000 A 
ATOM     18  C   UNL     1      25.469   2.441  52.599  0.00  0.00    +0.000 A 
ATOM     19  C   UNL     1      25.758   1.262  53.296  0.00  0.00    +0.000 A 
ATOM     20  C   UNL     1      24.770   0.305  53.483  0.00  0.00    +0.000 A 
ATOM     21  C   UNL     1      23.509   0.517  52.938  0.00  0.00    +0.000 A 
ATOM     22  C   UNL     1      23.202   1.765  52.375  0.00  0.00    +0.000 A 
BRANCH  21  23
ATOM     23  O   UNL     1      22.506  -0.419  52.894  0.00  0.00    +0.000 OA
BRANCH  23  24
ATOM     24  C   UNL     1      21.393  -0.162  53.760  0.00  0.00    +0.000 C 
BRANCH  24  25
ATOM     25  C   UNL     1      20.051  -0.418  53.096  0.00  0.00    +0.000 A 
ATOM     26  C   UNL     1      19.074  -1.262  53.636  0.00  0.00    +0.000 A 
ATOM     27  C   UNL     1      17.820  -1.378  53.027  0.00  0.00    +0.000 A 
ATOM     28  C   UNL     1      17.529  -0.664  51.859  0.00  0.00    +0.000 A 
ATOM     29 CL   UNL     1      15.943  -0.815  51.191  0.00  0.00    +0.000 Cl
ATOM     30  C   UNL     1      18.510   0.148  51.285  0.00  0.00    +0.000 A 
ATOM     31 CL   UNL     1      18.242   1.044  49.832  0.00  0.00    +0.000 Cl
ATOM     32  C   UNL     1      19.760   0.266  51.900  0.00  0.00    +0.000 A 
ENDBRANCH  24  25
ENDBRANCH  23  24
ENDBRANCH  21  23
ENDBRANCH  10  17
TORSDOF 4
ENDMDL
