MODEL 1
REMARK VINA RESULT:    -8.224      0.000      0.000
REMARK INTER + INTRA:         -13.003
REMARK INTER:                 -11.589
REMARK INTRA:                  -1.414
REMARK UNBOUND:                -1.414
REMARK  Name = 
REMARK  11 active torsions:
REMARK  status: ('A' for Active; 'I' for Inactive)
REMARK    1  A    between atoms: C_1  and  C_2
REMARK    2  A    between atoms: C_2  and  C_3
REMARK    3  A    between atoms: C_3  and  O_5
REMARK    4  A    between atoms: O_5  and  C_6
REMARK    5  A    between atoms: C_6  and  C_7
REMARK    6  A    between atoms: C_6  and  C_12
REMARK    7  A    between atoms: C_7  and  C_8
REMARK    8  A    between atoms: C_9  and  C_10
REMARK    9  A    between atoms: C_9  and  C_11
REMARK   10  A    between atoms: C_17  and  O_18
REMARK   11  A    between atoms: C_21  and  O_22
REMARK                            x       y       z     vdW  Elec       q    Type
REMARK                         _______ _______ _______ _____ _____    ______ ____
ROOT
ATOM      1  C   UNL     1      24.898   0.514  52.713  0.00  0.00    +0.000 C 
ATOM      2  C   UNL     1      25.153  -0.786  52.466  0.00  0.00    +0.000 C 
ATOM      3  C   UNL     1      26.448  -1.400  52.764  0.00  0.00    +0.000 C 
ATOM      4  O   UNL     1      26.639  -2.593  52.544  0.00  0.00    +0.000 OA
ATOM      5  C   UNL     1      27.529  -0.540  53.266  0.00  0.00    +0.000 A 
ATOM      6  C   UNL     1      28.810  -1.070  53.472  0.00  0.00    +0.000 A 
ATOM      7  C   UNL     1      29.845  -0.267  53.940  0.00  0.00    +0.000 A 
ATOM      8  C   UNL     1      29.617   1.085  54.181  0.00  0.00    +0.000 A 
ATOM      9  C   UNL     1      28.349   1.623  53.962  0.00  0.00    +0.000 A 
ATOM     10  C   UNL     1      27.286   0.813  53.528  0.00  0.00    +0.000 A 
ATOM     11  C   UNL     1      25.919   1.355  53.375  0.00  0.00    +0.000 C 
ATOM     12  O   UNL     1      25.602   2.459  53.803  0.00  0.00    +0.000 OA
ENDROOT
BRANCH   6  13
ATOM     13  O   UNL     1      29.131  -2.381  53.235  0.00  0.00    +0.000 OA
ATOM     14  H   UNL     1      29.511  -2.901  53.916  0.00  0.00    +0.000 HD
ENDBRANCH   6  13
BRANCH   9  15
ATOM     15  O   UNL     1      28.172   2.965  54.151  0.00  0.00    +0.000 OA
ATOM     16  H   UNL     1      27.788   3.279  54.945  0.00  0.00    +0.000 HD
ENDBRANCH   9  15
BRANCH   1  17
ATOM     17  C   UNL     1      23.593   1.224  52.380  0.00  0.00    +0.000 C 
BRANCH  17  18
ATOM     18  O   UNL     1      22.414   0.354  52.539  0.00  0.00    +0.000 OA
BRANCH  18  19
ATOM     19  C   UNL     1      21.387   0.703  53.380  0.00  0.00    +0.000 C 
ATOM     20  O   UNL     1      20.646   1.640  53.175  0.00  0.00    +0.000 OA
BRANCH  19  22
ATOM     21  C   UNL     1      22.096  -1.367  54.786  0.00  0.00    +0.000 C 
ATOM     22  C   UNL     1      21.303  -0.074  54.685  0.00  0.00    +0.000 C 
ENDBRANCH  19  22
ENDBRANCH  18  19
ENDBRANCH  17  18
BRANCH  17  23
ATOM     23  C   UNL     1      23.680   1.817  50.954  0.00  0.00    +0.000 C 
BRANCH  23  24
ATOM     24  C   UNL     1      23.903   3.288  50.859  0.00  0.00    +0.000 C 
ATOM     25  C   UNL     1      25.038   3.842  50.407  0.00  0.00    +0.000 C 
ATOM     26  C   UNL     1      25.142   5.325  50.222  0.00  0.00    +0.000 C 
ATOM     27  C   UNL     1      26.238   3.014  50.052  0.00  0.00    +0.000 C 
ENDBRANCH  23  24
ENDBRANCH  17  23
ENDBRANCH   1  17
TORSDOF 8
ENDMDL
MODEL 2
REMARK VINA RESULT:    -7.715      1.780      4.518
REMARK INTER + INTRA:         -12.286
REMARK INTER:                 -11.333
REMARK INTRA:                  -0.953
REMARK UNBOUND:                -1.414
REMARK  Name = 
REMARK  11 active torsions:
REMARK  status: ('A' for Active; 'I' for Inactive)
REMARK    1  A    between atoms: C_1  and  C_2
REMARK    2  A    between atoms: C_2  and  C_3
REMARK    3  A    between atoms: C_3  and  O_5
REMARK    4  A    between atoms: O_5  and  C_6
REMARK    5  A    between atoms: C_6  and  C_7
REMARK    6  A    between atoms: C_6  and  C_12
REMARK    7  A    between atoms: C_7  and  C_8
REMARK    8  A    between atoms: C_9  and  C_10
REMARK    9  A    between atoms: C_9  and  C_11
REMARK   10  A    between atoms: C_17  and  O_18
REMARK   11  A    between atoms: C_21  and  O_22
REMARK                            x       y       z     vdW  Elec       q    Type
REMARK                         _______ _______ _______ _____ _____    ______ ____
ROOT
ATOM      1  C   UNL     1      25.290   0.214  53.065  0.00  0.00    +0.000 C 
ATOM      2  C   UNL     1      25.791   1.403  53.456  0.00  0.00    +0.000 C 
ATOM      3  C   UNL     1      27.222   1.611  53.685  0.00  0.00    +0.000 C 
ATOM      4  O   UNL     1      27.646   2.713  54.021  0.00  0.00    +0.000 OA
ATOM      5  C   UNL     1      28.123   0.455  53.568  0.00  0.00    +0.000 A 
ATOM      6  C   UNL     1      29.484   0.593  53.873  0.00  0.00    +0.000 A 
ATOM      7  C   UNL     1      30.347  -0.493  53.774  0.00  0.00    +0.000 A 
ATOM      8  C   UNL     1      29.853  -1.739  53.396  0.00  0.00    +0.000 A 
ATOM      9  C   UNL     1      28.496  -1.886  53.108  0.00  0.00    +0.000 A 
ATOM     10  C   UNL     1      27.623  -0.787  53.165  0.00  0.00    +0.000 A 
ATOM     11  C   UNL     1      26.200  -0.915  52.779  0.00  0.00    +0.000 C 
ATOM     12  O   UNL     1      25.766  -1.908  52.207  0.00  0.00    +0.000 OA
ENDROOT
BRANCH   6  13
ATOM     13  O   UNL     1      30.050   1.773  54.279  0.00  0.00    +0.000 OA
ATOM     14  H   UNL     1      29.975   2.045  55.173  0.00  0.00    +0.000 HD
ENDBRANCH   6  13
BRANCH   9  15
ATOM     15  O   UNL     1      28.031  -3.133  52.798  0.00  0.00    +0.000 OA
ATOM     16  H   UNL     1      28.184  -3.848  53.383  0.00  0.00    +0.000 HD
ENDBRANCH   9  15
BRANCH   1  17
ATOM     17  C   UNL     1      23.810  -0.082  52.860  0.00  0.00    +0.000 C 
BRANCH  17  18
ATOM     18  O   UNL     1      23.042   1.108  52.452  0.00  0.00    +0.000 OA
BRANCH  18  19
ATOM     19  C   UNL     1      22.856   1.409  51.126  0.00  0.00    +0.000 C 
ATOM     20  O   UNL     1      23.556   2.188  50.514  0.00  0.00    +0.000 OA
BRANCH  19  22
ATOM     21  C   UNL     1      21.423   1.047  48.986  0.00  0.00    +0.000 C 
ATOM     22  C   UNL     1      21.618   0.813  50.476  0.00  0.00    +0.000 C 
ENDBRANCH  19  22
ENDBRANCH  18  19
ENDBRANCH  17  18
BRANCH  17  23
ATOM     23  C   UNL     1      23.232  -0.725  54.142  0.00  0.00    +0.000 C 
BRANCH  23  24
ATOM     24  C   UNL     1      21.967  -1.497  53.985  0.00  0.00    +0.000 C 
ATOM     25  C   UNL     1      20.745  -0.955  54.099  0.00  0.00    +0.000 C 
ATOM     26  C   UNL     1      19.520  -1.767  53.804  0.00  0.00    +0.000 C 
ATOM     27  C   UNL     1      20.546   0.476  54.505  0.00  0.00    +0.000 C 
ENDBRANCH  23  24
ENDBRANCH  17  23
ENDBRANCH   1  17
TORSDOF 8
ENDMDL
MODEL 3
REMARK VINA RESULT:    -7.631      1.806      2.522
REMARK INTER + INTRA:         -12.168
REMARK INTER:                 -11.138
REMARK INTRA:                  -1.030
REMARK UNBOUND:                -1.414
REMARK  Name = 
REMARK  11 active torsions:
REMARK  status: ('A' for Active; 'I' for Inactive)
REMARK    1  A    between atoms: C_1  and  C_2
REMARK    2  A    between atoms: C_2  and  C_3
REMARK    3  A    between atoms: C_3  and  O_5
REMARK    4  A    between atoms: O_5  and  C_6
REMARK    5  A    between atoms: C_6  and  C_7
REMARK    6  A    between atoms: C_6  and  C_12
REMARK    7  A    between atoms: C_7  and  C_8
REMARK    8  A    between atoms: C_9  and  C_10
REMARK    9  A    between atoms: C_9  and  C_11
REMARK   10  A    between atoms: C_17  and  O_18
REMARK   11  A    between atoms: C_21  and  O_22
REMARK                            x       y       z     vdW  Elec       q    Type
REMARK                         _______ _______ _______ _____ _____    ______ ____
ROOT
ATOM      1  C   UNL     1      25.971   1.172  52.515  0.00  0.00    +0.000 C 
ATOM      2  C   UNL     1      25.661  -0.099  52.191  0.00  0.00    +0.000 C 
ATOM      3  C   UNL     1      26.561  -1.220  52.469  0.00  0.00    +0.000 C 
ATOM      4  O   UNL     1      26.236  -2.368  52.179  0.00  0.00    +0.000 OA
ATOM      5  C   UNL     1      27.883  -0.927  53.040  0.00  0.00    +0.000 A 
ATOM      6  C   UNL     1      28.809  -1.961  53.231  0.00  0.00    +0.000 A 
ATOM      7  C   UNL     1      30.068  -1.699  53.763  0.00  0.00    +0.000 A 
ATOM      8  C   UNL     1      30.425  -0.392  54.084  0.00  0.00    +0.000 A 
ATOM      9  C   UNL     1      29.514   0.645  53.881  0.00  0.00    +0.000 A 
ATOM     10  C   UNL     1      28.226   0.385  53.382  0.00  0.00    +0.000 A 
ATOM     11  C   UNL     1      27.224   1.465  53.243  0.00  0.00    +0.000 C 
ATOM     12  O   UNL     1      27.389   2.576  53.734  0.00  0.00    +0.000 OA
ENDROOT
BRANCH   6  13
ATOM     13  O   UNL     1      28.554  -3.270  52.917  0.00  0.00    +0.000 OA
ATOM     14  H   UNL     1      29.248  -3.824  52.618  0.00  0.00    +0.000 HD
ENDBRANCH   6  13
BRANCH   9  15
ATOM     15  O   UNL     1      29.915   1.922  54.150  0.00  0.00    +0.000 OA
ATOM     16  H   UNL     1      30.262   2.458  53.464  0.00  0.00    +0.000 HD
ENDBRANCH   9  15
BRANCH   1  17
ATOM     17  C   UNL     1      25.104   2.386  52.208  0.00  0.00    +0.000 C 
BRANCH  17  18
ATOM     18  O   UNL     1      23.758   2.288  52.799  0.00  0.00    +0.000 OA
BRANCH  18  19
ATOM     19  C   UNL     1      22.774   3.187  52.470  0.00  0.00    +0.000 C 
ATOM     20  O   UNL     1      21.705   2.863  51.998  0.00  0.00    +0.000 OA
BRANCH  19  22
ATOM     21  C   UNL     1      22.446   5.642  51.675  0.00  0.00    +0.000 C 
ATOM     22  C   UNL     1      23.146   4.656  52.597  0.00  0.00    +0.000 C 
ENDBRANCH  19  22
ENDBRANCH  18  19
ENDBRANCH  17  18
BRANCH  17  23
ATOM     23  C   UNL     1      25.044   2.600  50.677  0.00  0.00    +0.000 C 
BRANCH  23  24
ATOM     24  C   UNL     1      26.199   3.312  50.061  0.00  0.00    +0.000 C 
ATOM     25  C   UNL     1      26.081   4.438  49.340  0.00  0.00    +0.000 C 
ATOM     26  C   UNL     1      27.299   5.166  48.858  0.00  0.00    +0.000 C 
ATOM     27  C   UNL     1      24.743   5.025  49.000  0.00  0.00    +0.000 C 
ENDBRANCH  23  24
ENDBRANCH  17  23
ENDBRANCH   1  17
TORSDOF 8
ENDMDL
MODEL 4
REMARK VINA RESULT:    -7.368      1.391      3.629
REMARK INTER + INTRA:         -11.797
REMARK INTER:                 -11.227
REMARK INTRA:                  -0.570
REMARK UNBOUND:                -1.414
REMARK  Name = 
REMARK  11 active torsions:
REMARK  status: ('A' for Active; 'I' for Inactive)
REMARK    1  A    between atoms: C_1  and  C_2
REMARK    2  A    between atoms: C_2  and  C_3
REMARK    3  A    between atoms: C_3  and  O_5
REMARK    4  A    between atoms: O_5  and  C_6
REMARK    5  A    between atoms: C_6  and  C_7
REMARK    6  A    between atoms: C_6  and  C_12
REMARK    7  A    between atoms: C_7  and  C_8
REMARK    8  A    between atoms: C_9  and  C_10
REMARK    9  A    between atoms: C_9  and  C_11
REMARK   10  A    between atoms: C_17  and  O_18
REMARK   11  A    between atoms: C_21  and  O_22
REMARK                            x       y       z     vdW  Elec       q    Type
REMARK                         _______ _______ _______ _____ _____    ______ ____
ROOT
ATOM      1  C   UNL     1      25.112   0.544  52.465  0.00  0.00    +0.000 C 
ATOM      2  C   UNL     1      25.359  -0.761  52.234  0.00  0.00    +0.000 C 
ATOM      3  C   UNL     1      26.617  -1.400  52.622  0.00  0.00    +0.000 C 
ATOM      4  O   UNL     1      26.800  -2.596  52.414  0.00  0.00    +0.000 OA
ATOM      5  C   UNL     1      27.676  -0.561  53.203  0.00  0.00    +0.000 A 
ATOM      6  C   UNL     1      28.928  -1.117  53.498  0.00  0.00    +0.000 A 
ATOM      7  C   UNL     1      29.942  -0.334  54.042  0.00  0.00    +0.000 A 
ATOM      8  C   UNL     1      29.724   1.022  54.269  0.00  0.00    +0.000 A 
ATOM      9  C   UNL     1      28.484   1.585  53.961  0.00  0.00    +0.000 A 
ATOM     10  C   UNL     1      27.440   0.795  53.450  0.00  0.00    +0.000 A 
ATOM     11  C   UNL     1      26.098   1.364  53.201  0.00  0.00    +0.000 C 
ATOM     12  O   UNL     1      25.772   2.473  53.608  0.00  0.00    +0.000 OA
ENDROOT
BRANCH   6  13
ATOM     13  O   UNL     1      29.240  -2.433  53.282  0.00  0.00    +0.000 OA
ATOM     14  H   UNL     1      30.129  -2.684  53.123  0.00  0.00    +0.000 HD
ENDBRANCH   6  13
BRANCH   9  15
ATOM     15  O   UNL     1      28.320   2.929  54.140  0.00  0.00    +0.000 OA
ATOM     16  H   UNL     1      27.718   3.403  53.601  0.00  0.00    +0.000 HD
ENDBRANCH   9  15
BRANCH   1  17
ATOM     17  C   UNL     1      23.848   1.279  52.042  0.00  0.00    +0.000 C 
BRANCH  17  18
ATOM     18  O   UNL     1      24.125   2.619  51.494  0.00  0.00    +0.000 OA
BRANCH  18  19
ATOM     19  C   UNL     1      23.224   3.244  50.668  0.00  0.00    +0.000 C 
ATOM     20  O   UNL     1      22.441   4.087  51.052  0.00  0.00    +0.000 OA
BRANCH  19  22
ATOM     21  C   UNL     1      22.021   1.771  48.894  0.00  0.00    +0.000 C 
ATOM     22  C   UNL     1      23.156   2.722  49.242  0.00  0.00    +0.000 C 
ENDBRANCH  19  22
ENDBRANCH  18  19
ENDBRANCH  17  18
BRANCH  17  23
ATOM     23  C   UNL     1      22.865   1.340  53.235  0.00  0.00    +0.000 C 
BRANCH  23  24
ATOM     24  C   UNL     1      21.550   0.664  53.047  0.00  0.00    +0.000 C 
ATOM     25  C   UNL     1      21.169  -0.427  53.729  0.00  0.00    +0.000 C 
ATOM     26  C   UNL     1      19.784  -0.977  53.576  0.00  0.00    +0.000 C 
ATOM     27  C   UNL     1      22.092  -1.130  54.680  0.00  0.00    +0.000 C 
ENDBRANCH  23  24
ENDBRANCH  17  23
ENDBRANCH   1  17
TORSDOF 8
ENDMDL
MODEL 5
REMARK VINA RESULT:    -7.287      2.501      4.210
REMARK INTER + INTRA:         -11.684
REMARK INTER:                 -10.322
REMARK INTRA:                  -1.362
REMARK UNBOUND:                -1.414
REMARK  Name = 
REMARK  11 active torsions:
REMARK  status: ('A' for Active; 'I' for Inactive)
REMARK    1  A    between atoms: C_1  and  C_2
REMARK    2  A    between atoms: C_2  and  C_3
REMARK    3  A    between atoms: C_3  and  O_5
REMARK    4  A    between atoms: O_5  and  C_6
REMARK    5  A    between atoms: C_6  and  C_7
REMARK    6  A    between atoms: C_6  and  C_12
REMARK    7  A    between atoms: C_7  and  C_8
REMARK    8  A    between atoms: C_9  and  C_10
REMARK    9  A    between atoms: C_9  and  C_11
REMARK   10  A    between atoms: C_17  and  O_18
REMARK   11  A    between atoms: C_21  and  O_22
REMARK                            x       y       z     vdW  Elec       q    Type
REMARK                         _______ _______ _______ _____ _____    ______ ____
ROOT
ATOM      1  C   UNL     1      23.362   1.267  52.354  0.00  0.00    +0.000 C 
ATOM      2  C   UNL     1      23.456   0.309  53.298  0.00  0.00    +0.000 C 
ATOM      3  C   UNL     1      24.709   0.015  53.994  0.00  0.00    +0.000 C 
ATOM      4  O   UNL     1      24.753  -0.850  54.863  0.00  0.00    +0.000 OA
ATOM      5  C   UNL     1      25.923   0.734  53.578  0.00  0.00    +0.000 A 
ATOM      6  C   UNL     1      27.160   0.413  54.153  0.00  0.00    +0.000 A 
ATOM      7  C   UNL     1      28.318   1.080  53.765  0.00  0.00    +0.000 A 
ATOM      8  C   UNL     1      28.256   2.057  52.775  0.00  0.00    +0.000 A 
ATOM      9  C   UNL     1      27.030   2.369  52.187  0.00  0.00    +0.000 A 
ATOM     10  C   UNL     1      25.848   1.731  52.600  0.00  0.00    +0.000 A 
ATOM     11  C   UNL     1      24.532   2.115  52.043  0.00  0.00    +0.000 C 
ATOM     12  O   UNL     1      24.380   3.123  51.362  0.00  0.00    +0.000 OA
ENDROOT
BRANCH   6  13
ATOM     13  O   UNL     1      27.318  -0.552  55.112  0.00  0.00    +0.000 OA
ATOM     14  H   UNL     1      27.711  -0.334  55.935  0.00  0.00    +0.000 HD
ENDBRANCH   6  13
BRANCH   9  15
ATOM     15  O   UNL     1      27.011   3.289  51.177  0.00  0.00    +0.000 OA
ATOM     16  H   UNL     1      27.326   4.159  51.330  0.00  0.00    +0.000 HD
ENDBRANCH   9  15
BRANCH   1  17
ATOM     17  C   UNL     1      22.104   1.586  51.559  0.00  0.00    +0.000 C 
BRANCH  17  18
ATOM     18  O   UNL     1      21.194   2.500  52.273  0.00  0.00    +0.000 OA
BRANCH  18  19
ATOM     19  C   UNL     1      21.078   3.816  51.901  0.00  0.00    +0.000 C 
ATOM     20  O   UNL     1      21.782   4.699  52.343  0.00  0.00    +0.000 OA
BRANCH  19  22
ATOM     21  C   UNL     1      18.526   3.676  51.420  0.00  0.00    +0.000 C 
ATOM     22  C   UNL     1      19.906   4.148  50.991  0.00  0.00    +0.000 C 
ENDBRANCH  19  22
ENDBRANCH  18  19
ENDBRANCH  17  18
BRANCH  17  23
ATOM     23  C   UNL     1      21.398   0.268  51.163  0.00  0.00    +0.000 C 
BRANCH  23  24
ATOM     24  C   UNL     1      19.908   0.303  51.111  0.00  0.00    +0.000 C 
ATOM     25  C   UNL     1      19.118  -0.081  52.126  0.00  0.00    +0.000 C 
ATOM     26  C   UNL     1      17.633   0.100  52.046  0.00  0.00    +0.000 C 
ATOM     27  C   UNL     1      19.676  -0.688  53.379  0.00  0.00    +0.000 C 
ENDBRANCH  23  24
ENDBRANCH  17  23
ENDBRANCH   1  17
TORSDOF 8
ENDMDL
MODEL 6
REMARK VINA RESULT:    -7.083      2.302      6.560
REMARK INTER + INTRA:         -11.396
REMARK INTER:                 -11.054
REMARK INTRA:                  -0.342
REMARK UNBOUND:                -1.414
REMARK  Name = 
REMARK  11 active torsions:
REMARK  status: ('A' for Active; 'I' for Inactive)
REMARK    1  A    between atoms: C_1  and  C_2
REMARK    2  A    between atoms: C_2  and  C_3
REMARK    3  A    between atoms: C_3  and  O_5
REMARK    4  A    between atoms: O_5  and  C_6
REMARK    5  A    between atoms: C_6  and  C_7
REMARK    6  A    between atoms: C_6  and  C_12
REMARK    7  A    between atoms: C_7  and  C_8
REMARK    8  A    between atoms: C_9  and  C_10
REMARK    9  A    between atoms: C_9  and  C_11
REMARK   10  A    between atoms: C_17  and  O_18
REMARK   11  A    between atoms: C_21  and  O_22
REMARK                            x       y       z     vdW  Elec       q    Type
REMARK                         _______ _______ _______ _____ _____    ______ ____
ROOT
ATOM      1  C   UNL     1      25.027   2.437  52.545  0.00  0.00    +0.000 C 
ATOM      2  C   UNL     1      23.925   3.121  52.912  0.00  0.00    +0.000 C 
ATOM      3  C   UNL     1      23.433   4.275  52.158  0.00  0.00    +0.000 C 
ATOM      4  O   UNL     1      22.414   4.862  52.510  0.00  0.00    +0.000 OA
ATOM      5  C   UNL     1      24.225   4.750  51.014  0.00  0.00    +0.000 A 
ATOM      6  C   UNL     1      23.838   5.908  50.326  0.00  0.00    +0.000 A 
ATOM      7  C   UNL     1      24.581   6.374  49.246  0.00  0.00    +0.000 A 
ATOM      8  C   UNL     1      25.738   5.702  48.859  0.00  0.00    +0.000 A 
ATOM      9  C   UNL     1      26.137   4.558  49.551  0.00  0.00    +0.000 A 
ATOM     10  C   UNL     1      25.372   4.055  50.617  0.00  0.00    +0.000 A 
ATOM     11  C   UNL     1      25.741   2.796  51.301  0.00  0.00    +0.000 C 
ATOM     12  O   UNL     1      26.592   2.035  50.854  0.00  0.00    +0.000 OA
ENDROOT
BRANCH   6  13
ATOM     13  O   UNL     1      22.733   6.647  50.655  0.00  0.00    +0.000 OA
ATOM     14  H   UNL     1      22.828   7.440  51.147  0.00  0.00    +0.000 HD
ENDBRANCH   6  13
BRANCH   9  15
ATOM     15  O   UNL     1      27.307   3.955  49.186  0.00  0.00    +0.000 OA
ATOM     16  H   UNL     1      27.301   3.073  48.870  0.00  0.00    +0.000 HD
ENDBRANCH   9  15
BRANCH   1  17
ATOM     17  C   UNL     1      25.620   1.263  53.312  0.00  0.00    +0.000 C 
BRANCH  17  18
ATOM     18  O   UNL     1      27.083   1.167  53.168  0.00  0.00    +0.000 OA
BRANCH  18  19
ATOM     19  C   UNL     1      27.843   0.498  54.094  0.00  0.00    +0.000 C 
ATOM     20  O   UNL     1      27.410   0.116  55.160  0.00  0.00    +0.000 OA
BRANCH  19  22
ATOM     21  C   UNL     1      29.904  -1.023  53.643  0.00  0.00    +0.000 C 
ATOM     22  C   UNL     1      29.325   0.377  53.777  0.00  0.00    +0.000 C 
ENDBRANCH  19  22
ENDBRANCH  18  19
ENDBRANCH  17  18
BRANCH  17  23
ATOM     23  C   UNL     1      24.915  -0.044  52.877  0.00  0.00    +0.000 C 
BRANCH  23  24
ATOM     24  C   UNL     1      23.914  -0.606  53.828  0.00  0.00    +0.000 C 
ATOM     25  C   UNL     1      22.598  -0.669  53.574  0.00  0.00    +0.000 C 
ATOM     26  C   UNL     1      21.670  -1.362  54.525  0.00  0.00    +0.000 C 
ATOM     27  C   UNL     1      22.000  -0.072  52.334  0.00  0.00    +0.000 C 
ENDBRANCH  23  24
ENDBRANCH  17  23
ENDBRANCH   1  17
TORSDOF 8
ENDMDL
MODEL 7
REMARK VINA RESULT:    -7.063      2.343      6.709
REMARK INTER + INTRA:         -11.367
REMARK INTER:                 -10.273
REMARK INTRA:                  -1.094
REMARK UNBOUND:                -1.414
REMARK  Name = 
REMARK  11 active torsions:
REMARK  status: ('A' for Active; 'I' for Inactive)
REMARK    1  A    between atoms: C_1  and  C_2
REMARK    2  A    between atoms: C_2  and  C_3
REMARK    3  A    between atoms: C_3  and  O_5
REMARK    4  A    between atoms: O_5  and  C_6
REMARK    5  A    between atoms: C_6  and  C_7
REMARK    6  A    between atoms: C_6  and  C_12
REMARK    7  A    between atoms: C_7  and  C_8
REMARK    8  A    between atoms: C_9  and  C_10
REMARK    9  A    between atoms: C_9  and  C_11
REMARK   10  A    between atoms: C_17  and  O_18
REMARK   11  A    between atoms: C_21  and  O_22
REMARK                            x       y       z     vdW  Elec       q    Type
REMARK                         _______ _______ _______ _____ _____    ______ ____
ROOT
ATOM      1  C   UNL     1      25.826   2.629  51.781  0.00  0.00    +0.000 C 
ATOM      2  C   UNL     1      26.497   2.997  50.671  0.00  0.00    +0.000 C 
ATOM      3  C   UNL     1      26.072   4.124  49.838  0.00  0.00    +0.000 C 
ATOM      4  O   UNL     1      26.719   4.445  48.845  0.00  0.00    +0.000 OA
ATOM      5  C   UNL     1      24.821   4.814  50.183  0.00  0.00    +0.000 A 
ATOM      6  C   UNL     1      24.331   5.834  49.356  0.00  0.00    +0.000 A 
ATOM      7  C   UNL     1      23.145   6.491  49.666  0.00  0.00    +0.000 A 
ATOM      8  C   UNL     1      22.418   6.115  50.793  0.00  0.00    +0.000 A 
ATOM      9  C   UNL     1      22.891   5.089  51.611  0.00  0.00    +0.000 A 
ATOM     10  C   UNL     1      24.109   4.446  51.330  0.00  0.00    +0.000 A 
ATOM     11  C   UNL     1      24.661   3.416  52.238  0.00  0.00    +0.000 C 
ATOM     12  O   UNL     1      24.204   3.220  53.358  0.00  0.00    +0.000 OA
ENDROOT
BRANCH   6  13
ATOM     13  O   UNL     1      24.965   6.249  48.215  0.00  0.00    +0.000 OA
ATOM     14  H   UNL     1      24.965   5.702  47.454  0.00  0.00    +0.000 HD
ENDBRANCH   6  13
BRANCH   9  15
ATOM     15  O   UNL     1      22.127   4.703  52.675  0.00  0.00    +0.000 OA
ATOM     16  H   UNL     1      21.527   3.989  52.586  0.00  0.00    +0.000 HD
ENDBRANCH   9  15
BRANCH   1  17
ATOM     17  C   UNL     1      26.185   1.438  52.660  0.00  0.00    +0.000 C 
BRANCH  17  18
ATOM     18  O   UNL     1      27.611   1.076  52.574  0.00  0.00    +0.000 OA
BRANCH  18  19
ATOM     19  C   UNL     1      28.497   1.457  53.551  0.00  0.00    +0.000 C 
ATOM     20  O   UNL     1      28.877   2.599  53.696  0.00  0.00    +0.000 OA
BRANCH  19  22
ATOM     21  C   UNL     1      29.804  -0.789  53.627  0.00  0.00    +0.000 C 
ATOM     22  C   UNL     1      29.103   0.333  54.375  0.00  0.00    +0.000 C 
ENDBRANCH  19  22
ENDBRANCH  18  19
ENDBRANCH  17  18
BRANCH  17  23
ATOM     23  C   UNL     1      25.268   0.244  52.305  0.00  0.00    +0.000 C 
BRANCH  23  24
ATOM     24  C   UNL     1      24.422  -0.294  53.409  0.00  0.00    +0.000 C 
ATOM     25  C   UNL     1      23.081  -0.266  53.401  0.00  0.00    +0.000 C 
ATOM     26  C   UNL     1      22.298  -0.938  54.488  0.00  0.00    +0.000 C 
ATOM     27  C   UNL     1      22.308   0.415  52.310  0.00  0.00    +0.000 C 
ENDBRANCH  23  24
ENDBRANCH  17  23
ENDBRANCH   1  17
TORSDOF 8
ENDMDL
MODEL 8
REMARK VINA RESULT:    -7.033      2.473      6.707
REMARK INTER + INTRA:         -11.325
REMARK INTER:                 -10.139
REMARK INTRA:                  -1.186
REMARK UNBOUND:                -1.414
REMARK  Name = 
REMARK  11 active torsions:
REMARK  status: ('A' for Active; 'I' for Inactive)
REMARK    1  A    between atoms: C_1  and  C_2
REMARK    2  A    between atoms: C_2  and  C_3
REMARK    3  A    between atoms: C_3  and  O_5
REMARK    4  A    between atoms: O_5  and  C_6
REMARK    5  A    between atoms: C_6  and  C_7
REMARK    6  A    between atoms: C_6  and  C_12
REMARK    7  A    between atoms: C_7  and  C_8
REMARK    8  A    between atoms: C_9  and  C_10
REMARK    9  A    between atoms: C_9  and  C_11
REMARK   10  A    between atoms: C_17  and  O_18
REMARK   11  A    between atoms: C_21  and  O_22
REMARK                            x       y       z     vdW  Elec       q    Type
REMARK                         _______ _______ _______ _____ _____    ______ ____
ROOT
ATOM      1  C   UNL     1      22.809   0.686  52.492  0.00  0.00    +0.000 C 
ATOM      2  C   UNL     1      22.443  -0.028  53.576  0.00  0.00    +0.000 C 
ATOM      3  C   UNL     1      21.105  -0.602  53.719  0.00  0.00    +0.000 C 
ATOM      4  O   UNL     1      20.813  -1.265  54.710  0.00  0.00    +0.000 OA
ATOM      5  C   UNL     1      20.105  -0.309  52.682  0.00  0.00    +0.000 A 
ATOM      6  C   UNL     1      18.787  -0.760  52.831  0.00  0.00    +0.000 A 
ATOM      7  C   UNL     1      17.828  -0.485  51.861  0.00  0.00    +0.000 A 
ATOM      8  C   UNL     1      18.170   0.272  50.743  0.00  0.00    +0.000 A 
ATOM      9  C   UNL     1      19.477   0.738  50.597  0.00  0.00    +0.000 A 
ATOM     10  C   UNL     1      20.463   0.431  51.550  0.00  0.00    +0.000 A 
ATOM     11  C   UNL     1      21.870   0.849  51.362  0.00  0.00    +0.000 C 
ATOM     12  O   UNL     1      22.282   1.293  50.297  0.00  0.00    +0.000 OA
ENDROOT
BRANCH   6  13
ATOM     13  O   UNL     1      18.355  -1.486  53.909  0.00  0.00    +0.000 OA
ATOM     14  H   UNL     1      18.112  -2.385  53.802  0.00  0.00    +0.000 HD
ENDBRANCH   6  13
BRANCH   9  15
ATOM     15  O   UNL     1      19.768   1.527  49.521  0.00  0.00    +0.000 OA
ATOM     16  H   UNL     1      20.622   1.902  49.431  0.00  0.00    +0.000 HD
ENDBRANCH   9  15
BRANCH   1  17
ATOM     17  C   UNL     1      24.166   1.352  52.305  0.00  0.00    +0.000 C 
BRANCH  17  18
ATOM     18  O   UNL     1      25.274   0.552  52.855  0.00  0.00    +0.000 OA
BRANCH  18  19
ATOM     19  C   UNL     1      26.510   0.553  52.259  0.00  0.00    +0.000 C 
ATOM     20  O   UNL     1      26.833   1.341  51.395  0.00  0.00    +0.000 OA
BRANCH  19  22
ATOM     21  C   UNL     1      26.893  -2.008  52.498  0.00  0.00    +0.000 C 
ATOM     22  C   UNL     1      27.433  -0.594  52.639  0.00  0.00    +0.000 C 
ENDBRANCH  19  22
ENDBRANCH  18  19
ENDBRANCH  17  18
BRANCH  17  23
ATOM     23  C   UNL     1      24.128   2.774  52.915  0.00  0.00    +0.000 C 
BRANCH  23  24
ATOM     24  C   UNL     1      24.113   3.909  51.949  0.00  0.00    +0.000 C 
ATOM     25  C   UNL     1      23.022   4.644  51.680  0.00  0.00    +0.000 C 
ATOM     26  C   UNL     1      23.114   5.847  50.793  0.00  0.00    +0.000 C 
ATOM     27  C   UNL     1      21.679   4.311  52.260  0.00  0.00    +0.000 C 
ENDBRANCH  23  24
ENDBRANCH  17  23
ENDBRANCH   1  17
TORSDOF 8
ENDMDL
MODEL 9
REMARK VINA RESULT:    -6.739      2.909      6.383
REMARK INTER + INTRA:         -10.911
REMARK INTER:                  -9.837
REMARK INTRA:                  -1.074
REMARK UNBOUND:                -1.414
REMARK  Name = 
REMARK  11 active torsions:
REMARK  status: ('A' for Active; 'I' for Inactive)
REMARK    1  A    between atoms: C_1  and  C_2
REMARK    2  A    between atoms: C_2  and  C_3
REMARK    3  A    between atoms: C_3  and  O_5
REMARK    4  A    between atoms: O_5  and  C_6
REMARK    5  A    between atoms: C_6  and  C_7
REMARK    6  A    between atoms: C_6  and  C_12
REMARK    7  A    between atoms: C_7  and  C_8
REMARK    8  A    between atoms: C_9  and  C_10
REMARK    9  A    between atoms: C_9  and  C_11
REMARK   10  A    between atoms: C_17  and  O_18
REMARK   11  A    between atoms: C_21  and  O_22
REMARK                            x       y       z     vdW  Elec       q    Type
REMARK                         _______ _______ _______ _____ _____    ______ ____
ROOT
ATOM      1  C   UNL     1      24.602   3.854  50.936  0.00  0.00    +0.000 C 
ATOM      2  C   UNL     1      23.934   4.947  51.356  0.00  0.00    +0.000 C 
ATOM      3  C   UNL     1      24.283   6.297  50.911  0.00  0.00    +0.000 C 
ATOM      4  O   UNL     1      23.640   7.269  51.298  0.00  0.00    +0.000 OA
ATOM      5  C   UNL     1      25.460   6.463  50.045  0.00  0.00    +0.000 A 
ATOM      6  C   UNL     1      25.883   7.748  49.676  0.00  0.00    +0.000 A 
ATOM      7  C   UNL     1      26.999   7.921  48.863  0.00  0.00    +0.000 A 
ATOM      8  C   UNL     1      27.723   6.812  48.434  0.00  0.00    +0.000 A 
ATOM      9  C   UNL     1      27.317   5.532  48.812  0.00  0.00    +0.000 A 
ATOM     10  C   UNL     1      26.168   5.343  49.599  0.00  0.00    +0.000 A 
ATOM     11  C   UNL     1      25.681   3.986  49.934  0.00  0.00    +0.000 C 
ATOM     12  O   UNL     1      26.121   2.981  49.388  0.00  0.00    +0.000 OA
ENDROOT
BRANCH   6  13
ATOM     13  O   UNL     1      25.249   8.895  50.074  0.00  0.00    +0.000 OA
ATOM     14  H   UNL     1      25.097   9.053  50.986  0.00  0.00    +0.000 HD
ENDBRANCH   6  13
BRANCH   9  15
ATOM     15  O   UNL     1      28.081   4.468  48.425  0.00  0.00    +0.000 OA
ATOM     16  H   UNL     1      28.953   4.607  48.112  0.00  0.00    +0.000 HD
ENDBRANCH   9  15
BRANCH   1  17
ATOM     17  C   UNL     1      24.323   2.431  51.400  0.00  0.00    +0.000 C 
BRANCH  17  18
ATOM     18  O   UNL     1      22.978   2.276  51.983  0.00  0.00    +0.000 OA
BRANCH  18  19
ATOM     19  C   UNL     1      22.273   1.108  51.832  0.00  0.00    +0.000 C 
ATOM     20  O   UNL     1      21.848   0.720  50.765  0.00  0.00    +0.000 OA
BRANCH  19  22
ATOM     21  C   UNL     1      22.856  -0.731  53.575  0.00  0.00    +0.000 C 
ATOM     22  C   UNL     1      21.918   0.374  53.115  0.00  0.00    +0.000 C 
ENDBRANCH  19  22
ENDBRANCH  18  19
ENDBRANCH  17  18
BRANCH  17  23
ATOM     23  C   UNL     1      25.430   1.985  52.384  0.00  0.00    +0.000 C 
BRANCH  23  24
ATOM     24  C   UNL     1      26.080   0.675  52.101  0.00  0.00    +0.000 C 
ATOM     25  C   UNL     1      26.481  -0.180  53.055  0.00  0.00    +0.000 C 
ATOM     26  C   UNL     1      27.013  -1.533  52.693  0.00  0.00    +0.000 C 
ATOM     27  C   UNL     1      26.402   0.166  54.513  0.00  0.00    +0.000 C 
ENDBRANCH  23  24
ENDBRANCH  17  23
ENDBRANCH   1  17
TORSDOF 8
ENDMDL
