MODEL 1
REMARK VINA RESULT:    -9.946      0.000      0.000
REMARK INTER + INTRA:         -14.627
REMARK INTER:                 -13.435
REMARK INTRA:                  -1.192
REMARK UNBOUND:                -1.192
REMARK  Name = 
REMARK  7 active torsions:
REMARK  status: ('A' for Active; 'I' for Inactive)
REMARK    1  A    between atoms: C_1  and  C_2
REMARK    2  A    between atoms: C_2  and  C_12
REMARK    3  A    between atoms: C_3  and  C_4
REMARK    4  A    between atoms: C_4  and  N_5
REMARK    5  A    between atoms: C_16  and  O_17
REMARK    6  A    between atoms: O_17  and  C_18
REMARK    7  A    between atoms: C_18  and  C_19
REMARK                            x       y       z     vdW  Elec       q    Type
REMARK                         _______ _______ _______ _____ _____    ______ ____
ROOT
ATOM      1  C   UNL     1      23.433   0.053  53.579  0.00  0.00    +0.000 A 
ATOM      2  C   UNL     1      22.207  -0.413  54.054  0.00  0.00    +0.000 A 
ATOM      3  C   UNL     1      21.032   0.276  53.757  0.00  0.00    +0.000 A 
ATOM      4  C   UNL     1      21.074   1.435  52.976  0.00  0.00    +0.000 A 
ATOM      5  C   UNL     1      22.286   1.901  52.469  0.00  0.00    +0.000 A 
ATOM      6  C   UNL     1      23.463   1.205  52.776  0.00  0.00    +0.000 A 
ENDROOT
BRANCH   1   8
ATOM      7  C   UNL     1      24.777  -1.059  55.381  0.00  0.00    +0.000 C 
ATOM      8  C   UNL     1      24.668  -0.653  53.941  0.00  0.00    +0.000 C 
ATOM      9  C   UNL     1      25.615  -0.836  52.994  0.00  0.00    +0.000 C 
BRANCH   9  10
ATOM     10  C   UNL     1      26.958  -1.500  53.172  0.00  0.00    +0.000 C 
BRANCH  10  11
ATOM     11  N   UNL     1      27.986  -0.534  52.807  0.00  0.00    +0.000 N 
ATOM     12  O   UNL     1      27.568   0.852  53.030  0.00  0.00    +0.000 OA
ATOM     13  C   UNL     1      28.660   1.560  53.548  0.00  0.00    +0.000 A 
ATOM     14  O   UNL     1      28.645   2.701  53.926  0.00  0.00    +0.000 OA
ATOM     15  N   UNL     1      29.689   0.664  53.603  0.00  0.00    +0.000 N 
ATOM     16  C   UNL     1      29.223  -0.550  53.434  0.00  0.00    +0.000 A 
ATOM     17  O   UNL     1      29.747  -1.544  53.749  0.00  0.00    +0.000 OA
ATOM     18  H   UNL     1      30.635   0.894  53.749  0.00  0.00    +0.000 HD
ENDBRANCH  10  11
ENDBRANCH   9  10
ENDBRANCH   1   8
BRANCH   5  19
ATOM     19  O   UNL     1      22.423   2.966  51.622  0.00  0.00    +0.000 OA
BRANCH  19  20
ATOM     20  C   UNL     1      23.029   4.141  52.162  0.00  0.00    +0.000 C 
BRANCH  20  21
ATOM     21  C   UNL     1      23.963   4.839  51.201  0.00  0.00    +0.000 A 
ATOM     22  C   UNL     1      24.168   6.226  51.314  0.00  0.00    +0.000 A 
ATOM     23  C   UNL     1      24.933   6.899  50.365  0.00  0.00    +0.000 A 
ATOM     24  C   UNL     1      25.700   6.166  49.440  0.00  0.00    +0.000 A 
ATOM     25  C   UNL     1      26.581   6.772  48.541  0.00  0.00    +0.000 A 
ATOM     26 CL   UNL     1      25.944   7.947  47.368  0.00  0.00    +0.000 Cl
ATOM     27  C   UNL     1      27.814   6.188  48.291  0.00  0.00    +0.000 A 
ATOM     28  C   UNL     1      27.999   4.863  48.658  0.00  0.00    +0.000 A 
ATOM     29  C   UNL     1      26.903   4.118  49.127  0.00  0.00    +0.000 A 
ATOM     30  C   UNL     1      25.749   4.775  49.577  0.00  0.00    +0.000 A 
ATOM     31  C   UNL     1      24.739   4.114  50.287  0.00  0.00    +0.000 A 
ENDBRANCH  20  21
ENDBRANCH  19  20
ENDBRANCH   5  19
TORSDOF 6
ENDMDL
MODEL 2
REMARK VINA RESULT:    -9.335      1.463      2.143
REMARK INTER + INTRA:         -13.802
REMARK INTER:                 -12.314
REMARK INTRA:                  -1.488
REMARK UNBOUND:                -1.192
REMARK  Name = 
REMARK  7 active torsions:
REMARK  status: ('A' for Active; 'I' for Inactive)
REMARK    1  A    between atoms: C_1  and  C_2
REMARK    2  A    between atoms: C_2  and  C_12
REMARK    3  A    between atoms: C_3  and  C_4
REMARK    4  A    between atoms: C_4  and  N_5
REMARK    5  A    between atoms: C_16  and  O_17
REMARK    6  A    between atoms: O_17  and  C_18
REMARK    7  A    between atoms: C_18  and  C_19
REMARK                            x       y       z     vdW  Elec       q    Type
REMARK                         _______ _______ _______ _____ _____    ______ ____
ROOT
ATOM      1  C   UNL     1      23.105  -0.271  53.901  0.00  0.00    +0.000 A 
ATOM      2  C   UNL     1      22.054  -0.714  54.705  0.00  0.00    +0.000 A 
ATOM      3  C   UNL     1      20.759  -0.249  54.485  0.00  0.00    +0.000 A 
ATOM      4  C   UNL     1      20.503   0.658  53.452  0.00  0.00    +0.000 A 
ATOM      5  C   UNL     1      21.535   1.091  52.620  0.00  0.00    +0.000 A 
ATOM      6  C   UNL     1      22.835   0.623  52.852  0.00  0.00    +0.000 A 
ENDROOT
BRANCH   1   8
ATOM      7  C   UNL     1      24.749  -1.106  55.602  0.00  0.00    +0.000 C 
ATOM      8  C   UNL     1      24.473  -0.730  54.176  0.00  0.00    +0.000 C 
ATOM      9  C   UNL     1      25.374  -0.730  53.170  0.00  0.00    +0.000 C 
BRANCH   9  10
ATOM     10  C   UNL     1      26.828  -1.126  53.254  0.00  0.00    +0.000 C 
BRANCH  10  11
ATOM     11  N   UNL     1      27.620  -0.041  52.694  0.00  0.00    +0.000 N 
ATOM     12  O   UNL     1      26.875   0.763  51.721  0.00  0.00    +0.000 OA
ATOM     13  C   UNL     1      27.211   2.108  51.917  0.00  0.00    +0.000 A 
ATOM     14  O   UNL     1      26.720   3.047  51.349  0.00  0.00    +0.000 OA
ATOM     15  N   UNL     1      28.130   2.117  52.927  0.00  0.00    +0.000 N 
ATOM     16  C   UNL     1      28.147   0.945  53.515  0.00  0.00    +0.000 A 
ATOM     17  O   UNL     1      28.546   0.713  54.587  0.00  0.00    +0.000 OA
ATOM     18  H   UNL     1      28.693   2.885  53.175  0.00  0.00    +0.000 HD
ENDBRANCH  10  11
ENDBRANCH   9  10
ENDBRANCH   1   8
BRANCH   5  19
ATOM     19  O   UNL     1      21.375   1.900  51.530  0.00  0.00    +0.000 OA
BRANCH  19  20
ATOM     20  C   UNL     1      21.454   3.307  51.758  0.00  0.00    +0.000 C 
BRANCH  20  21
ATOM     21  C   UNL     1      22.616   3.973  51.058  0.00  0.00    +0.000 A 
ATOM     22  C   UNL     1      22.937   3.604  49.738  0.00  0.00    +0.000 A 
ATOM     23  C   UNL     1      24.073   4.123  49.125  0.00  0.00    +0.000 A 
ATOM     24  C   UNL     1      24.761   5.197  49.723  0.00  0.00    +0.000 A 
ATOM     25  C   UNL     1      25.833   5.843  49.106  0.00  0.00    +0.000 A 
ATOM     26 CL   UNL     1      27.282   4.903  48.684  0.00  0.00    +0.000 Cl
ATOM     27  C   UNL     1      25.941   7.224  49.191  0.00  0.00    +0.000 A 
ATOM     28  C   UNL     1      25.197   7.882  50.159  0.00  0.00    +0.000 A 
ATOM     29  C   UNL     1      24.483   7.131  51.109  0.00  0.00    +0.000 A 
ATOM     30  C   UNL     1      24.210   5.776  50.870  0.00  0.00    +0.000 A 
ATOM     31  C   UNL     1      23.296   5.049  51.643  0.00  0.00    +0.000 A 
ENDBRANCH  20  21
ENDBRANCH  19  20
ENDBRANCH   5  19
TORSDOF 6
ENDMDL
MODEL 3
REMARK VINA RESULT:    -9.264      3.922      7.243
REMARK INTER + INTRA:         -13.706
REMARK INTER:                 -12.470
REMARK INTRA:                  -1.236
REMARK UNBOUND:                -1.192
REMARK  Name = 
REMARK  7 active torsions:
REMARK  status: ('A' for Active; 'I' for Inactive)
REMARK    1  A    between atoms: C_1  and  C_2
REMARK    2  A    between atoms: C_2  and  C_12
REMARK    3  A    between atoms: C_3  and  C_4
REMARK    4  A    between atoms: C_4  and  N_5
REMARK    5  A    between atoms: C_16  and  O_17
REMARK    6  A    between atoms: O_17  and  C_18
REMARK    7  A    between atoms: C_18  and  C_19
REMARK                            x       y       z     vdW  Elec       q    Type
REMARK                         _______ _______ _______ _____ _____    ______ ____
ROOT
ATOM      1  C   UNL     1      23.351   2.287  50.475  0.00  0.00    +0.000 A 
ATOM      2  C   UNL     1      22.360   1.894  49.575  0.00  0.00    +0.000 A 
ATOM      3  C   UNL     1      21.441   0.907  49.930  0.00  0.00    +0.000 A 
ATOM      4  C   UNL     1      21.503   0.310  51.192  0.00  0.00    +0.000 A 
ATOM      5  C   UNL     1      22.469   0.708  52.116  0.00  0.00    +0.000 A 
ATOM      6  C   UNL     1      23.392   1.697  51.749  0.00  0.00    +0.000 A 
ENDROOT
BRANCH   1   8
ATOM      7  C   UNL     1      25.707   3.125  50.673  0.00  0.00    +0.000 C 
ATOM      8  C   UNL     1      24.343   3.290  50.070  0.00  0.00    +0.000 C 
ATOM      9  C   UNL     1      23.957   4.294  49.252  0.00  0.00    +0.000 C 
BRANCH   9  10
ATOM     10  C   UNL     1      24.808   5.435  48.753  0.00  0.00    +0.000 C 
BRANCH  10  11
ATOM     11  N   UNL     1      24.191   6.678  49.194  0.00  0.00    +0.000 N 
ATOM     12  O   UNL     1      22.762   6.533  49.482  0.00  0.00    +0.000 OA
ATOM     13  C   UNL     1      22.469   7.280  50.629  0.00  0.00    +0.000 A 
ATOM     14  O   UNL     1      21.409   7.317  51.195  0.00  0.00    +0.000 OA
ATOM     15  N   UNL     1      23.644   7.871  50.996  0.00  0.00    +0.000 N 
ATOM     16  C   UNL     1      24.636   7.319  50.341  0.00  0.00    +0.000 A 
ATOM     17  O   UNL     1      25.764   7.339  50.644  0.00  0.00    +0.000 OA
ATOM     18  H   UNL     1      23.732   8.600  51.652  0.00  0.00    +0.000 HD
ENDBRANCH  10  11
ENDBRANCH   9  10
ENDBRANCH   1   8
BRANCH   5  19
ATOM     19  O   UNL     1      22.555   0.255  53.403  0.00  0.00    +0.000 OA
BRANCH  19  20
ATOM     20  C   UNL     1      23.360  -0.904  53.623  0.00  0.00    +0.000 C 
BRANCH  20  21
ATOM     21  C   UNL     1      24.829  -0.600  53.801  0.00  0.00    +0.000 A 
ATOM     22  C   UNL     1      25.272   0.029  54.979  0.00  0.00    +0.000 A 
ATOM     23  C   UNL     1      26.601   0.420  55.106  0.00  0.00    +0.000 A 
ATOM     24  C   UNL     1      27.553  -0.030  54.170  0.00  0.00    +0.000 A 
ATOM     25  C   UNL     1      28.920   0.223  54.303  0.00  0.00    +0.000 A 
ATOM     26 CL   UNL     1      29.486   1.908  54.352  0.00  0.00    +0.000 Cl
ATOM     27  C   UNL     1      29.834  -0.774  53.995  0.00  0.00    +0.000 A 
ATOM     28  C   UNL     1      29.397  -1.855  53.243  0.00  0.00    +0.000 A 
ATOM     29  C   UNL     1      28.102  -1.836  52.696  0.00  0.00    +0.000 A 
ATOM     30  C   UNL     1      27.141  -0.947  53.199  0.00  0.00    +0.000 A 
ATOM     31  C   UNL     1      25.782  -1.055  52.880  0.00  0.00    +0.000 A 
ENDBRANCH  20  21
ENDBRANCH  19  20
ENDBRANCH   5  19
TORSDOF 6
ENDMDL
MODEL 4
REMARK VINA RESULT:    -9.236      1.923      2.746
REMARK INTER + INTRA:         -13.668
REMARK INTER:                 -12.142
REMARK INTRA:                  -1.526
REMARK UNBOUND:                -1.192
REMARK  Name = 
REMARK  7 active torsions:
REMARK  status: ('A' for Active; 'I' for Inactive)
REMARK    1  A    between atoms: C_1  and  C_2
REMARK    2  A    between atoms: C_2  and  C_12
REMARK    3  A    between atoms: C_3  and  C_4
REMARK    4  A    between atoms: C_4  and  N_5
REMARK    5  A    between atoms: C_16  and  O_17
REMARK    6  A    between atoms: O_17  and  C_18
REMARK    7  A    between atoms: C_18  and  C_19
REMARK                            x       y       z     vdW  Elec       q    Type
REMARK                         _______ _______ _______ _____ _____    ______ ____
ROOT
ATOM      1  C   UNL     1      22.711  -0.658  53.659  0.00  0.00    +0.000 A 
ATOM      2  C   UNL     1      21.844  -1.280  54.559  0.00  0.00    +0.000 A 
ATOM      3  C   UNL     1      20.465  -1.210  54.367  0.00  0.00    +0.000 A 
ATOM      4  C   UNL     1      19.942  -0.522  53.269  0.00  0.00    +0.000 A 
ATOM      5  C   UNL     1      20.792   0.083  52.344  0.00  0.00    +0.000 A 
ATOM      6  C   UNL     1      22.177   0.012  52.547  0.00  0.00    +0.000 A 
ENDROOT
BRANCH   1   8
ATOM      7  C   UNL     1      24.567  -1.077  55.293  0.00  0.00    +0.000 C 
ATOM      8  C   UNL     1      24.158  -0.696  53.901  0.00  0.00    +0.000 C 
ATOM      9  C   UNL     1      24.995  -0.345  52.900  0.00  0.00    +0.000 C 
BRANCH   9  10
ATOM     10  C   UNL     1      26.502  -0.283  52.956  0.00  0.00    +0.000 C 
BRANCH  10  11
ATOM     11  N   UNL     1      26.878   1.056  53.385  0.00  0.00    +0.000 N 
ATOM     12  O   UNL     1      27.965   1.055  54.367  0.00  0.00    +0.000 OA
ATOM     13  C   UNL     1      28.829   2.115  54.065  0.00  0.00    +0.000 A 
ATOM     14  O   UNL     1      29.871   2.354  54.615  0.00  0.00    +0.000 OA
ATOM     15  N   UNL     1      28.281   2.743  52.984  0.00  0.00    +0.000 N 
ATOM     16  C   UNL     1      27.343   1.987  52.466  0.00  0.00    +0.000 A 
ATOM     17  O   UNL     1      26.919   2.052  51.380  0.00  0.00    +0.000 OA
ATOM     18  H   UNL     1      28.548   3.627  52.645  0.00  0.00    +0.000 HD
ENDBRANCH  10  11
ENDBRANCH   9  10
ENDBRANCH   1   8
BRANCH   5  19
ATOM     19  O   UNL     1      20.386   0.697  51.192  0.00  0.00    +0.000 OA
BRANCH  19  20
ATOM     20  C   UNL     1      19.925   2.044  51.311  0.00  0.00    +0.000 C 
BRANCH  20  21
ATOM     21  C   UNL     1      21.023   3.075  51.184  0.00  0.00    +0.000 A 
ATOM     22  C   UNL     1      21.398   3.834  52.308  0.00  0.00    +0.000 A 
ATOM     23  C   UNL     1      22.323   4.866  52.177  0.00  0.00    +0.000 A 
ATOM     24  C   UNL     1      23.065   4.990  50.986  0.00  0.00    +0.000 A 
ATOM     25  C   UNL     1      24.092   5.924  50.832  0.00  0.00    +0.000 A 
ATOM     26 CL   UNL     1      23.720   7.654  51.004  0.00  0.00    +0.000 Cl
ATOM     27  C   UNL     1      25.255   5.559  50.168  0.00  0.00    +0.000 A 
ATOM     28  C   UNL     1      25.232   4.415  49.384  0.00  0.00    +0.000 A 
ATOM     29  C   UNL     1      24.011   3.753  49.166  0.00  0.00    +0.000 A 
ATOM     30  C   UNL     1      22.918   4.000  50.010  0.00  0.00    +0.000 A 
ATOM     31  C   UNL     1      21.773   3.195  50.007  0.00  0.00    +0.000 A 
ENDBRANCH  20  21
ENDBRANCH  19  20
ENDBRANCH   5  19
TORSDOF 6
ENDMDL
MODEL 5
REMARK VINA RESULT:    -9.122      4.504      8.186
REMARK INTER + INTRA:         -13.513
REMARK INTER:                 -12.723
REMARK INTRA:                  -0.790
REMARK UNBOUND:                -1.192
REMARK  Name = 
REMARK  7 active torsions:
REMARK  status: ('A' for Active; 'I' for Inactive)
REMARK    1  A    between atoms: C_1  and  C_2
REMARK    2  A    between atoms: C_2  and  C_12
REMARK    3  A    between atoms: C_3  and  C_4
REMARK    4  A    between atoms: C_4  and  N_5
REMARK    5  A    between atoms: C_16  and  O_17
REMARK    6  A    between atoms: O_17  and  C_18
REMARK    7  A    between atoms: C_18  and  C_19
REMARK                            x       y       z     vdW  Elec       q    Type
REMARK                         _______ _______ _______ _____ _____    ______ ____
ROOT
ATOM      1  C   UNL     1      24.107   2.234  50.882  0.00  0.00    +0.000 A 
ATOM      2  C   UNL     1      23.994   3.020  49.734  0.00  0.00    +0.000 A 
ATOM      3  C   UNL     1      22.872   2.907  48.915  0.00  0.00    +0.000 A 
ATOM      4  C   UNL     1      21.850   2.011  49.241  0.00  0.00    +0.000 A 
ATOM      5  C   UNL     1      21.931   1.237  50.399  0.00  0.00    +0.000 A 
ATOM      6  C   UNL     1      23.066   1.353  51.214  0.00  0.00    +0.000 A 
ENDROOT
BRANCH   1   8
ATOM      7  C   UNL     1      26.552   2.783  50.989  0.00  0.00    +0.000 C 
ATOM      8  C   UNL     1      25.317   2.326  51.708  0.00  0.00    +0.000 C 
ATOM      9  C   UNL     1      25.251   1.952  53.005  0.00  0.00    +0.000 C 
BRANCH   9  10
ATOM     10  C   UNL     1      26.381   1.938  54.004  0.00  0.00    +0.000 C 
BRANCH  10  11
ATOM     11  N   UNL     1      26.721   0.548  54.273  0.00  0.00    +0.000 N 
ATOM     12  O   UNL     1      26.065  -0.386  53.355  0.00  0.00    +0.000 OA
ATOM     13  C   UNL     1      26.983  -1.389  53.021  0.00  0.00    +0.000 A 
ATOM     14  O   UNL     1      26.806  -2.270  52.223  0.00  0.00    +0.000 OA
ATOM     15  N   UNL     1      28.119  -1.099  53.721  0.00  0.00    +0.000 N 
ATOM     16  C   UNL     1      28.038   0.117  54.204  0.00  0.00    +0.000 A 
ATOM     17  O   UNL     1      28.930   0.788  54.547  0.00  0.00    +0.000 OA
ATOM     18  H   UNL     1      28.882  -1.709  53.844  0.00  0.00    +0.000 HD
ENDBRANCH  10  11
ENDBRANCH   9  10
ENDBRANCH   1   8
BRANCH   5  19
ATOM     19  O   UNL     1      20.949   0.403  50.854  0.00  0.00    +0.000 OA
BRANCH  19  20
ATOM     20  C   UNL     1      19.904   1.002  51.621  0.00  0.00    +0.000 C 
BRANCH  20  21
ATOM     21  C   UNL     1      18.710   0.101  51.831  0.00  0.00    +0.000 A 
ATOM     22  C   UNL     1      17.732  -0.005  50.824  0.00  0.00    +0.000 A 
ATOM     23  C   UNL     1      16.572  -0.739  51.051  0.00  0.00    +0.000 A 
ATOM     24  C   UNL     1      16.484  -1.574  52.182  0.00  0.00    +0.000 A 
ATOM     25  C   UNL     1      15.402  -2.427  52.407  0.00  0.00    +0.000 A 
ATOM     26 CL   UNL     1      13.772  -1.733  52.558  0.00  0.00    +0.000 Cl
ATOM     27  C   UNL     1      15.628  -3.703  52.904  0.00  0.00    +0.000 A 
ATOM     28  C   UNL     1      16.858  -3.973  53.484  0.00  0.00    +0.000 A 
ATOM     29  C   UNL     1      17.771  -2.922  53.686  0.00  0.00    +0.000 A 
ATOM     30  C   UNL     1      17.618  -1.716  52.986  0.00  0.00    +0.000 A 
ATOM     31  C   UNL     1      18.623  -0.741  52.947  0.00  0.00    +0.000 A 
ENDBRANCH  20  21
ENDBRANCH  19  20
ENDBRANCH   5  19
TORSDOF 6
ENDMDL
MODEL 6
REMARK VINA RESULT:    -9.017      1.534      2.065
REMARK INTER + INTRA:         -13.371
REMARK INTER:                 -12.185
REMARK INTRA:                  -1.186
REMARK UNBOUND:                -1.192
REMARK  Name = 
REMARK  7 active torsions:
REMARK  status: ('A' for Active; 'I' for Inactive)
REMARK    1  A    between atoms: C_1  and  C_2
REMARK    2  A    between atoms: C_2  and  C_12
REMARK    3  A    between atoms: C_3  and  C_4
REMARK    4  A    between atoms: C_4  and  N_5
REMARK    5  A    between atoms: C_16  and  O_17
REMARK    6  A    between atoms: O_17  and  C_18
REMARK    7  A    between atoms: C_18  and  C_19
REMARK                            x       y       z     vdW  Elec       q    Type
REMARK                         _______ _______ _______ _____ _____    ______ ____
ROOT
ATOM      1  C   UNL     1      21.321   0.297  53.081  0.00  0.00    +0.000 A 
ATOM      2  C   UNL     1      20.127  -0.275  52.640  0.00  0.00    +0.000 A 
ATOM      3  C   UNL     1      19.116   0.529  52.117  0.00  0.00    +0.000 A 
ATOM      4  C   UNL     1      19.293   1.912  52.025  0.00  0.00    +0.000 A 
ATOM      5  C   UNL     1      20.490   2.500  52.434  0.00  0.00    +0.000 A 
ATOM      6  C   UNL     1      21.500   1.685  52.964  0.00  0.00    +0.000 A 
ENDROOT
BRANCH   1   8
ATOM      7  C   UNL     1      21.854  -1.755  54.420  0.00  0.00    +0.000 C 
ATOM      8  C   UNL     1      22.358  -0.555  53.676  0.00  0.00    +0.000 C 
ATOM      9  C   UNL     1      23.652  -0.181  53.563  0.00  0.00    +0.000 C 
BRANCH   9  10
ATOM     10  C   UNL     1      24.855  -0.894  54.131  0.00  0.00    +0.000 C 
BRANCH  10  11
ATOM     11  N   UNL     1      26.046  -0.296  53.545  0.00  0.00    +0.000 N 
ATOM     12  O   UNL     1      26.796   0.529  54.496  0.00  0.00    +0.000 OA
ATOM     13  C   UNL     1      28.162   0.304  54.287  0.00  0.00    +0.000 A 
ATOM     14  O   UNL     1      29.059   0.753  54.950  0.00  0.00    +0.000 OA
ATOM     15  N   UNL     1      28.238  -0.579  53.249  0.00  0.00    +0.000 N 
ATOM     16  C   UNL     1      27.054  -1.095  53.025  0.00  0.00    +0.000 A 
ATOM     17  O   UNL     1      26.827  -2.093  52.463  0.00  0.00    +0.000 OA
ATOM     18  H   UNL     1      29.056  -0.795  52.745  0.00  0.00    +0.000 HD
ENDBRANCH  10  11
ENDBRANCH   9  10
ENDBRANCH   1   8
BRANCH   5  19
ATOM     19  O   UNL     1      20.797   3.825  52.300  0.00  0.00    +0.000 OA
BRANCH  19  20
ATOM     20  C   UNL     1      20.747   4.364  50.979  0.00  0.00    +0.000 C 
BRANCH  20  21
ATOM     21  C   UNL     1      22.095   4.781  50.440  0.00  0.00    +0.000 A 
ATOM     22  C   UNL     1      22.585   6.072  50.712  0.00  0.00    +0.000 A 
ATOM     23  C   UNL     1      23.770   6.507  50.126  0.00  0.00    +0.000 A 
ATOM     24  C   UNL     1      24.602   5.584  49.464  0.00  0.00    +0.000 A 
ATOM     25  C   UNL     1      25.858   5.927  48.960  0.00  0.00    +0.000 A 
ATOM     26 CL   UNL     1      25.975   7.202  47.727  0.00  0.00    +0.000 Cl
ATOM     27  C   UNL     1      26.917   5.041  49.099  0.00  0.00    +0.000 A 
ATOM     28  C   UNL     1      26.631   3.721  49.414  0.00  0.00    +0.000 A 
ATOM     29  C   UNL     1      25.293   3.290  49.432  0.00  0.00    +0.000 A 
ATOM     30  C   UNL     1      24.255   4.230  49.513  0.00  0.00    +0.000 A 
ATOM     31  C   UNL     1      22.933   3.864  49.792  0.00  0.00    +0.000 A 
ENDBRANCH  20  21
ENDBRANCH  19  20
ENDBRANCH   5  19
TORSDOF 6
ENDMDL
MODEL 7
REMARK VINA RESULT:    -9.008      2.979      5.655
REMARK INTER + INTRA:         -13.360
REMARK INTER:                 -12.198
REMARK INTRA:                  -1.163
REMARK UNBOUND:                -1.192
REMARK  Name = 
REMARK  7 active torsions:
REMARK  status: ('A' for Active; 'I' for Inactive)
REMARK    1  A    between atoms: C_1  and  C_2
REMARK    2  A    between atoms: C_2  and  C_12
REMARK    3  A    between atoms: C_3  and  C_4
REMARK    4  A    between atoms: C_4  and  N_5
REMARK    5  A    between atoms: C_16  and  O_17
REMARK    6  A    between atoms: O_17  and  C_18
REMARK    7  A    between atoms: C_18  and  C_19
REMARK                            x       y       z     vdW  Elec       q    Type
REMARK                         _______ _______ _______ _____ _____    ______ ____
ROOT
ATOM      1  C   UNL     1      24.361   0.339  52.966  0.00  0.00    +0.000 A 
ATOM      2  C   UNL     1      25.193  -0.688  53.414  0.00  0.00    +0.000 A 
ATOM      3  C   UNL     1      26.558  -0.658  53.133  0.00  0.00    +0.000 A 
ATOM      4  C   UNL     1      27.103   0.406  52.409  0.00  0.00    +0.000 A 
ATOM      5  C   UNL     1      26.294   1.456  51.977  0.00  0.00    +0.000 A 
ATOM      6  C   UNL     1      24.921   1.414  52.258  0.00  0.00    +0.000 A 
ENDROOT
BRANCH   1   8
ATOM      7  C   UNL     1      22.446  -0.988  53.896  0.00  0.00    +0.000 C 
ATOM      8  C   UNL     1      22.917   0.268  53.224  0.00  0.00    +0.000 C 
ATOM      9  C   UNL     1      22.130   1.283  52.803  0.00  0.00    +0.000 C 
BRANCH   9  10
ATOM     10  C   UNL     1      20.631   1.383  52.938  0.00  0.00    +0.000 C 
BRANCH  10  11
ATOM     11  N   UNL     1      20.256   2.774  52.727  0.00  0.00    +0.000 N 
ATOM     12  O   UNL     1      21.397   3.624  52.378  0.00  0.00    +0.000 OA
ATOM     13  C   UNL     1      20.985   4.525  51.388  0.00  0.00    +0.000 A 
ATOM     14  O   UNL     1      21.689   5.309  50.811  0.00  0.00    +0.000 OA
ATOM     15  N   UNL     1      19.663   4.259  51.172  0.00  0.00    +0.000 N 
ATOM     16  C   UNL     1      19.348   3.117  51.735  0.00  0.00    +0.000 A 
ATOM     17  O   UNL     1      18.430   2.444  51.473  0.00  0.00    +0.000 OA
ATOM     18  H   UNL     1      19.042   4.835  50.671  0.00  0.00    +0.000 HD
ENDBRANCH  10  11
ENDBRANCH   9  10
ENDBRANCH   1   8
BRANCH   5  19
ATOM     19  O   UNL     1      26.742   2.582  51.345  0.00  0.00    +0.000 OA
BRANCH  19  20
ATOM     20  C   UNL     1      26.470   2.686  49.947  0.00  0.00    +0.000 C 
BRANCH  20  21
ATOM     21  C   UNL     1      26.438   4.107  49.438  0.00  0.00    +0.000 A 
ATOM     22  C   UNL     1      27.568   4.640  48.789  0.00  0.00    +0.000 A 
ATOM     23  C   UNL     1      27.595   5.982  48.421  0.00  0.00    +0.000 A 
ATOM     24  C   UNL     1      26.410   6.742  48.469  0.00  0.00    +0.000 A 
ATOM     25  C   UNL     1      26.337   8.056  48.001  0.00  0.00    +0.000 A 
ATOM     26 CL   UNL     1      27.385   9.292  48.732  0.00  0.00    +0.000 Cl
ATOM     27  C   UNL     1      25.218   8.470  47.293  0.00  0.00    +0.000 A 
ATOM     28  C   UNL     1      24.070   7.695  47.369  0.00  0.00    +0.000 A 
ATOM     29  C   UNL     1      24.027   6.612  48.266  0.00  0.00    +0.000 A 
ATOM     30  C   UNL     1      25.217   6.087  48.788  0.00  0.00    +0.000 A 
ATOM     31  C   UNL     1      25.260   4.865  49.471  0.00  0.00    +0.000 A 
ENDBRANCH  20  21
ENDBRANCH  19  20
ENDBRANCH   5  19
TORSDOF 6
ENDMDL
MODEL 8
REMARK VINA RESULT:    -8.965      4.164      7.400
REMARK INTER + INTRA:         -13.302
REMARK INTER:                 -12.274
REMARK INTRA:                  -1.028
REMARK UNBOUND:                -1.192
REMARK  Name = 
REMARK  7 active torsions:
REMARK  status: ('A' for Active; 'I' for Inactive)
REMARK    1  A    between atoms: C_1  and  C_2
REMARK    2  A    between atoms: C_2  and  C_12
REMARK    3  A    between atoms: C_3  and  C_4
REMARK    4  A    between atoms: C_4  and  N_5
REMARK    5  A    between atoms: C_16  and  O_17
REMARK    6  A    between atoms: O_17  and  C_18
REMARK    7  A    between atoms: C_18  and  C_19
REMARK                            x       y       z     vdW  Elec       q    Type
REMARK                         _______ _______ _______ _____ _____    ______ ____
ROOT
ATOM      1  C   UNL     1      23.738   2.873  50.074  0.00  0.00    +0.000 A 
ATOM      2  C   UNL     1      22.765   2.307  49.249  0.00  0.00    +0.000 A 
ATOM      3  C   UNL     1      21.906   1.329  49.747  0.00  0.00    +0.000 A 
ATOM      4  C   UNL     1      22.009   0.914  51.077  0.00  0.00    +0.000 A 
ATOM      5  C   UNL     1      22.956   1.487  51.926  0.00  0.00    +0.000 A 
ATOM      6  C   UNL     1      23.819   2.466  51.416  0.00  0.00    +0.000 A 
ENDROOT
BRANCH   1   8
ATOM      7  C   UNL     1      26.117   3.475  49.558  0.00  0.00    +0.000 C 
ATOM      8  C   UNL     1      24.669   3.866  49.524  0.00  0.00    +0.000 C 
ATOM      9  C   UNL     1      24.179   5.047  49.089  0.00  0.00    +0.000 C 
BRANCH   9  10
ATOM     10  C   UNL     1      24.968   6.205  48.527  0.00  0.00    +0.000 C 
BRANCH  10  11
ATOM     11  N   UNL     1      25.653   6.857  49.634  0.00  0.00    +0.000 N 
ATOM     12  O   UNL     1      26.948   7.423  49.246  0.00  0.00    +0.000 OA
ATOM     13  C   UNL     1      27.095   8.659  49.887  0.00  0.00    +0.000 A 
ATOM     14  O   UNL     1      28.000   9.433  49.727  0.00  0.00    +0.000 OA
ATOM     15  N   UNL     1      25.970   8.819  50.644  0.00  0.00    +0.000 N 
ATOM     16  C   UNL     1      25.071   7.933  50.288  0.00  0.00    +0.000 A 
ATOM     17  O   UNL     1      23.921   7.996  50.478  0.00  0.00    +0.000 OA
ATOM     18  H   UNL     1      25.851   9.496  51.349  0.00  0.00    +0.000 HD
ENDBRANCH  10  11
ENDBRANCH   9  10
ENDBRANCH   1   8
BRANCH   5  19
ATOM     19  O   UNL     1      23.075   1.219  53.261  0.00  0.00    +0.000 OA
BRANCH  19  20
ATOM     20  C   UNL     1      23.464  -0.108  53.617  0.00  0.00    +0.000 C 
BRANCH  20  21
ATOM     21  C   UNL     1      24.957  -0.339  53.565  0.00  0.00    +0.000 A 
ATOM     22  C   UNL     1      25.508  -1.095  52.513  0.00  0.00    +0.000 A 
ATOM     23  C   UNL     1      26.863  -1.412  52.517  0.00  0.00    +0.000 A 
ATOM     24  C   UNL     1      27.726  -0.776  53.430  0.00  0.00    +0.000 A 
ATOM     25  C   UNL     1      29.111  -0.956  53.410  0.00  0.00    +0.000 A 
ATOM     26 CL   UNL     1      29.773  -2.591  53.632  0.00  0.00    +0.000 Cl
ATOM     27  C   UNL     1      29.946   0.131  53.623  0.00  0.00    +0.000 A 
ATOM     28  C   UNL     1      29.402   1.275  54.189  0.00  0.00    +0.000 A 
ATOM     29  C   UNL     1      28.078   1.249  54.661  0.00  0.00    +0.000 A 
ATOM     30  C   UNL     1      27.202   0.238  54.237  0.00  0.00    +0.000 A 
ATOM     31  C   UNL     1      25.822   0.301  54.462  0.00  0.00    +0.000 A 
ENDBRANCH  20  21
ENDBRANCH  19  20
ENDBRANCH   5  19
TORSDOF 6
ENDMDL
MODEL 9
REMARK VINA RESULT:    -8.963      4.102      7.369
REMARK INTER + INTRA:         -13.299
REMARK INTER:                 -12.021
REMARK INTRA:                  -1.278
REMARK UNBOUND:                -1.192
REMARK  Name = 
REMARK  7 active torsions:
REMARK  status: ('A' for Active; 'I' for Inactive)
REMARK    1  A    between atoms: C_1  and  C_2
REMARK    2  A    between atoms: C_2  and  C_12
REMARK    3  A    between atoms: C_3  and  C_4
REMARK    4  A    between atoms: C_4  and  N_5
REMARK    5  A    between atoms: C_16  and  O_17
REMARK    6  A    between atoms: O_17  and  C_18
REMARK    7  A    between atoms: C_18  and  C_19
REMARK                            x       y       z     vdW  Elec       q    Type
REMARK                         _______ _______ _______ _____ _____    ______ ____
ROOT
ATOM      1  C   UNL     1      25.619   6.088  49.572  0.00  0.00    +0.000 A 
ATOM      2  C   UNL     1      25.692   7.456  49.835  0.00  0.00    +0.000 A 
ATOM      3  C   UNL     1      24.555   8.154  50.240  0.00  0.00    +0.000 A 
ATOM      4  C   UNL     1      23.337   7.487  50.392  0.00  0.00    +0.000 A 
ATOM      5  C   UNL     1      23.249   6.114  50.161  0.00  0.00    +0.000 A 
ATOM      6  C   UNL     1      24.396   5.421  49.749  0.00  0.00    +0.000 A 
ENDROOT
BRANCH   1   8
ATOM      7  C   UNL     1      26.803   3.892  49.318  0.00  0.00    +0.000 C 
ATOM      8  C   UNL     1      26.811   5.375  49.098  0.00  0.00    +0.000 C 
ATOM      9  C   UNL     1      27.826   6.088  48.562  0.00  0.00    +0.000 C 
BRANCH   9  10
ATOM     10  C   UNL     1      29.142   5.553  48.053  0.00  0.00    +0.000 C 
BRANCH  10  11
ATOM     11  N   UNL     1      30.128   6.620  48.154  0.00  0.00    +0.000 N 
ATOM     12  O   UNL     1      29.519   7.947  48.271  0.00  0.00    +0.000 OA
ATOM     13  C   UNL     1      30.261   8.688  49.199  0.00  0.00    +0.000 A 
ATOM     14  O   UNL     1      29.991   9.789  49.599  0.00  0.00    +0.000 OA
ATOM     15  N   UNL     1      31.280   7.870  49.596  0.00  0.00    +0.000 N 
ATOM     16  C   UNL     1      31.037   6.644  49.201  0.00  0.00    +0.000 A 
ATOM     17  O   UNL     1      31.503   5.668  49.642  0.00  0.00    +0.000 OA
ATOM     18  H   UNL     1      32.074   8.157  50.101  0.00  0.00    +0.000 HD
ENDBRANCH  10  11
ENDBRANCH   9  10
ENDBRANCH   1   8
BRANCH   5  19
ATOM     19  O   UNL     1      22.132   5.355  50.370  0.00  0.00    +0.000 OA
BRANCH  19  20
ATOM     20  C   UNL     1      21.830   5.018  51.724  0.00  0.00    +0.000 C 
BRANCH  20  21
ATOM     21  C   UNL     1      22.371   3.674  52.152  0.00  0.00    +0.000 A 
ATOM     22  C   UNL     1      21.670   2.502  51.816  0.00  0.00    +0.000 A 
ATOM     23  C   UNL     1      22.095   1.269  52.303  0.00  0.00    +0.000 A 
ATOM     24  C   UNL     1      23.355   1.160  52.922  0.00  0.00    +0.000 A 
ATOM     25  C   UNL     1      23.895  -0.063  53.325  0.00  0.00    +0.000 A 
ATOM     26 CL   UNL     1      23.015  -1.045  54.517  0.00  0.00    +0.000 Cl
ATOM     27  C   UNL     1      25.245  -0.314  53.127  0.00  0.00    +0.000 A 
ATOM     28  C   UNL     1      26.081   0.761  52.864  0.00  0.00    +0.000 A 
ATOM     29  C   UNL     1      25.572   2.069  52.954  0.00  0.00    +0.000 A 
ATOM     30  C   UNL     1      24.186   2.285  52.930  0.00  0.00    +0.000 A 
ATOM     31  C   UNL     1      23.630   3.558  52.757  0.00  0.00    +0.000 A 
ENDBRANCH  20  21
ENDBRANCH  19  20
ENDBRANCH   5  19
TORSDOF 6
ENDMDL
