MODEL 1
REMARK VINA RESULT:    -9.329      0.000      0.000
REMARK INTER + INTRA:         -15.879
REMARK INTER:                 -13.693
REMARK INTRA:                  -2.186
REMARK UNBOUND:                -2.186
REMARK  Name = 
REMARK  10 active torsions:
REMARK  status: ('A' for Active; 'I' for Inactive)
REMARK    1  A    between atoms: C_1  and  C_2
REMARK    2  A    between atoms: C_2  and  C_12
REMARK    3  A    between atoms: C_3  and  C_4
REMARK    4  A    between atoms: C_4  and  C_5
REMARK    5  A    between atoms: C_16  and  O_17
REMARK    6  A    between atoms: O_17  and  C_18
REMARK    7  A    between atoms: C_18  and  C_19
REMARK    8  A    between atoms: C_19  and  C_20
REMARK    9  A    between atoms: C_22  and  C_23
REMARK   10  A    between atoms: C_30  and  C_31
REMARK                            x       y       z     vdW  Elec       q    Type
REMARK                         _______ _______ _______ _____ _____    ______ ____
ROOT
ATOM      1  C   UNL     1      23.146   0.944  53.002  0.00  0.00    +0.000 A 
ATOM      2  C   UNL     1      22.971  -0.286  53.651  0.00  0.00    +0.000 A 
ATOM      3  C   UNL     1      21.711  -0.862  53.740  0.00  0.00    +0.000 A 
ATOM      4  C   UNL     1      20.608  -0.186  53.231  0.00  0.00    +0.000 A 
ATOM      5  C   UNL     1      20.740   1.105  52.704  0.00  0.00    +0.000 A 
ATOM      6  C   UNL     1      22.022   1.646  52.533  0.00  0.00    +0.000 A 
ENDROOT
BRANCH   1   8
ATOM      7  C   UNL     1      24.891   2.764  53.263  0.00  0.00    +0.000 C 
ATOM      8  C   UNL     1      24.536   1.391  52.778  0.00  0.00    +0.000 C 
ATOM      9  C   UNL     1      25.397   0.462  52.319  0.00  0.00    +0.000 C 
BRANCH   9  10
ATOM     10  C   UNL     1      26.890   0.585  52.173  0.00  0.00    +0.000 C 
BRANCH  10  11
ATOM     11  C   UNL     1      27.591   0.487  53.526  0.00  0.00    +0.000 C 
ATOM     12  O   UNL     1      28.274  -0.774  53.669  0.00  0.00    +0.000 OA
ATOM     13  C   UNL     1      29.606  -0.545  53.803  0.00  0.00    +0.000 C 
ATOM     14  O   UNL     1      30.446  -1.424  53.936  0.00  0.00    +0.000 OA
ATOM     15  N   UNL     1      29.857   0.769  53.781  0.00  0.00    +0.000 N 
ATOM     16  C   UNL     1      28.723   1.472  53.620  0.00  0.00    +0.000 C 
ATOM     17  O   UNL     1      28.643   2.688  53.550  0.00  0.00    +0.000 OA
ATOM     18  H   UNL     1      30.753   1.167  53.869  0.00  0.00    +0.000 HD
ENDBRANCH  10  11
ENDBRANCH   9  10
ENDBRANCH   1   8
BRANCH   5  19
ATOM     19  O   UNL     1      19.665   1.904  52.363  0.00  0.00    +0.000 OA
BRANCH  19  20
ATOM     20  C   UNL     1      20.018   3.287  52.190  0.00  0.00    +0.000 C 
BRANCH  20  21
ATOM     21  C   UNL     1      19.519   3.877  50.871  0.00  0.00    +0.000 C 
BRANCH  21  22
ATOM     22  C   UNL     1      20.664   3.992  49.915  0.00  0.00    +0.000 A 
ATOM     23  N   UNL     1      21.913   4.375  50.368  0.00  0.00    +0.000 NA
ATOM     24  C   UNL     1      22.709   4.205  49.328  0.00  0.00    +0.000 A 
ATOM     25  O   UNL     1      22.057   3.784  48.200  0.00  0.00    +0.000 OA
ATOM     26  C   UNL     1      20.757   3.627  48.587  0.00  0.00    +0.000 A 
ATOM     27  C   UNL     1      19.856   3.047  47.578  0.00  0.00    +0.000 C 
BRANCH  24  28
ATOM     28  C   UNL     1      24.167   4.282  49.238  0.00  0.00    +0.000 A 
ATOM     29  C   UNL     1      24.784   5.478  48.841  0.00  0.00    +0.000 A 
ATOM     30  C   UNL     1      26.178   5.587  48.812  0.00  0.00    +0.000 A 
ATOM     31  C   UNL     1      26.973   4.502  49.176  0.00  0.00    +0.000 A 
ATOM     32  C   UNL     1      26.378   3.306  49.566  0.00  0.00    +0.000 A 
ATOM     33  C   UNL     1      24.984   3.197  49.595  0.00  0.00    +0.000 A 
ENDBRANCH  24  28
ENDBRANCH  21  22
ENDBRANCH  20  21
ENDBRANCH  19  20
ENDBRANCH   5  19
TORSDOF 8
ENDMDL
MODEL 2
REMARK VINA RESULT:    -9.270      1.952      3.328
REMARK INTER + INTRA:         -15.792
REMARK INTER:                 -14.283
REMARK INTRA:                  -1.509
REMARK UNBOUND:                -2.186
REMARK  Name = 
REMARK  10 active torsions:
REMARK  status: ('A' for Active; 'I' for Inactive)
REMARK    1  A    between atoms: C_1  and  C_2
REMARK    2  A    between atoms: C_2  and  C_12
REMARK    3  A    between atoms: C_3  and  C_4
REMARK    4  A    between atoms: C_4  and  C_5
REMARK    5  A    between atoms: C_16  and  O_17
REMARK    6  A    between atoms: O_17  and  C_18
REMARK    7  A    between atoms: C_18  and  C_19
REMARK    8  A    between atoms: C_19  and  C_20
REMARK    9  A    between atoms: C_22  and  C_23
REMARK   10  A    between atoms: C_30  and  C_31
REMARK                            x       y       z     vdW  Elec       q    Type
REMARK                         _______ _______ _______ _____ _____    ______ ____
ROOT
ATOM      1  C   UNL     1      21.238  -0.192  52.793  0.00  0.00    +0.000 A 
ATOM      2  C   UNL     1      19.929  -0.291  53.287  0.00  0.00    +0.000 A 
ATOM      3  C   UNL     1      18.843  -0.071  52.450  0.00  0.00    +0.000 A 
ATOM      4  C   UNL     1      19.057   0.307  51.130  0.00  0.00    +0.000 A 
ATOM      5  C   UNL     1      20.353   0.548  50.655  0.00  0.00    +0.000 A 
ATOM      6  C   UNL     1      21.450   0.237  51.473  0.00  0.00    +0.000 A 
ENDROOT
BRANCH   1   8
ATOM      7  C   UNL     1      21.955  -1.587  54.786  0.00  0.00    +0.000 C 
ATOM      8  C   UNL     1      22.326  -0.633  53.690  0.00  0.00    +0.000 C 
ATOM      9  C   UNL     1      23.576  -0.278  53.334  0.00  0.00    +0.000 C 
BRANCH   9  10
ATOM     10  C   UNL     1      24.872  -0.733  53.950  0.00  0.00    +0.000 C 
BRANCH  10  11
ATOM     11  C   UNL     1      26.073  -0.248  53.142  0.00  0.00    +0.000 C 
ATOM     12  O   UNL     1      26.887   0.659  53.910  0.00  0.00    +0.000 OA
ATOM     13  C   UNL     1      28.123   0.120  54.071  0.00  0.00    +0.000 C 
ATOM     14  O   UNL     1      29.034   0.656  54.687  0.00  0.00    +0.000 OA
ATOM     15  N   UNL     1      28.198  -1.064  53.453  0.00  0.00    +0.000 N 
ATOM     16  C   UNL     1      27.029  -1.376  52.866  0.00  0.00    +0.000 C 
ATOM     17  O   UNL     1      26.796  -2.397  52.242  0.00  0.00    +0.000 OA
ATOM     18  H   UNL     1      29.002  -1.631  53.431  0.00  0.00    +0.000 HD
ENDBRANCH  10  11
ENDBRANCH   9  10
ENDBRANCH   1   8
BRANCH   5  19
ATOM     19  O   UNL     1      20.622   1.108  49.421  0.00  0.00    +0.000 OA
BRANCH  19  20
ATOM     20  C   UNL     1      21.931   1.699  49.339  0.00  0.00    +0.000 C 
BRANCH  20  21
ATOM     21  C   UNL     1      21.979   3.135  49.860  0.00  0.00    +0.000 C 
BRANCH  21  22
ATOM     22  C   UNL     1      23.402   3.529  50.097  0.00  0.00    +0.000 A 
ATOM     23  N   UNL     1      24.157   4.061  49.068  0.00  0.00    +0.000 NA
ATOM     24  C   UNL     1      25.276   4.455  49.647  0.00  0.00    +0.000 A 
ATOM     25  O   UNL     1      25.332   4.170  50.986  0.00  0.00    +0.000 OA
ATOM     26  C   UNL     1      24.124   3.601  51.271  0.00  0.00    +0.000 A 
ATOM     27  C   UNL     1      23.873   3.317  52.693  0.00  0.00    +0.000 C 
BRANCH  24  28
ATOM     28  C   UNL     1      26.388   5.239  49.109  0.00  0.00    +0.000 A 
ATOM     29  C   UNL     1      27.594   4.608  48.770  0.00  0.00    +0.000 A 
ATOM     30  C   UNL     1      28.642   5.333  48.195  0.00  0.00    +0.000 A 
ATOM     31  C   UNL     1      28.501   6.698  47.954  0.00  0.00    +0.000 A 
ATOM     32  C   UNL     1      27.314   7.342  48.291  0.00  0.00    +0.000 A 
ATOM     33  C   UNL     1      26.265   6.617  48.865  0.00  0.00    +0.000 A 
ENDBRANCH  24  28
ENDBRANCH  21  22
ENDBRANCH  20  21
ENDBRANCH  19  20
ENDBRANCH   5  19
TORSDOF 8
ENDMDL
MODEL 3
REMARK VINA RESULT:    -8.870      4.063      7.922
REMARK INTER + INTRA:         -15.204
REMARK INTER:                 -14.157
REMARK INTRA:                  -1.047
REMARK UNBOUND:                -2.186
REMARK  Name = 
REMARK  10 active torsions:
REMARK  status: ('A' for Active; 'I' for Inactive)
REMARK    1  A    between atoms: C_1  and  C_2
REMARK    2  A    between atoms: C_2  and  C_12
REMARK    3  A    between atoms: C_3  and  C_4
REMARK    4  A    between atoms: C_4  and  C_5
REMARK    5  A    between atoms: C_16  and  O_17
REMARK    6  A    between atoms: O_17  and  C_18
REMARK    7  A    between atoms: C_18  and  C_19
REMARK    8  A    between atoms: C_19  and  C_20
REMARK    9  A    between atoms: C_22  and  C_23
REMARK   10  A    between atoms: C_30  and  C_31
REMARK                            x       y       z     vdW  Elec       q    Type
REMARK                         _______ _______ _______ _____ _____    ______ ____
ROOT
ATOM      1  C   UNL     1      26.241   5.403  49.137  0.00  0.00    +0.000 A 
ATOM      2  C   UNL     1      27.123   4.317  49.045  0.00  0.00    +0.000 A 
ATOM      3  C   UNL     1      26.746   3.064  49.511  0.00  0.00    +0.000 A 
ATOM      4  C   UNL     1      25.510   2.901  50.125  0.00  0.00    +0.000 A 
ATOM      5  C   UNL     1      24.672   4.000  50.352  0.00  0.00    +0.000 A 
ATOM      6  C   UNL     1      25.013   5.244  49.801  0.00  0.00    +0.000 A 
ENDROOT
BRANCH   1   8
ATOM      7  C   UNL     1      25.562   7.669  48.224  0.00  0.00    +0.000 C 
ATOM      8  C   UNL     1      26.636   6.646  48.444  0.00  0.00    +0.000 C 
ATOM      9  C   UNL     1      27.955   6.820  48.232  0.00  0.00    +0.000 C 
BRANCH   9  10
ATOM     10  C   UNL     1      28.650   8.053  47.719  0.00  0.00    +0.000 C 
BRANCH  10  11
ATOM     11  C   UNL     1      29.540   8.677  48.791  0.00  0.00    +0.000 C 
ATOM     12  O   UNL     1      30.553   9.516  48.204  0.00  0.00    +0.000 OA
ATOM     13  C   UNL     1      30.374  10.794  48.629  0.00  0.00    +0.000 C 
ATOM     14  O   UNL     1      31.078  11.736  48.295  0.00  0.00    +0.000 OA
ATOM     15  N   UNL     1      29.334  10.863  49.468  0.00  0.00    +0.000 N 
ATOM     16  C   UNL     1      28.767   9.655  49.633  0.00  0.00    +0.000 C 
ATOM     17  O   UNL     1      27.795   9.413  50.329  0.00  0.00    +0.000 OA
ATOM     18  H   UNL     1      29.025  11.689  49.906  0.00  0.00    +0.000 HD
ENDBRANCH  10  11
ENDBRANCH   9  10
ENDBRANCH   1   8
BRANCH   5  19
ATOM     19  O   UNL     1      23.527   3.941  51.123  0.00  0.00    +0.000 OA
BRANCH  19  20
ATOM     20  C   UNL     1      23.741   3.342  52.413  0.00  0.00    +0.000 C 
BRANCH  20  21
ATOM     21  C   UNL     1      22.940   2.057  52.623  0.00  0.00    +0.000 C 
BRANCH  21  22
ATOM     22  C   UNL     1      23.879   0.922  52.874  0.00  0.00    +0.000 A 
ATOM     23  N   UNL     1      25.224   1.055  52.585  0.00  0.00    +0.000 NA
ATOM     24  C   UNL     1      25.780  -0.036  53.080  0.00  0.00    +0.000 A 
ATOM     25  O   UNL     1      24.880  -0.908  53.633  0.00  0.00    +0.000 OA
ATOM     26  C   UNL     1      23.672  -0.281  53.520  0.00  0.00    +0.000 A 
ATOM     27  C   UNL     1      22.538  -0.959  54.166  0.00  0.00    +0.000 C 
BRANCH  24  28
ATOM     28  C   UNL     1      27.192  -0.388  53.230  0.00  0.00    +0.000 A 
ATOM     29  C   UNL     1      28.105   0.561  53.714  0.00  0.00    +0.000 A 
ATOM     30  C   UNL     1      29.445   0.221  53.924  0.00  0.00    +0.000 A 
ATOM     31  C   UNL     1      29.892  -1.069  53.650  0.00  0.00    +0.000 A 
ATOM     32  C   UNL     1      29.001  -2.022  53.162  0.00  0.00    +0.000 A 
ATOM     33  C   UNL     1      27.661  -1.682  52.953  0.00  0.00    +0.000 A 
ENDBRANCH  24  28
ENDBRANCH  21  22
ENDBRANCH  20  21
ENDBRANCH  19  20
ENDBRANCH   5  19
TORSDOF 8
ENDMDL
MODEL 4
REMARK VINA RESULT:    -8.766      3.356      6.819
REMARK INTER + INTRA:         -15.051
REMARK INTER:                 -13.209
REMARK INTRA:                  -1.842
REMARK UNBOUND:                -2.186
REMARK  Name = 
REMARK  10 active torsions:
REMARK  status: ('A' for Active; 'I' for Inactive)
REMARK    1  A    between atoms: C_1  and  C_2
REMARK    2  A    between atoms: C_2  and  C_12
REMARK    3  A    between atoms: C_3  and  C_4
REMARK    4  A    between atoms: C_4  and  C_5
REMARK    5  A    between atoms: C_16  and  O_17
REMARK    6  A    between atoms: O_17  and  C_18
REMARK    7  A    between atoms: C_18  and  C_19
REMARK    8  A    between atoms: C_19  and  C_20
REMARK    9  A    between atoms: C_22  and  C_23
REMARK   10  A    between atoms: C_30  and  C_31
REMARK                            x       y       z     vdW  Elec       q    Type
REMARK                         _______ _______ _______ _____ _____    ______ ____
ROOT
ATOM      1  C   UNL     1      24.780   4.684  49.143  0.00  0.00    +0.000 A 
ATOM      2  C   UNL     1      24.218   5.927  48.821  0.00  0.00    +0.000 A 
ATOM      3  C   UNL     1      22.843   6.116  48.884  0.00  0.00    +0.000 A 
ATOM      4  C   UNL     1      22.017   5.048  49.212  0.00  0.00    +0.000 A 
ATOM      5  C   UNL     1      22.545   3.764  49.401  0.00  0.00    +0.000 A 
ATOM      6  C   UNL     1      23.938   3.596  49.426  0.00  0.00    +0.000 A 
ENDROOT
BRANCH   1   8
ATOM      7  C   UNL     1      26.833   3.406  49.903  0.00  0.00    +0.000 C 
ATOM      8  C   UNL     1      26.252   4.621  49.244  0.00  0.00    +0.000 C 
ATOM      9  C   UNL     1      26.939   5.571  48.580  0.00  0.00    +0.000 C 
BRANCH   9  10
ATOM     10  C   UNL     1      28.426   5.647  48.360  0.00  0.00    +0.000 C 
BRANCH  10  11
ATOM     11  C   UNL     1      28.859   7.055  47.962  0.00  0.00    +0.000 C 
ATOM     12  O   UNL     1      27.901   8.038  48.397  0.00  0.00    +0.000 OA
ATOM     13  C   UNL     1      28.497   8.881  49.280  0.00  0.00    +0.000 C 
ATOM     14  O   UNL     1      27.932   9.818  49.828  0.00  0.00    +0.000 OA
ATOM     15  N   UNL     1      29.781   8.546  49.448  0.00  0.00    +0.000 N 
ATOM     16  C   UNL     1      30.098   7.470  48.706  0.00  0.00    +0.000 C 
ATOM     17  O   UNL     1      31.192   6.930  48.666  0.00  0.00    +0.000 OA
ATOM     18  H   UNL     1      30.409   9.022  50.037  0.00  0.00    +0.000 HD
ENDBRANCH  10  11
ENDBRANCH   9  10
ENDBRANCH   1   8
BRANCH   5  19
ATOM     19  O   UNL     1      21.767   2.631  49.536  0.00  0.00    +0.000 OA
BRANCH  19  20
ATOM     20  C   UNL     1      22.453   1.546  50.185  0.00  0.00    +0.000 C 
BRANCH  20  21
ATOM     21  C   UNL     1      22.215   1.498  51.695  0.00  0.00    +0.000 C 
BRANCH  21  22
ATOM     22  C   UNL     1      23.507   1.743  52.408  0.00  0.00    +0.000 A 
ATOM     23  N   UNL     1      24.448   0.735  52.507  0.00  0.00    +0.000 NA
ATOM     24  C   UNL     1      25.511   1.324  53.024  0.00  0.00    +0.000 A 
ATOM     25  O   UNL     1      25.316   2.646  53.323  0.00  0.00    +0.000 OA
ATOM     26  C   UNL     1      24.044   2.914  52.905  0.00  0.00    +0.000 A 
ATOM     27  C   UNL     1      23.626   4.322  52.993  0.00  0.00    +0.000 C 
BRANCH  24  28
ATOM     28  C   UNL     1      26.871   0.817  53.209  0.00  0.00    +0.000 A 
ATOM     29  C   UNL     1      27.898   1.686  53.604  0.00  0.00    +0.000 A 
ATOM     30  C   UNL     1      29.188   1.204  53.848  0.00  0.00    +0.000 A 
ATOM     31  C   UNL     1      29.469  -0.152  53.697  0.00  0.00    +0.000 A 
ATOM     32  C   UNL     1      28.463  -1.028  53.299  0.00  0.00    +0.000 A 
ATOM     33  C   UNL     1      27.174  -0.546  53.056  0.00  0.00    +0.000 A 
ENDBRANCH  24  28
ENDBRANCH  21  22
ENDBRANCH  20  21
ENDBRANCH  19  20
ENDBRANCH   5  19
TORSDOF 8
ENDMDL
MODEL 5
REMARK VINA RESULT:    -8.751      1.464      4.926
REMARK INTER + INTRA:         -15.031
REMARK INTER:                 -12.906
REMARK INTRA:                  -2.124
REMARK UNBOUND:                -2.186
REMARK  Name = 
REMARK  10 active torsions:
REMARK  status: ('A' for Active; 'I' for Inactive)
REMARK    1  A    between atoms: C_1  and  C_2
REMARK    2  A    between atoms: C_2  and  C_12
REMARK    3  A    between atoms: C_3  and  C_4
REMARK    4  A    between atoms: C_4  and  C_5
REMARK    5  A    between atoms: C_16  and  O_17
REMARK    6  A    between atoms: O_17  and  C_18
REMARK    7  A    between atoms: C_18  and  C_19
REMARK    8  A    between atoms: C_19  and  C_20
REMARK    9  A    between atoms: C_22  and  C_23
REMARK   10  A    between atoms: C_30  and  C_31
REMARK                            x       y       z     vdW  Elec       q    Type
REMARK                         _______ _______ _______ _____ _____    ______ ____
ROOT
ATOM      1  C   UNL     1      25.334   2.994  50.989  0.00  0.00    +0.000 A 
ATOM      2  C   UNL     1      26.458   3.158  50.167  0.00  0.00    +0.000 A 
ATOM      3  C   UNL     1      26.536   4.230  49.288  0.00  0.00    +0.000 A 
ATOM      4  C   UNL     1      25.467   5.111  49.180  0.00  0.00    +0.000 A 
ATOM      5  C   UNL     1      24.279   4.887  49.889  0.00  0.00    +0.000 A 
ATOM      6  C   UNL     1      24.236   3.859  50.842  0.00  0.00    +0.000 A 
ENDROOT
BRANCH   1   8
ATOM      7  C   UNL     1      24.601   2.170  53.271  0.00  0.00    +0.000 C 
ATOM      8  C   UNL     1      25.413   1.950  52.031  0.00  0.00    +0.000 C 
ATOM      9  C   UNL     1      26.067   0.820  51.697  0.00  0.00    +0.000 C 
BRANCH   9  10
ATOM     10  C   UNL     1      26.147  -0.461  52.484  0.00  0.00    +0.000 C 
BRANCH  10  11
ATOM     11  C   UNL     1      27.350  -0.463  53.424  0.00  0.00    +0.000 C 
ATOM     12  O   UNL     1      28.364   0.457  52.975  0.00  0.00    +0.000 OA
ATOM     13  C   UNL     1      28.539   1.421  53.917  0.00  0.00    +0.000 C 
ATOM     14  O   UNL     1      29.331   2.347  53.816  0.00  0.00    +0.000 OA
ATOM     15  N   UNL     1      27.734   1.200  54.963  0.00  0.00    +0.000 N 
ATOM     16  C   UNL     1      26.984   0.100  54.770  0.00  0.00    +0.000 C 
ATOM     17  O   UNL     1      26.152  -0.340  55.546  0.00  0.00    +0.000 OA
ATOM     18  H   UNL     1      27.696   1.767  55.766  0.00  0.00    +0.000 HD
ENDBRANCH  10  11
ENDBRANCH   9  10
ENDBRANCH   1   8
BRANCH   5  19
ATOM     19  O   UNL     1      23.119   5.608  49.682  0.00  0.00    +0.000 OA
BRANCH  19  20
ATOM     20  C   UNL     1      21.990   4.783  49.345  0.00  0.00    +0.000 C 
BRANCH  20  21
ATOM     21  C   UNL     1      20.770   5.037  50.231  0.00  0.00    +0.000 C 
BRANCH  21  22
ATOM     22  C   UNL     1      20.387   3.768  50.923  0.00  0.00    +0.000 A 
ATOM     23  N   UNL     1      21.359   2.861  51.301  0.00  0.00    +0.000 NA
ATOM     24  C   UNL     1      20.714   1.965  52.026  0.00  0.00    +0.000 A 
ATOM     25  O   UNL     1      19.366   2.193  52.109  0.00  0.00    +0.000 OA
ATOM     26  C   UNL     1      19.167   3.358  51.423  0.00  0.00    +0.000 A 
ATOM     27  C   UNL     1      17.801   3.902  51.472  0.00  0.00    +0.000 C 
BRANCH  24  28
ATOM     28  C   UNL     1      21.230   0.861  52.834  0.00  0.00    +0.000 A 
ATOM     29  C   UNL     1      20.803   0.700  54.161  0.00  0.00    +0.000 A 
ATOM     30  C   UNL     1      21.237  -0.388  54.925  0.00  0.00    +0.000 A 
ATOM     31  C   UNL     1      22.106  -1.327  54.375  0.00  0.00    +0.000 A 
ATOM     32  C   UNL     1      22.546  -1.180  53.062  0.00  0.00    +0.000 A 
ATOM     33  C   UNL     1      22.111  -0.093  52.298  0.00  0.00    +0.000 A 
ENDBRANCH  24  28
ENDBRANCH  21  22
ENDBRANCH  20  21
ENDBRANCH  19  20
ENDBRANCH   5  19
TORSDOF 8
ENDMDL
MODEL 6
REMARK VINA RESULT:    -8.741      3.317      6.811
REMARK INTER + INTRA:         -15.015
REMARK INTER:                 -13.314
REMARK INTRA:                  -1.701
REMARK UNBOUND:                -2.186
REMARK  Name = 
REMARK  10 active torsions:
REMARK  status: ('A' for Active; 'I' for Inactive)
REMARK    1  A    between atoms: C_1  and  C_2
REMARK    2  A    between atoms: C_2  and  C_12
REMARK    3  A    between atoms: C_3  and  C_4
REMARK    4  A    between atoms: C_4  and  C_5
REMARK    5  A    between atoms: C_16  and  O_17
REMARK    6  A    between atoms: O_17  and  C_18
REMARK    7  A    between atoms: C_18  and  C_19
REMARK    8  A    between atoms: C_19  and  C_20
REMARK    9  A    between atoms: C_22  and  C_23
REMARK   10  A    between atoms: C_30  and  C_31
REMARK                            x       y       z     vdW  Elec       q    Type
REMARK                         _______ _______ _______ _____ _____    ______ ____
ROOT
ATOM      1  C   UNL     1      24.567   4.478  50.277  0.00  0.00    +0.000 A 
ATOM      2  C   UNL     1      24.152   5.743  50.715  0.00  0.00    +0.000 A 
ATOM      3  C   UNL     1      22.956   5.891  51.407  0.00  0.00    +0.000 A 
ATOM      4  C   UNL     1      22.140   4.785  51.615  0.00  0.00    +0.000 A 
ATOM      5  C   UNL     1      22.468   3.539  51.064  0.00  0.00    +0.000 A 
ATOM      6  C   UNL     1      23.716   3.373  50.446  0.00  0.00    +0.000 A 
ENDROOT
BRANCH   1   8
ATOM      7  C   UNL     1      26.528   3.002  49.644  0.00  0.00    +0.000 C 
ATOM      8  C   UNL     1      25.934   4.376  49.728  0.00  0.00    +0.000 C 
ATOM      9  C   UNL     1      26.450   5.499  49.193  0.00  0.00    +0.000 C 
BRANCH   9  10
ATOM     10  C   UNL     1      27.728   5.643  48.411  0.00  0.00    +0.000 C 
BRANCH  10  11
ATOM     11  C   UNL     1      28.001   7.101  48.051  0.00  0.00    +0.000 C 
ATOM     12  O   UNL     1      27.169   7.992  48.819  0.00  0.00    +0.000 OA
ATOM     13  C   UNL     1      27.957   8.785  49.590  0.00  0.00    +0.000 C 
ATOM     14  O   UNL     1      27.536   9.639  50.357  0.00  0.00    +0.000 OA
ATOM     15  N   UNL     1      29.248   8.503  49.377  0.00  0.00    +0.000 N 
ATOM     16  C   UNL     1      29.383   7.513  48.476  0.00  0.00    +0.000 C 
ATOM     17  O   UNL     1      30.439   7.037  48.095  0.00  0.00    +0.000 OA
ATOM     18  H   UNL     1      29.999   8.958  49.822  0.00  0.00    +0.000 HD
ENDBRANCH  10  11
ENDBRANCH   9  10
ENDBRANCH   1   8
BRANCH   5  19
ATOM     19  O   UNL     1      21.612   2.455  51.067  0.00  0.00    +0.000 OA
BRANCH  19  20
ATOM     20  C   UNL     1      21.450   1.864  52.368  0.00  0.00    +0.000 C 
BRANCH  20  21
ATOM     21  C   UNL     1      21.652   0.348  52.373  0.00  0.00    +0.000 C 
BRANCH  21  22
ATOM     22  C   UNL     1      22.943   0.022  53.053  0.00  0.00    +0.000 A 
ATOM     23  N   UNL     1      24.108   0.666  52.681  0.00  0.00    +0.000 NA
ATOM     24  C   UNL     1      24.999   0.285  53.577  0.00  0.00    +0.000 A 
ATOM     25  O   UNL     1      24.512  -0.612  54.489  0.00  0.00    +0.000 OA
ATOM     26  C   UNL     1      23.193  -0.758  54.165  0.00  0.00    +0.000 A 
ATOM     27  C   UNL     1      22.396  -1.582  55.087  0.00  0.00    +0.000 C 
BRANCH  24  28
ATOM     28  C   UNL     1      26.364   0.759  53.806  0.00  0.00    +0.000 A 
ATOM     29  C   UNL     1      27.232   0.030  54.634  0.00  0.00    +0.000 A 
ATOM     30  C   UNL     1      28.559   0.435  54.811  0.00  0.00    +0.000 A 
ATOM     31  C   UNL     1      29.035   1.575  54.167  0.00  0.00    +0.000 A 
ATOM     32  C   UNL     1      28.186   2.314  53.348  0.00  0.00    +0.000 A 
ATOM     33  C   UNL     1      26.860   1.909  53.170  0.00  0.00    +0.000 A 
ENDBRANCH  24  28
ENDBRANCH  21  22
ENDBRANCH  20  21
ENDBRANCH  19  20
ENDBRANCH   5  19
TORSDOF 8
ENDMDL
MODEL 7
REMARK VINA RESULT:    -8.686      1.937      2.925
REMARK INTER + INTRA:         -14.934
REMARK INTER:                 -13.438
REMARK INTRA:                  -1.496
REMARK UNBOUND:                -2.186
REMARK  Name = 
REMARK  10 active torsions:
REMARK  status: ('A' for Active; 'I' for Inactive)
REMARK    1  A    between atoms: C_1  and  C_2
REMARK    2  A    between atoms: C_2  and  C_12
REMARK    3  A    between atoms: C_3  and  C_4
REMARK    4  A    between atoms: C_4  and  C_5
REMARK    5  A    between atoms: C_16  and  O_17
REMARK    6  A    between atoms: O_17  and  C_18
REMARK    7  A    between atoms: C_18  and  C_19
REMARK    8  A    between atoms: C_19  and  C_20
REMARK    9  A    between atoms: C_22  and  C_23
REMARK   10  A    between atoms: C_30  and  C_31
REMARK                            x       y       z     vdW  Elec       q    Type
REMARK                         _______ _______ _______ _____ _____    ______ ____
ROOT
ATOM      1  C   UNL     1      22.500  -0.293  53.472  0.00  0.00    +0.000 A 
ATOM      2  C   UNL     1      21.343  -0.564  54.215  0.00  0.00    +0.000 A 
ATOM      3  C   UNL     1      20.087  -0.410  53.643  0.00  0.00    +0.000 A 
ATOM      4  C   UNL     1      19.977   0.072  52.344  0.00  0.00    +0.000 A 
ATOM      5  C   UNL     1      21.113   0.481  51.633  0.00  0.00    +0.000 A 
ATOM      6  C   UNL     1      22.383   0.239  52.177  0.00  0.00    +0.000 A 
ENDROOT
BRANCH   1   8
ATOM      7  C   UNL     1      23.740  -1.268  55.456  0.00  0.00    +0.000 C 
ATOM      8  C   UNL     1      23.792  -0.670  54.083  0.00  0.00    +0.000 C 
ATOM      9  C   UNL     1      24.874  -0.604  53.284  0.00  0.00    +0.000 C 
BRANCH   9  10
ATOM     10  C   UNL     1      26.267  -1.093  53.580  0.00  0.00    +0.000 C 
BRANCH  10  11
ATOM     11  C   UNL     1      27.317  -0.256  52.854  0.00  0.00    +0.000 C 
ATOM     12  O   UNL     1      26.715   0.569  51.838  0.00  0.00    +0.000 OA
ATOM     13  C   UNL     1      26.926   1.876  52.143  0.00  0.00    +0.000 C 
ATOM     14  O   UNL     1      26.526   2.815  51.468  0.00  0.00    +0.000 OA
ATOM     15  N   UNL     1      27.638   1.981  53.271  0.00  0.00    +0.000 N 
ATOM     16  C   UNL     1      27.923   0.767  53.774  0.00  0.00    +0.000 C 
ATOM     17  O   UNL     1      28.548   0.550  54.800  0.00  0.00    +0.000 OA
ATOM     18  H   UNL     1      27.915   2.833  53.678  0.00  0.00    +0.000 HD
ENDBRANCH  10  11
ENDBRANCH   9  10
ENDBRANCH   1   8
BRANCH   5  19
ATOM     19  O   UNL     1      21.058   1.144  50.422  0.00  0.00    +0.000 OA
BRANCH  19  20
ATOM     20  C   UNL     1      22.270   1.851  50.106  0.00  0.00    +0.000 C 
BRANCH  20  21
ATOM     21  C   UNL     1      22.029   3.154  49.346  0.00  0.00    +0.000 C 
BRANCH  21  22
ATOM     22  C   UNL     1      23.142   4.110  49.633  0.00  0.00    +0.000 A 
ATOM     23  N   UNL     1      24.357   3.978  48.987  0.00  0.00    +0.000 NA
ATOM     24  C   UNL     1      25.033   5.060  49.327  0.00  0.00    +0.000 A 
ATOM     25  O   UNL     1      24.363   5.875  50.199  0.00  0.00    +0.000 OA
ATOM     26  C   UNL     1      23.148   5.277  50.372  0.00  0.00    +0.000 A 
ATOM     27  C   UNL     1      22.173   6.032  51.174  0.00  0.00    +0.000 C 
BRANCH  24  28
ATOM     28  C   UNL     1      26.313   5.564  48.828  0.00  0.00    +0.000 A 
ATOM     29  C   UNL     1      26.444   6.913  48.467  0.00  0.00    +0.000 A 
ATOM     30  C   UNL     1      27.677   7.425  48.050  0.00  0.00    +0.000 A 
ATOM     31  C   UNL     1      28.794   6.595  47.985  0.00  0.00    +0.000 A 
ATOM     32  C   UNL     1      28.680   5.252  48.334  0.00  0.00    +0.000 A 
ATOM     33  C   UNL     1      27.448   4.741  48.751  0.00  0.00    +0.000 A 
ENDBRANCH  24  28
ENDBRANCH  21  22
ENDBRANCH  20  21
ENDBRANCH  19  20
ENDBRANCH   5  19
TORSDOF 8
ENDMDL
MODEL 8
REMARK VINA RESULT:    -8.349      2.162      7.443
REMARK INTER + INTRA:         -14.440
REMARK INTER:                 -12.592
REMARK INTRA:                  -1.849
REMARK UNBOUND:                -2.186
REMARK  Name = 
REMARK  10 active torsions:
REMARK  status: ('A' for Active; 'I' for Inactive)
REMARK    1  A    between atoms: C_1  and  C_2
REMARK    2  A    between atoms: C_2  and  C_12
REMARK    3  A    between atoms: C_3  and  C_4
REMARK    4  A    between atoms: C_4  and  C_5
REMARK    5  A    between atoms: C_16  and  O_17
REMARK    6  A    between atoms: O_17  and  C_18
REMARK    7  A    between atoms: C_18  and  C_19
REMARK    8  A    between atoms: C_19  and  C_20
REMARK    9  A    between atoms: C_22  and  C_23
REMARK   10  A    between atoms: C_30  and  C_31
REMARK                            x       y       z     vdW  Elec       q    Type
REMARK                         _______ _______ _______ _____ _____    ______ ____
ROOT
ATOM      1  C   UNL     1      21.706  -0.015  52.884  0.00  0.00    +0.000 A 
ATOM      2  C   UNL     1      20.936  -0.907  53.644  0.00  0.00    +0.000 A 
ATOM      3  C   UNL     1      21.486  -1.552  54.743  0.00  0.00    +0.000 A 
ATOM      4  C   UNL     1      22.826  -1.356  55.056  0.00  0.00    +0.000 A 
ATOM      5  C   UNL     1      23.649  -0.580  54.229  0.00  0.00    +0.000 A 
ATOM      6  C   UNL     1      23.072   0.142  53.174  0.00  0.00    +0.000 A 
ENDROOT
BRANCH   1   8
ATOM      7  C   UNL     1      21.573   0.762  50.475  0.00  0.00    +0.000 C 
ATOM      8  C   UNL     1      20.996   0.776  51.858  0.00  0.00    +0.000 C 
ATOM      9  C   UNL     1      19.805   1.291  52.218  0.00  0.00    +0.000 C 
BRANCH   9  10
ATOM     10  C   UNL     1      18.795   1.976  51.336  0.00  0.00    +0.000 C 
BRANCH  10  11
ATOM     11  C   UNL     1      18.929   3.495  51.412  0.00  0.00    +0.000 C 
ATOM     12  O   UNL     1      19.734   4.002  50.331  0.00  0.00    +0.000 OA
ATOM     13  C   UNL     1      18.978   4.827  49.561  0.00  0.00    +0.000 C 
ATOM     14  O   UNL     1      19.386   5.404  48.563  0.00  0.00    +0.000 OA
ATOM     15  N   UNL     1      17.740   4.922  50.059  0.00  0.00    +0.000 N 
ATOM     16  C   UNL     1      17.607   4.166  51.164  0.00  0.00    +0.000 C 
ATOM     17  O   UNL     1      16.588   4.045  51.825  0.00  0.00    +0.000 OA
ATOM     18  H   UNL     1      17.023   5.471  49.669  0.00  0.00    +0.000 HD
ENDBRANCH  10  11
ENDBRANCH   9  10
ENDBRANCH   1   8
BRANCH   5  19
ATOM     19  O   UNL     1      25.021  -0.503  54.373  0.00  0.00    +0.000 OA
BRANCH  19  20
ATOM     20  C   UNL     1      25.739  -1.240  53.368  0.00  0.00    +0.000 C 
BRANCH  20  21
ATOM     21  C   UNL     1      27.196  -0.800  53.223  0.00  0.00    +0.000 C 
BRANCH  21  22
ATOM     22  C   UNL     1      27.246   0.545  52.572  0.00  0.00    +0.000 A 
ATOM     23  N   UNL     1      26.369   0.856  51.549  0.00  0.00    +0.000 NA
ATOM     24  C   UNL     1      26.557   2.144  51.331  0.00  0.00    +0.000 A 
ATOM     25  O   UNL     1      27.541   2.696  52.108  0.00  0.00    +0.000 OA
ATOM     26  C   UNL     1      27.959   1.676  52.915  0.00  0.00    +0.000 A 
ATOM     27  C   UNL     1      28.936   2.043  53.952  0.00  0.00    +0.000 C 
BRANCH  24  28
ATOM     28  C   UNL     1      25.807   3.075  50.487  0.00  0.00    +0.000 A 
ATOM     29  C   UNL     1      24.409   2.985  50.413  0.00  0.00    +0.000 A 
ATOM     30  C   UNL     1      23.673   3.908  49.662  0.00  0.00    +0.000 A 
ATOM     31  C   UNL     1      24.324   4.928  48.972  0.00  0.00    +0.000 A 
ATOM     32  C   UNL     1      25.711   5.027  49.029  0.00  0.00    +0.000 A 
ATOM     33  C   UNL     1      26.447   4.106  49.780  0.00  0.00    +0.000 A 
ENDBRANCH  24  28
ENDBRANCH  21  22
ENDBRANCH  20  21
ENDBRANCH  19  20
ENDBRANCH   5  19
TORSDOF 8
ENDMDL
MODEL 9
REMARK VINA RESULT:    -8.241      2.972      6.642
REMARK INTER + INTRA:         -14.282
REMARK INTER:                 -12.762
REMARK INTRA:                  -1.520
REMARK UNBOUND:                -2.186
REMARK  Name = 
REMARK  10 active torsions:
REMARK  status: ('A' for Active; 'I' for Inactive)
REMARK    1  A    between atoms: C_1  and  C_2
REMARK    2  A    between atoms: C_2  and  C_12
REMARK    3  A    between atoms: C_3  and  C_4
REMARK    4  A    between atoms: C_4  and  C_5
REMARK    5  A    between atoms: C_16  and  O_17
REMARK    6  A    between atoms: O_17  and  C_18
REMARK    7  A    between atoms: C_18  and  C_19
REMARK    8  A    between atoms: C_19  and  C_20
REMARK    9  A    between atoms: C_22  and  C_23
REMARK   10  A    between atoms: C_30  and  C_31
REMARK                            x       y       z     vdW  Elec       q    Type
REMARK                         _______ _______ _______ _____ _____    ______ ____
ROOT
ATOM      1  C   UNL     1      23.286   3.338  49.360  0.00  0.00    +0.000 A 
ATOM      2  C   UNL     1      23.113   2.447  48.291  0.00  0.00    +0.000 A 
ATOM      3  C   UNL     1      21.940   1.712  48.171  0.00  0.00    +0.000 A 
ATOM      4  C   UNL     1      20.958   1.819  49.149  0.00  0.00    +0.000 A 
ATOM      5  C   UNL     1      21.170   2.596  50.295  0.00  0.00    +0.000 A 
ATOM      6  C   UNL     1      22.313   3.406  50.370  0.00  0.00    +0.000 A 
ENDROOT
BRANCH   1   8
ATOM      7  C   UNL     1      25.805   3.576  49.516  0.00  0.00    +0.000 C 
ATOM      8  C   UNL     1      24.469   4.222  49.308  0.00  0.00    +0.000 C 
ATOM      9  C   UNL     1      24.251   5.489  48.906  0.00  0.00    +0.000 C 
BRANCH   9  10
ATOM     10  C   UNL     1      25.280   6.542  48.591  0.00  0.00    +0.000 C 
BRANCH  10  11
ATOM     11  C   UNL     1      25.912   7.102  49.863  0.00  0.00    +0.000 C 
ATOM     12  O   UNL     1      27.189   7.709  49.588  0.00  0.00    +0.000 OA
ATOM     13  C   UNL     1      27.129   9.030  49.896  0.00  0.00    +0.000 C 
ATOM     14  O   UNL     1      28.060   9.812  49.763  0.00  0.00    +0.000 OA
ATOM     15  N   UNL     1      25.919   9.342  50.374  0.00  0.00    +0.000 N 
ATOM     16  C   UNL     1      25.118   8.262  50.396  0.00  0.00    +0.000 C 
ATOM     17  O   UNL     1      23.956   8.244  50.769  0.00  0.00    +0.000 OA
ATOM     18  H   UNL     1      25.650  10.241  50.669  0.00  0.00    +0.000 HD
ENDBRANCH  10  11
ENDBRANCH   9  10
ENDBRANCH   1   8
BRANCH   5  19
ATOM     19  O   UNL     1      20.323   2.593  51.387  0.00  0.00    +0.000 OA
BRANCH  19  20
ATOM     20  C   UNL     1      20.841   1.850  52.504  0.00  0.00    +0.000 C 
BRANCH  20  21
ATOM     21  C   UNL     1      21.165   0.395  52.165  0.00  0.00    +0.000 C 
BRANCH  21  22
ATOM     22  C   UNL     1      22.480   0.025  52.774  0.00  0.00    +0.000 A 
ATOM     23  N   UNL     1      23.629   0.705  52.415  0.00  0.00    +0.000 NA
ATOM     24  C   UNL     1      24.552   0.259  53.248  0.00  0.00    +0.000 A 
ATOM     25  O   UNL     1      24.100  -0.711  54.101  0.00  0.00    +0.000 OA
ATOM     26  C   UNL     1      22.771  -0.840  53.810  0.00  0.00    +0.000 A 
ATOM     27  C   UNL     1      22.009  -1.740  54.689  0.00  0.00    +0.000 C 
BRANCH  24  28
ATOM     28  C   UNL     1      25.921   0.723  53.469  0.00  0.00    +0.000 A 
ATOM     29  C   UNL     1      26.772   0.016  54.332  0.00  0.00    +0.000 A 
ATOM     30  C   UNL     1      28.103   0.409  54.504  0.00  0.00    +0.000 A 
ATOM     31  C   UNL     1      28.601   1.516  53.819  0.00  0.00    +0.000 A 
ATOM     32  C   UNL     1      27.768   2.234  52.965  0.00  0.00    +0.000 A 
ATOM     33  C   UNL     1      26.438   1.840  52.792  0.00  0.00    +0.000 A 
ENDBRANCH  24  28
ENDBRANCH  21  22
ENDBRANCH  20  21
ENDBRANCH  19  20
ENDBRANCH   5  19
TORSDOF 8
ENDMDL
