MODEL 1
REMARK VINA RESULT:    -7.590      0.000      0.000
REMARK INTER + INTRA:          -9.083
REMARK INTER:                  -8.699
REMARK INTRA:                  -0.384
REMARK UNBOUND:                -0.384
REMARK  Name = 
REMARK  3 active torsions:
REMARK  status: ('A' for Active; 'I' for Inactive)
REMARK    1  A    between atoms: C_4  and  N_5
REMARK    2  A    between atoms: C_7  and  S_8
REMARK    3  A    between atoms: S_8  and  C_10
REMARK                            x       y       z     vdW  Elec       q    Type
REMARK                         _______ _______ _______ _____ _____    ______ ____
ROOT
ATOM      1  N   UNL     1      29.450  -0.186  54.128  0.00  0.00    +0.000 N 
ATOM      2  C   UNL     1      28.248   0.273  53.634  0.00  0.00    +0.000 A 
ATOM      3  N   UNL     1      28.264   1.343  52.848  0.00  0.00    +0.000 NA
ATOM      4  C   UNL     1      27.083   1.760  52.369  0.00  0.00    +0.000 A 
ATOM      5  C   UNL     1      25.851   1.124  52.631  0.00  0.00    +0.000 A 
ATOM      6  C   UNL     1      24.545   1.430  52.117  0.00  0.00    +0.000 A 
ATOM      7  C   UNL     1      23.421   0.749  52.612  0.00  0.00    +0.000 A 
ATOM      8  C   UNL     1      23.569  -0.252  53.559  0.00  0.00    +0.000 A 
ATOM      9  C   UNL     1      24.846  -0.594  53.994  0.00  0.00    +0.000 A 
ATOM     10  C   UNL     1      25.978   0.064  53.542  0.00  0.00    +0.000 A 
ATOM     11  N   UNL     1      27.147  -0.355  54.028  0.00  0.00    +0.000 NA
ATOM     12  H   UNL     1      30.291   0.250  53.862  0.00  0.00    +0.000 HD
ATOM     13  H   UNL     1      29.467  -0.952  54.747  0.00  0.00    +0.000 HD
ENDROOT
BRANCH   4  14
ATOM     14  N   UNL     1      27.188   2.938  51.617  0.00  0.00    +0.000 N 
ATOM     15  H   UNL     1      26.557   3.109  50.881  0.00  0.00    +0.000 HD
ATOM     16  H   UNL     1      27.891   3.594  51.826  0.00  0.00    +0.000 HD
ENDBRANCH   4  14
BRANCH   6  17
ATOM     17  S   UNL     1      24.267   2.715  50.850  0.00  0.00    +0.000 S 
ATOM     18  O   UNL     1      24.304   4.098  51.600  0.00  0.00    +0.000 OA
BRANCH  17  19
ATOM     19  C   UNL     1      22.511   2.330  50.596  0.00  0.00    +0.000 A 
ATOM     20  C   UNL     1      22.154   1.335  49.679  0.00  0.00    +0.000 A 
ATOM     21  C   UNL     1      20.810   1.088  49.385  0.00  0.00    +0.000 A 
ATOM     22  C   UNL     1      19.808   1.835  50.005  0.00  0.00    +0.000 A 
ATOM     23 CL   UNL     1      18.170   1.493  49.575  0.00  0.00    +0.000 Cl
ATOM     24  C   UNL     1      20.155   2.831  50.924  0.00  0.00    +0.000 A 
ATOM     25 CL   UNL     1      18.966   3.803  51.721  0.00  0.00    +0.000 Cl
ATOM     26  C   UNL     1      21.502   3.081  51.215  0.00  0.00    +0.000 A 
ENDBRANCH  17  19
ENDBRANCH   6  17
TORSDOF 3
ENDMDL
MODEL 2
REMARK VINA RESULT:    -7.501      5.172      7.160
REMARK INTER + INTRA:          -8.981
REMARK INTER:                  -9.206
REMARK INTRA:                   0.225
REMARK UNBOUND:                -0.384
REMARK  Name = 
REMARK  3 active torsions:
REMARK  status: ('A' for Active; 'I' for Inactive)
REMARK    1  A    between atoms: C_4  and  N_5
REMARK    2  A    between atoms: C_7  and  S_8
REMARK    3  A    between atoms: S_8  and  C_10
REMARK                            x       y       z     vdW  Elec       q    Type
REMARK                         _______ _______ _______ _____ _____    ______ ____
ROOT
ATOM      1  N   UNL     1      17.033  -0.371  52.231  0.00  0.00    +0.000 N 
ATOM      2  C   UNL     1      18.385  -0.163  52.400  0.00  0.00    +0.000 A 
ATOM      3  N   UNL     1      18.983   0.729  51.620  0.00  0.00    +0.000 NA
ATOM      4  C   UNL     1      20.294   0.922  51.816  0.00  0.00    +0.000 A 
ATOM      5  C   UNL     1      21.056   0.259  52.801  0.00  0.00    +0.000 A 
ATOM      6  C   UNL     1      22.437   0.438  53.153  0.00  0.00    +0.000 A 
ATOM      7  C   UNL     1      23.039  -0.425  54.083  0.00  0.00    +0.000 A 
ATOM      8  C   UNL     1      22.297  -1.418  54.701  0.00  0.00    +0.000 A 
ATOM      9  C   UNL     1      20.941  -1.534  54.411  0.00  0.00    +0.000 A 
ATOM     10  C   UNL     1      20.313  -0.713  53.488  0.00  0.00    +0.000 A 
ATOM     11  N   UNL     1      19.009  -0.916  53.297  0.00  0.00    +0.000 NA
ATOM     12  H   UNL     1      16.531   0.166  51.576  0.00  0.00    +0.000 HD
ATOM     13  H   UNL     1      16.570  -1.056  52.765  0.00  0.00    +0.000 HD
ENDROOT
BRANCH   4  14
ATOM     14  N   UNL     1      20.854   1.820  50.897  0.00  0.00    +0.000 N 
ATOM     15  H   UNL     1      21.362   1.481  50.125  0.00  0.00    +0.000 HD
ATOM     16  H   UNL     1      20.738   2.790  51.023  0.00  0.00    +0.000 HD
ENDBRANCH   4  14
BRANCH   6  17
ATOM     17  S   UNL     1      23.479   1.737  52.405  0.00  0.00    +0.000 S 
ATOM     18  O   UNL     1      23.472   1.480  50.854  0.00  0.00    +0.000 OA
BRANCH  17  19
ATOM     19  C   UNL     1      25.053   1.071  53.016  0.00  0.00    +0.000 A 
ATOM     20  C   UNL     1      25.907   1.899  53.754  0.00  0.00    +0.000 A 
ATOM     21  C   UNL     1      27.169   1.448  54.149  0.00  0.00    +0.000 A 
ATOM     22  C   UNL     1      27.592   0.161  53.808  0.00  0.00    +0.000 A 
ATOM     23 CL   UNL     1      29.174  -0.321  54.308  0.00  0.00    +0.000 Cl
ATOM     24  C   UNL     1      26.745  -0.674  53.073  0.00  0.00    +0.000 A 
ATOM     25 CL   UNL     1      27.207  -2.274  52.607  0.00  0.00    +0.000 Cl
ATOM     26  C   UNL     1      25.481  -0.219  52.674  0.00  0.00    +0.000 A 
ENDBRANCH  17  19
ENDBRANCH   6  17
TORSDOF 3
ENDMDL
MODEL 3
REMARK VINA RESULT:    -7.491      5.242      7.271
REMARK INTER + INTRA:          -8.970
REMARK INTER:                  -8.863
REMARK INTRA:                  -0.106
REMARK UNBOUND:                -0.384
REMARK  Name = 
REMARK  3 active torsions:
REMARK  status: ('A' for Active; 'I' for Inactive)
REMARK    1  A    between atoms: C_4  and  N_5
REMARK    2  A    between atoms: C_7  and  S_8
REMARK    3  A    between atoms: S_8  and  C_10
REMARK                            x       y       z     vdW  Elec       q    Type
REMARK                         _______ _______ _______ _____ _____    ______ ____
ROOT
ATOM      1  N   UNL     1      22.927   8.235  49.024  0.00  0.00    +0.000 N 
ATOM      2  C   UNL     1      23.459   7.106  49.607  0.00  0.00    +0.000 A 
ATOM      3  N   UNL     1      22.886   6.645  50.713  0.00  0.00    +0.000 NA
ATOM      4  C   UNL     1      23.414   5.536  51.251  0.00  0.00    +0.000 A 
ATOM      5  C   UNL     1      24.509   4.833  50.706  0.00  0.00    +0.000 A 
ATOM      6  C   UNL     1      25.107   3.603  51.146  0.00  0.00    +0.000 A 
ATOM      7  C   UNL     1      26.283   3.140  50.535  0.00  0.00    +0.000 A 
ATOM      8  C   UNL     1      26.844   3.835  49.476  0.00  0.00    +0.000 A 
ATOM      9  C   UNL     1      26.215   4.984  49.006  0.00  0.00    +0.000 A 
ATOM     10  C   UNL     1      25.063   5.483  49.592  0.00  0.00    +0.000 A 
ATOM     11  N   UNL     1      24.548   6.589  49.052  0.00  0.00    +0.000 NA
ATOM     12  H   UNL     1      22.120   8.652  49.403  0.00  0.00    +0.000 HD
ATOM     13  H   UNL     1      23.355   8.625  48.227  0.00  0.00    +0.000 HD
ENDROOT
BRANCH   4  14
ATOM     14  N   UNL     1      22.797   5.171  52.455  0.00  0.00    +0.000 N 
ATOM     15  H   UNL     1      22.792   5.796  53.215  0.00  0.00    +0.000 HD
ATOM     16  H   UNL     1      22.367   4.289  52.540  0.00  0.00    +0.000 HD
ENDBRANCH   4  14
BRANCH   6  17
ATOM     17  S   UNL     1      24.417   2.613  52.516  0.00  0.00    +0.000 S 
ATOM     18  O   UNL     1      24.422   3.541  53.786  0.00  0.00    +0.000 OA
BRANCH  17  19
ATOM     19  C   UNL     1      25.860   1.524  52.686  0.00  0.00    +0.000 A 
ATOM     20  C   UNL     1      25.783   0.208  52.218  0.00  0.00    +0.000 A 
ATOM     21  C   UNL     1      26.838  -0.685  52.427  0.00  0.00    +0.000 A 
ATOM     22  C   UNL     1      27.983  -0.269  53.109  0.00  0.00    +0.000 A 
ATOM     23 CL   UNL     1      29.237  -1.432  53.354  0.00  0.00    +0.000 Cl
ATOM     24  C   UNL     1      28.070   1.045  53.579  0.00  0.00    +0.000 A 
ATOM     25 CL   UNL     1      29.452   1.625  54.442  0.00  0.00    +0.000 Cl
ATOM     26  C   UNL     1      27.010   1.937  53.372  0.00  0.00    +0.000 A 
ENDBRANCH  17  19
ENDBRANCH   6  17
TORSDOF 3
ENDMDL
MODEL 4
REMARK VINA RESULT:    -7.417      4.001      5.191
REMARK INTER + INTRA:          -8.884
REMARK INTER:                  -8.872
REMARK INTRA:                  -0.013
REMARK UNBOUND:                -0.384
REMARK  Name = 
REMARK  3 active torsions:
REMARK  status: ('A' for Active; 'I' for Inactive)
REMARK    1  A    between atoms: C_4  and  N_5
REMARK    2  A    between atoms: C_7  and  S_8
REMARK    3  A    between atoms: S_8  and  C_10
REMARK                            x       y       z     vdW  Elec       q    Type
REMARK                         _______ _______ _______ _____ _____    ______ ____
ROOT
ATOM      1  N   UNL     1      23.093  -1.834  55.891  0.00  0.00    +0.000 N 
ATOM      2  C   UNL     1      23.308  -0.981  54.831  0.00  0.00    +0.000 A 
ATOM      3  N   UNL     1      22.249  -0.510  54.182  0.00  0.00    +0.000 NA
ATOM      4  C   UNL     1      22.487   0.330  53.165  0.00  0.00    +0.000 A 
ATOM      5  C   UNL     1      23.774   0.752  52.767  0.00  0.00    +0.000 A 
ATOM      6  C   UNL     1      24.144   1.699  51.752  0.00  0.00    +0.000 A 
ATOM      7  C   UNL     1      25.498   1.877  51.423  0.00  0.00    +0.000 A 
ATOM      8  C   UNL     1      26.483   1.180  52.105  0.00  0.00    +0.000 A 
ATOM      9  C   UNL     1      26.118   0.323  53.139  0.00  0.00    +0.000 A 
ATOM     10  C   UNL     1      24.794   0.108  53.484  0.00  0.00    +0.000 A 
ATOM     11  N   UNL     1      24.568  -0.733  54.494  0.00  0.00    +0.000 NA
ATOM     12  H   UNL     1      22.174  -2.045  56.174  0.00  0.00    +0.000 HD
ATOM     13  H   UNL     1      23.858  -2.233  56.364  0.00  0.00    +0.000 HD
ENDROOT
BRANCH   4  14
ATOM     14  N   UNL     1      21.318   0.712  52.492  0.00  0.00    +0.000 N 
ATOM     15  H   UNL     1      21.310   0.758  51.509  0.00  0.00    +0.000 HD
ATOM     16  H   UNL     1      20.506   0.932  53.002  0.00  0.00    +0.000 HD
ENDBRANCH   4  14
BRANCH   6  17
ATOM     17  S   UNL     1      22.911   2.675  50.825  0.00  0.00    +0.000 S 
ATOM     18  O   UNL     1      22.863   2.071  49.373  0.00  0.00    +0.000 OA
BRANCH  17  19
ATOM     19  C   UNL     1      23.928   4.175  50.710  0.00  0.00    +0.000 A 
ATOM     20  C   UNL     1      23.591   5.291  51.483  0.00  0.00    +0.000 A 
ATOM     21  C   UNL     1      24.290   6.492  51.341  0.00  0.00    +0.000 A 
ATOM     22  C   UNL     1      25.335   6.590  50.421  0.00  0.00    +0.000 A 
ATOM     23 CL   UNL     1      26.139   8.113  50.280  0.00  0.00    +0.000 Cl
ATOM     24  C   UNL     1      25.681   5.479  49.645  0.00  0.00    +0.000 A 
ATOM     25 CL   UNL     1      26.956   5.532  48.478  0.00  0.00    +0.000 Cl
ATOM     26  C   UNL     1      24.976   4.276  49.786  0.00  0.00    +0.000 A 
ENDBRANCH  17  19
ENDBRANCH   6  17
TORSDOF 3
ENDMDL
MODEL 5
REMARK VINA RESULT:    -7.413      4.619      6.924
REMARK INTER + INTRA:          -8.880
REMARK INTER:                  -9.415
REMARK INTRA:                   0.535
REMARK UNBOUND:                -0.384
REMARK  Name = 
REMARK  3 active torsions:
REMARK  status: ('A' for Active; 'I' for Inactive)
REMARK    1  A    between atoms: C_4  and  N_5
REMARK    2  A    between atoms: C_7  and  S_8
REMARK    3  A    between atoms: S_8  and  C_10
REMARK                            x       y       z     vdW  Elec       q    Type
REMARK                         _______ _______ _______ _____ _____    ______ ____
ROOT
ATOM      1  N   UNL     1      18.874   3.343  52.128  0.00  0.00    +0.000 N 
ATOM      2  C   UNL     1      20.194   2.954  52.196  0.00  0.00    +0.000 A 
ATOM      3  N   UNL     1      21.099   3.701  51.575  0.00  0.00    +0.000 NA
ATOM      4  C   UNL     1      22.377   3.308  51.670  0.00  0.00    +0.000 A 
ATOM      5  C   UNL     1      22.808   2.178  52.399  0.00  0.00    +0.000 A 
ATOM      6  C   UNL     1      24.144   1.707  52.634  0.00  0.00    +0.000 A 
ATOM      7  C   UNL     1      24.348   0.477  53.281  0.00  0.00    +0.000 A 
ATOM      8  C   UNL     1      23.269  -0.262  53.738  0.00  0.00    +0.000 A 
ATOM      9  C   UNL     1      21.981   0.240  53.574  0.00  0.00    +0.000 A 
ATOM     10  C   UNL     1      21.737   1.441  52.927  0.00  0.00    +0.000 A 
ATOM     11  N   UNL     1      20.462   1.821  52.833  0.00  0.00    +0.000 NA
ATOM     12  H   UNL     1      18.629   4.177  51.665  0.00  0.00    +0.000 HD
ATOM     13  H   UNL     1      18.175   2.788  52.542  0.00  0.00    +0.000 HD
ENDROOT
BRANCH   4  14
ATOM     14  N   UNL     1      23.248   4.108  50.920  0.00  0.00    +0.000 N 
ATOM     15  H   UNL     1      24.213   4.104  51.117  0.00  0.00    +0.000 HD
ATOM     16  H   UNL     1      22.896   4.675  50.196  0.00  0.00    +0.000 HD
ENDBRANCH   4  14
BRANCH   6  17
ATOM     17  S   UNL     1      25.620   2.632  52.088  0.00  0.00    +0.000 S 
ATOM     18  O   UNL     1      25.664   2.521  50.520  0.00  0.00    +0.000 OA
BRANCH  17  19
ATOM     19  C   UNL     1      26.823   1.423  52.710  0.00  0.00    +0.000 A 
ATOM     20  C   UNL     1      27.969   1.875  53.372  0.00  0.00    +0.000 A 
ATOM     21  C   UNL     1      28.963   0.976  53.770  0.00  0.00    +0.000 A 
ATOM     22  C   UNL     1      28.819  -0.388  53.509  0.00  0.00    +0.000 A 
ATOM     23 CL   UNL     1      30.098  -1.438  54.007  0.00  0.00    +0.000 Cl
ATOM     24  C   UNL     1      27.675  -0.850  52.850  0.00  0.00    +0.000 A 
ATOM     25 CL   UNL     1      27.437  -2.523  52.484  0.00  0.00    +0.000 Cl
ATOM     26  C   UNL     1      26.683   0.053  52.448  0.00  0.00    +0.000 A 
ENDBRANCH  17  19
ENDBRANCH   6  17
TORSDOF 3
ENDMDL
MODEL 6
REMARK VINA RESULT:    -7.297      1.746      2.210
REMARK INTER + INTRA:          -8.747
REMARK INTER:                  -8.229
REMARK INTRA:                  -0.517
REMARK UNBOUND:                -0.384
REMARK  Name = 
REMARK  3 active torsions:
REMARK  status: ('A' for Active; 'I' for Inactive)
REMARK    1  A    between atoms: C_4  and  N_5
REMARK    2  A    between atoms: C_7  and  S_8
REMARK    3  A    between atoms: S_8  and  C_10
REMARK                            x       y       z     vdW  Elec       q    Type
REMARK                         _______ _______ _______ _____ _____    ______ ____
ROOT
ATOM      1  N   UNL     1      28.212  -1.808  53.266  0.00  0.00    +0.000 N 
ATOM      2  C   UNL     1      27.234  -0.843  53.166  0.00  0.00    +0.000 A 
ATOM      3  N   UNL     1      27.611   0.407  52.928  0.00  0.00    +0.000 NA
ATOM      4  C   UNL     1      26.638   1.323  52.821  0.00  0.00    +0.000 A 
ATOM      5  C   UNL     1      25.261   1.034  52.924  0.00  0.00    +0.000 A 
ATOM      6  C   UNL     1      24.135   1.910  52.752  0.00  0.00    +0.000 A 
ATOM      7  C   UNL     1      22.839   1.445  53.030  0.00  0.00    +0.000 A 
ATOM      8  C   UNL     1      22.634   0.132  53.423  0.00  0.00    +0.000 A 
ATOM      9  C   UNL     1      23.723  -0.729  53.512  0.00  0.00    +0.000 A 
ATOM     10  C   UNL     1      25.018  -0.307  53.261  0.00  0.00    +0.000 A 
ATOM     11  N   UNL     1      25.980  -1.224  53.375  0.00  0.00    +0.000 NA
ATOM     12  H   UNL     1      29.156  -1.570  53.119  0.00  0.00    +0.000 HD
ATOM     13  H   UNL     1      27.968  -2.737  53.483  0.00  0.00    +0.000 HD
ENDROOT
BRANCH   4  14
ATOM     14  N   UNL     1      27.133   2.623  52.650  0.00  0.00    +0.000 N 
ATOM     15  H   UNL     1      26.557   3.322  52.264  0.00  0.00    +0.000 HD
ATOM     16  H   UNL     1      28.056   2.838  52.916  0.00  0.00    +0.000 HD
ENDBRANCH   4  14
BRANCH   6  17
ATOM     17  S   UNL     1      24.316   3.645  52.213  0.00  0.00    +0.000 S 
ATOM     18  O   UNL     1      23.721   4.535  53.365  0.00  0.00    +0.000 OA
BRANCH  17  19
ATOM     19  C   UNL     1      23.034   3.563  50.930  0.00  0.00    +0.000 A 
ATOM     20  C   UNL     1      21.788   4.152  51.169  0.00  0.00    +0.000 A 
ATOM     21  C   UNL     1      20.748   4.017  50.245  0.00  0.00    +0.000 A 
ATOM     22  C   UNL     1      20.945   3.288  49.070  0.00  0.00    +0.000 A 
ATOM     23 CL   UNL     1      19.608   3.141  47.985  0.00  0.00    +0.000 Cl
ATOM     24  C   UNL     1      22.188   2.697  48.822  0.00  0.00    +0.000 A 
ATOM     25 CL   UNL     1      22.498   1.771  47.395  0.00  0.00    +0.000 Cl
ATOM     26  C   UNL     1      23.227   2.830  49.751  0.00  0.00    +0.000 A 
ENDBRANCH  17  19
ENDBRANCH   6  17
TORSDOF 3
ENDMDL
MODEL 7
REMARK VINA RESULT:    -7.251      4.935      6.355
REMARK INTER + INTRA:          -8.694
REMARK INTER:                  -8.174
REMARK INTRA:                  -0.521
REMARK UNBOUND:                -0.384
REMARK  Name = 
REMARK  3 active torsions:
REMARK  status: ('A' for Active; 'I' for Inactive)
REMARK    1  A    between atoms: C_4  and  N_5
REMARK    2  A    between atoms: C_7  and  S_8
REMARK    3  A    between atoms: S_8  and  C_10
REMARK                            x       y       z     vdW  Elec       q    Type
REMARK                         _______ _______ _______ _____ _____    ______ ____
ROOT
ATOM      1  N   UNL     1      17.590  -1.458  54.000  0.00  0.00    +0.000 N 
ATOM      2  C   UNL     1      18.525  -0.839  53.200  0.00  0.00    +0.000 A 
ATOM      3  N   UNL     1      18.135  -0.391  52.013  0.00  0.00    +0.000 NA
ATOM      4  C   UNL     1      19.062   0.220  51.262  0.00  0.00    +0.000 A 
ATOM      5  C   UNL     1      20.398   0.429  51.664  0.00  0.00    +0.000 A 
ATOM      6  C   UNL     1      21.450   1.131  50.984  0.00  0.00    +0.000 A 
ATOM      7  C   UNL     1      22.755   1.108  51.503  0.00  0.00    +0.000 A 
ATOM      8  C   UNL     1      23.025   0.453  52.694  0.00  0.00    +0.000 A 
ATOM      9  C   UNL     1      21.984  -0.158  53.385  0.00  0.00    +0.000 A 
ATOM     10  C   UNL     1      20.687  -0.172  52.899  0.00  0.00    +0.000 A 
ATOM     11  N   UNL     1      19.773  -0.787  53.651  0.00  0.00    +0.000 NA
ATOM     12  H   UNL     1      16.653  -1.519  53.705  0.00  0.00    +0.000 HD
ATOM     13  H   UNL     1      17.858  -1.838  54.868  0.00  0.00    +0.000 HD
ENDROOT
BRANCH   4  14
ATOM     14  N   UNL     1      18.580   0.587  49.998  0.00  0.00    +0.000 N 
ATOM     15  H   UNL     1      19.144   0.460  49.201  0.00  0.00    +0.000 HD
ATOM     16  H   UNL     1      17.679   0.971  49.907  0.00  0.00    +0.000 HD
ENDBRANCH   4  14
BRANCH   6  17
ATOM     17  S   UNL     1      21.175   2.040  49.425  0.00  0.00    +0.000 S 
ATOM     18  O   UNL     1      22.070   1.343  48.336  0.00  0.00    +0.000 OA
BRANCH  17  19
ATOM     19  C   UNL     1      22.074   3.533  49.932  0.00  0.00    +0.000 A 
ATOM     20  C   UNL     1      21.512   4.376  50.897  0.00  0.00    +0.000 A 
ATOM     21  C   UNL     1      22.130   5.584  51.233  0.00  0.00    +0.000 A 
ATOM     22  C   UNL     1      23.318   5.962  50.605  0.00  0.00    +0.000 A 
ATOM     23 CL   UNL     1      24.012   7.480  51.052  0.00  0.00    +0.000 Cl
ATOM     24  C   UNL     1      23.888   5.125  49.640  0.00  0.00    +0.000 A 
ATOM     25 CL   UNL     1      25.351   5.536  48.814  0.00  0.00    +0.000 Cl
ATOM     26  C   UNL     1      23.266   3.917  49.302  0.00  0.00    +0.000 A 
ENDBRANCH  17  19
ENDBRANCH   6  17
TORSDOF 3
ENDMDL
MODEL 8
REMARK VINA RESULT:    -7.165      4.224      6.650
REMARK INTER + INTRA:          -8.596
REMARK INTER:                  -7.913
REMARK INTRA:                  -0.683
REMARK UNBOUND:                -0.384
REMARK  Name = 
REMARK  3 active torsions:
REMARK  status: ('A' for Active; 'I' for Inactive)
REMARK    1  A    between atoms: C_4  and  N_5
REMARK    2  A    between atoms: C_7  and  S_8
REMARK    3  A    between atoms: S_8  and  C_10
REMARK                            x       y       z     vdW  Elec       q    Type
REMARK                         _______ _______ _______ _____ _____    ______ ____
ROOT
ATOM      1  N   UNL     1      17.938   3.338  51.772  0.00  0.00    +0.000 N 
ATOM      2  C   UNL     1      19.239   3.409  51.324  0.00  0.00    +0.000 A 
ATOM      3  N   UNL     1      20.098   4.152  52.012  0.00  0.00    +0.000 NA
ATOM      4  C   UNL     1      21.360   4.191  51.563  0.00  0.00    +0.000 A 
ATOM      5  C   UNL     1      21.823   3.483  50.434  0.00  0.00    +0.000 A 
ATOM      6  C   UNL     1      23.156   3.387  49.908  0.00  0.00    +0.000 A 
ATOM      7  C   UNL     1      23.380   2.731  48.686  0.00  0.00    +0.000 A 
ATOM      8  C   UNL     1      22.330   2.132  48.009  0.00  0.00    +0.000 A 
ATOM      9  C   UNL     1      21.055   2.163  48.566  0.00  0.00    +0.000 A 
ATOM     10  C   UNL     1      20.790   2.814  49.760  0.00  0.00    +0.000 A 
ATOM     11  N   UNL     1      19.530   2.773  50.196  0.00  0.00    +0.000 NA
ATOM     12  H   UNL     1      17.678   3.795  52.604  0.00  0.00    +0.000 HD
ATOM     13  H   UNL     1      17.268   2.830  51.260  0.00  0.00    +0.000 HD
ENDROOT
BRANCH   4  14
ATOM     14  N   UNL     1      22.172   5.060  52.304  0.00  0.00    +0.000 N 
ATOM     15  H   UNL     1      22.315   4.900  53.265  0.00  0.00    +0.000 HD
ATOM     16  H   UNL     1      22.601   5.828  51.863  0.00  0.00    +0.000 HD
ENDBRANCH   4  14
BRANCH   6  17
ATOM     17  S   UNL     1      24.598   4.126  50.749  0.00  0.00    +0.000 S 
ATOM     18  O   UNL     1      25.642   4.475  49.626  0.00  0.00    +0.000 OA
BRANCH  17  19
ATOM     19  C   UNL     1      25.172   2.577  51.503  0.00  0.00    +0.000 A 
ATOM     20  C   UNL     1      26.469   2.126  51.237  0.00  0.00    +0.000 A 
ATOM     21  C   UNL     1      26.905   0.888  51.718  0.00  0.00    +0.000 A 
ATOM     22  C   UNL     1      26.044   0.086  52.470  0.00  0.00    +0.000 A 
ATOM     23 CL   UNL     1      26.640  -1.443  53.009  0.00  0.00    +0.000 Cl
ATOM     24  C   UNL     1      24.746   0.529  52.742  0.00  0.00    +0.000 A 
ATOM     25 CL   UNL     1      23.623  -0.417  53.656  0.00  0.00    +0.000 Cl
ATOM     26  C   UNL     1      24.310   1.769  52.256  0.00  0.00    +0.000 A 
ENDBRANCH  17  19
ENDBRANCH   6  17
TORSDOF 3
ENDMDL
MODEL 9
REMARK VINA RESULT:    -7.107      2.063      3.109
REMARK INTER + INTRA:          -8.529
REMARK INTER:                  -8.358
REMARK INTRA:                  -0.172
REMARK UNBOUND:                -0.384
REMARK  Name = 
REMARK  3 active torsions:
REMARK  status: ('A' for Active; 'I' for Inactive)
REMARK    1  A    between atoms: C_4  and  N_5
REMARK    2  A    between atoms: C_7  and  S_8
REMARK    3  A    between atoms: S_8  and  C_10
REMARK                            x       y       z     vdW  Elec       q    Type
REMARK                         _______ _______ _______ _____ _____    ______ ____
ROOT
ATOM      1  N   UNL     1      29.343   0.935  54.279  0.00  0.00    +0.000 N 
ATOM      2  C   UNL     1      28.019   0.864  53.902  0.00  0.00    +0.000 A 
ATOM      3  N   UNL     1      27.217   0.054  54.583  0.00  0.00    +0.000 NA
ATOM      4  C   UNL     1      25.932   0.016  54.205  0.00  0.00    +0.000 A 
ATOM      5  C   UNL     1      25.389   0.792  53.158  0.00  0.00    +0.000 A 
ATOM      6  C   UNL     1      24.026   0.892  52.717  0.00  0.00    +0.000 A 
ATOM      7  C   UNL     1      23.717   1.628  51.562  0.00  0.00    +0.000 A 
ATOM      8  C   UNL     1      24.714   2.299  50.871  0.00  0.00    +0.000 A 
ATOM      9  C   UNL     1      26.019   2.259  51.350  0.00  0.00    +0.000 A 
ATOM     10  C   UNL     1      26.368   1.532  52.477  0.00  0.00    +0.000 A 
ATOM     11  N   UNL     1      27.650   1.572  52.842  0.00  0.00    +0.000 NA
ATOM     12  H   UNL     1      29.660   0.426  55.060  0.00  0.00    +0.000 HD
ATOM     13  H   UNL     1      29.971   1.494  53.768  0.00  0.00    +0.000 HD
ENDROOT
BRANCH   4  14
ATOM     14  N   UNL     1      25.182  -0.922  54.926  0.00  0.00    +0.000 N 
ATOM     15  H   UNL     1      24.974  -1.798  54.526  0.00  0.00    +0.000 HD
ATOM     16  H   UNL     1      24.863  -0.707  55.832  0.00  0.00    +0.000 HD
ENDBRANCH   4  14
BRANCH   6  17
ATOM     17  S   UNL     1      22.651   0.061  53.584  0.00  0.00    +0.000 S 
ATOM     18  O   UNL     1      22.605  -1.414  53.040  0.00  0.00    +0.000 OA
BRANCH  17  19
ATOM     19  C   UNL     1      21.331   0.956  52.716  0.00  0.00    +0.000 A 
ATOM     20  C   UNL     1      21.218   2.340  52.885  0.00  0.00    +0.000 A 
ATOM     21  C   UNL     1      20.152   3.041  52.314  0.00  0.00    +0.000 A 
ATOM     22  C   UNL     1      19.187   2.363  51.567  0.00  0.00    +0.000 A 
ATOM     23 CL   UNL     1      17.884   3.290  50.912  0.00  0.00    +0.000 Cl
ATOM     24  C   UNL     1      19.293   0.980  51.392  0.00  0.00    +0.000 A 
ATOM     25 CL   UNL     1      18.128   0.074  50.489  0.00  0.00    +0.000 Cl
ATOM     26  C   UNL     1      20.360   0.278  51.968  0.00  0.00    +0.000 A 
ENDBRANCH  17  19
ENDBRANCH   6  17
TORSDOF 3
ENDMDL
