MODEL 1
REMARK VINA RESULT:    -9.969      0.000      0.000
REMARK INTER + INTRA:         -12.514
REMARK INTER:                 -11.718
REMARK INTRA:                  -0.796
REMARK UNBOUND:                -0.796
REMARK  Name = 
REMARK  5 active torsions:
REMARK  status: ('A' for Active; 'I' for Inactive)
REMARK    1  A    between atoms: C_1  and  N_2
REMARK    2  A    between atoms: C_5  and  C_6
REMARK    3  A    between atoms: C_7  and  O_8
REMARK    4  A    between atoms: C_10  and  O_11
REMARK    5  A    between atoms: C_16  and  C_17
REMARK                            x       y       z     vdW  Elec       q    Type
REMARK                         _______ _______ _______ _____ _____    ______ ____
ROOT
ATOM      1  C   UNL     1      23.909  -0.349  54.017  0.00  0.00    +0.000 A 
ATOM      2  C   UNL     1      23.102  -1.123  54.870  0.00  0.00    +0.000 A 
ATOM      3  C   UNL     1      21.708  -1.061  54.803  0.00  0.00    +0.000 A 
ATOM      4  C   UNL     1      21.099  -0.211  53.881  0.00  0.00    +0.000 A 
ATOM      5  C   UNL     1      21.876   0.587  53.032  0.00  0.00    +0.000 A 
ATOM      6  C   UNL     1      21.269   1.520  52.058  0.00  0.00    +0.000 A 
ATOM      7  O   UNL     1      20.069   1.646  51.859  0.00  0.00    +0.000 OA
ATOM      8  C   UNL     1      22.196   2.353  51.285  0.00  0.00    +0.000 A 
ATOM      9  C   UNL     1      23.516   2.190  51.425  0.00  0.00    +0.000 A 
ATOM     10  O   UNL     1      24.091   1.274  52.287  0.00  0.00    +0.000 OA
ATOM     11  C   UNL     1      23.275   0.515  53.100  0.00  0.00    +0.000 A 
ENDROOT
BRANCH   1  16
ATOM     12  C   UNL     1      29.391   0.232  53.440  0.00  0.00    +0.000 C 
ATOM     13  N   UNL     1      28.289  -0.536  53.981  0.00  0.00    +0.000 N 
ATOM     14  C   UNL     1      27.596   0.070  55.104  0.00  0.00    +0.000 C 
ATOM     15  C   UNL     1      26.103   0.129  55.024  0.00  0.00    +0.000 C 
ATOM     16  C   UNL     1      25.382  -0.463  54.061  0.00  0.00    +0.000 C 
ATOM     17  C   UNL     1      26.028  -1.266  52.972  0.00  0.00    +0.000 C 
ATOM     18  C   UNL     1      27.560  -1.372  53.041  0.00  0.00    +0.000 C 
ATOM     19  H   UNL     1      28.735  -1.302  54.485  0.00  0.00    +0.000 HD
ENDBRANCH   1  16
BRANCH   9  20
ATOM     20  C   UNL     1      24.479   3.003  50.652  0.00  0.00    +0.000 A 
ATOM     21  C   UNL     1      24.054   4.148  49.960  0.00  0.00    +0.000 A 
ATOM     22  C   UNL     1      24.964   4.928  49.239  0.00  0.00    +0.000 A 
ATOM     23  C   UNL     1      26.311   4.572  49.208  0.00  0.00    +0.000 A 
ATOM     24 CL   UNL     1      27.437   5.534  48.335  0.00  0.00    +0.000 Cl
ATOM     25  C   UNL     1      26.754   3.441  49.885  0.00  0.00    +0.000 A 
ATOM     26  C   UNL     1      25.845   2.665  50.607  0.00  0.00    +0.000 A 
ENDBRANCH   9  20
BRANCH   2  27
ATOM     27  O   UNL     1      23.690  -1.958  55.783  0.00  0.00    +0.000 OA
ATOM     28  H   UNL     1      24.160  -1.600  56.509  0.00  0.00    +0.000 HD
ENDBRANCH   2  27
BRANCH   4  29
ATOM     29  O   UNL     1      19.736  -0.164  53.828  0.00  0.00    +0.000 OA
ATOM     30  H   UNL     1      19.276  -0.649  53.171  0.00  0.00    +0.000 HD
ENDBRANCH   4  29
TORSDOF 4
ENDMDL
MODEL 2
REMARK VINA RESULT:    -9.244      2.425      5.435
REMARK INTER + INTRA:         -11.662
REMARK INTER:                 -10.841
REMARK INTRA:                  -0.821
REMARK UNBOUND:                -0.796
REMARK  Name = 
REMARK  5 active torsions:
REMARK  status: ('A' for Active; 'I' for Inactive)
REMARK    1  A    between atoms: C_1  and  N_2
REMARK    2  A    between atoms: C_5  and  C_6
REMARK    3  A    between atoms: C_7  and  O_8
REMARK    4  A    between atoms: C_10  and  O_11
REMARK    5  A    between atoms: C_16  and  C_17
REMARK                            x       y       z     vdW  Elec       q    Type
REMARK                         _______ _______ _______ _____ _____    ______ ____
ROOT
ATOM      1  C   UNL     1      21.774   1.817  51.878  0.00  0.00    +0.000 A 
ATOM      2  C   UNL     1      20.376   1.897  51.732  0.00  0.00    +0.000 A 
ATOM      3  C   UNL     1      19.525   1.036  52.427  0.00  0.00    +0.000 A 
ATOM      4  C   UNL     1      20.063   0.070  53.275  0.00  0.00    +0.000 A 
ATOM      5  C   UNL     1      21.450  -0.048  53.426  0.00  0.00    +0.000 A 
ATOM      6  C   UNL     1      22.061  -1.076  54.296  0.00  0.00    +0.000 A 
ATOM      7  O   UNL     1      21.441  -1.864  54.995  0.00  0.00    +0.000 OA
ATOM      8  C   UNL     1      23.527  -1.140  54.303  0.00  0.00    +0.000 A 
ATOM      9  C   UNL     1      24.238  -0.246  53.608  0.00  0.00    +0.000 A 
ATOM     10  O   UNL     1      23.673   0.758  52.842  0.00  0.00    +0.000 OA
ATOM     11  C   UNL     1      22.300   0.824  52.730  0.00  0.00    +0.000 A 
ENDROOT
BRANCH   1  16
ATOM     12  C   UNL     1      26.016   4.715  49.798  0.00  0.00    +0.000 C 
ATOM     13  N   UNL     1      24.582   4.561  49.928  0.00  0.00    +0.000 N 
ATOM     14  C   UNL     1      24.000   3.461  49.178  0.00  0.00    +0.000 C 
ATOM     15  C   UNL     1      23.081   2.547  49.924  0.00  0.00    +0.000 C 
ATOM     16  C   UNL     1      22.662   2.769  51.180  0.00  0.00    +0.000 C 
ATOM     17  C   UNL     1      23.078   3.988  51.946  0.00  0.00    +0.000 C 
ATOM     18  C   UNL     1      24.000   4.964  51.197  0.00  0.00    +0.000 C 
ATOM     19  H   UNL     1      24.192   5.328  49.380  0.00  0.00    +0.000 HD
ENDBRANCH   1  16
BRANCH   9  20
ATOM     20  C   UNL     1      25.716  -0.274  53.602  0.00  0.00    +0.000 A 
ATOM     21  C   UNL     1      26.450   0.635  54.380  0.00  0.00    +0.000 A 
ATOM     22  C   UNL     1      27.848   0.604  54.389  0.00  0.00    +0.000 A 
ATOM     23  C   UNL     1      28.526  -0.341  53.621  0.00  0.00    +0.000 A 
ATOM     24 CL   UNL     1      30.244  -0.394  53.638  0.00  0.00    +0.000 Cl
ATOM     25  C   UNL     1      27.818  -1.250  52.842  0.00  0.00    +0.000 A 
ATOM     26  C   UNL     1      26.423  -1.220  52.837  0.00  0.00    +0.000 A 
ENDBRANCH   9  20
BRANCH   2  27
ATOM     27  O   UNL     1      19.838   2.840  50.897  0.00  0.00    +0.000 OA
ATOM     28  H   UNL     1      18.909   2.896  50.793  0.00  0.00    +0.000 HD
ENDBRANCH   2  27
BRANCH   4  29
ATOM     29  O   UNL     1      19.215  -0.763  53.947  0.00  0.00    +0.000 OA
ATOM     30  H   UNL     1      19.193  -1.676  53.736  0.00  0.00    +0.000 HD
ENDBRANCH   4  29
TORSDOF 4
ENDMDL
MODEL 3
REMARK VINA RESULT:    -9.231      1.635      2.470
REMARK INTER + INTRA:         -11.646
REMARK INTER:                 -10.875
REMARK INTRA:                  -0.772
REMARK UNBOUND:                -0.796
REMARK  Name = 
REMARK  5 active torsions:
REMARK  status: ('A' for Active; 'I' for Inactive)
REMARK    1  A    between atoms: C_1  and  N_2
REMARK    2  A    between atoms: C_5  and  C_6
REMARK    3  A    between atoms: C_7  and  O_8
REMARK    4  A    between atoms: C_10  and  O_11
REMARK    5  A    between atoms: C_16  and  C_17
REMARK                            x       y       z     vdW  Elec       q    Type
REMARK                         _______ _______ _______ _____ _____    ______ ____
ROOT
ATOM      1  C   UNL     1      23.990   0.985  52.242  0.00  0.00    +0.000 A 
ATOM      2  C   UNL     1      23.004   0.170  52.829  0.00  0.00    +0.000 A 
ATOM      3  C   UNL     1      21.681   0.199  52.382  0.00  0.00    +0.000 A 
ATOM      4  C   UNL     1      21.322   1.055  51.343  0.00  0.00    +0.000 A 
ATOM      5  C   UNL     1      22.276   1.894  50.753  0.00  0.00    +0.000 A 
ATOM      6  C   UNL     1      21.931   2.834  49.666  0.00  0.00    +0.000 A 
ATOM      7  O   UNL     1      20.828   2.935  49.147  0.00  0.00    +0.000 OA
ATOM      8  C   UNL     1      23.008   3.710  49.191  0.00  0.00    +0.000 A 
ATOM      9  C   UNL     1      24.243   3.577  49.685  0.00  0.00    +0.000 A 
ATOM     10  O   UNL     1      24.588   2.655  50.657  0.00  0.00    +0.000 OA
ATOM     11  C   UNL     1      23.605   1.855  51.202  0.00  0.00    +0.000 A 
ENDROOT
BRANCH   1  16
ATOM     12  C   UNL     1      28.778   0.060  54.877  0.00  0.00    +0.000 C 
ATOM     13  N   UNL     1      28.090   0.678  53.763  0.00  0.00    +0.000 N 
ATOM     14  C   UNL     1      27.628  -0.232  52.730  0.00  0.00    +0.000 C 
ATOM     15  C   UNL     1      26.205  -0.088  52.292  0.00  0.00    +0.000 C 
ATOM     16  C   UNL     1      25.397   0.907  52.687  0.00  0.00    +0.000 C 
ATOM     17  C   UNL     1      25.872   1.990  53.609  0.00  0.00    +0.000 C 
ATOM     18  C   UNL     1      27.340   1.888  54.056  0.00  0.00    +0.000 C 
ATOM     19  H   UNL     1      28.830   1.135  53.228  0.00  0.00    +0.000 HD
ENDBRANCH   1  16
BRANCH   9  20
ATOM     20  C   UNL     1      25.355   4.433  49.220  0.00  0.00    +0.000 A 
ATOM     21  C   UNL     1      25.117   5.754  48.811  0.00  0.00    +0.000 A 
ATOM     22  C   UNL     1      26.168   6.572  48.383  0.00  0.00    +0.000 A 
ATOM     23  C   UNL     1      27.470   6.076  48.366  0.00  0.00    +0.000 A 
ATOM     24 CL   UNL     1      28.768   7.081  47.856  0.00  0.00    +0.000 Cl
ATOM     25  C   UNL     1      27.729   4.770  48.767  0.00  0.00    +0.000 A 
ATOM     26  C   UNL     1      26.679   3.956  49.196  0.00  0.00    +0.000 A 
ENDBRANCH   9  20
BRANCH   2  27
ATOM     27  O   UNL     1      23.345  -0.671  53.853  0.00  0.00    +0.000 OA
ATOM     28  H   UNL     1      23.531  -0.324  54.703  0.00  0.00    +0.000 HD
ENDBRANCH   2  27
BRANCH   4  29
ATOM     29  O   UNL     1      20.025   1.069  50.919  0.00  0.00    +0.000 OA
ATOM     30  H   UNL     1      19.352   0.702  51.458  0.00  0.00    +0.000 HD
ENDBRANCH   4  29
TORSDOF 4
ENDMDL
MODEL 4
REMARK VINA RESULT:    -9.104      2.500      5.033
REMARK INTER + INTRA:         -11.497
REMARK INTER:                 -10.651
REMARK INTRA:                  -0.846
REMARK UNBOUND:                -0.796
REMARK  Name = 
REMARK  5 active torsions:
REMARK  status: ('A' for Active; 'I' for Inactive)
REMARK    1  A    between atoms: C_1  and  N_2
REMARK    2  A    between atoms: C_5  and  C_6
REMARK    3  A    between atoms: C_7  and  O_8
REMARK    4  A    between atoms: C_10  and  O_11
REMARK    5  A    between atoms: C_16  and  C_17
REMARK                            x       y       z     vdW  Elec       q    Type
REMARK                         _______ _______ _______ _____ _____    ______ ____
ROOT
ATOM      1  C   UNL     1      22.153   0.132  53.373  0.00  0.00    +0.000 A 
ATOM      2  C   UNL     1      21.779  -0.907  54.245  0.00  0.00    +0.000 A 
ATOM      3  C   UNL     1      22.709  -1.506  55.098  0.00  0.00    +0.000 A 
ATOM      4  C   UNL     1      24.035  -1.077  55.085  0.00  0.00    +0.000 A 
ATOM      5  C   UNL     1      24.441  -0.059  54.213  0.00  0.00    +0.000 A 
ATOM      6  C   UNL     1      25.844   0.407  54.150  0.00  0.00    +0.000 A 
ATOM      7  O   UNL     1      26.750   0.007  54.866  0.00  0.00    +0.000 OA
ATOM      8  C   UNL     1      26.149   1.425  53.139  0.00  0.00    +0.000 A 
ATOM      9  C   UNL     1      25.168   1.937  52.388  0.00  0.00    +0.000 A 
ATOM     10  O   UNL     1      23.843   1.552  52.487  0.00  0.00    +0.000 OA
ATOM     11  C   UNL     1      23.502   0.543  53.363  0.00  0.00    +0.000 A 
ENDROOT
BRANCH   1  16
ATOM     12  C   UNL     1      17.610   1.774  50.654  0.00  0.00    +0.000 C 
ATOM     13  N   UNL     1      19.034   1.926  50.869  0.00  0.00    +0.000 N 
ATOM     14  C   UNL     1      19.414   2.558  52.120  0.00  0.00    +0.000 C 
ATOM     15  C   UNL     1      20.459   1.864  52.936  0.00  0.00    +0.000 C 
ATOM     16  C   UNL     1      21.150   0.794  52.513  0.00  0.00    +0.000 C 
ATOM     17  C   UNL     1      20.937   0.205  51.151  0.00  0.00    +0.000 C 
ATOM     18  C   UNL     1      19.890   0.913  50.275  0.00  0.00    +0.000 C 
ATOM     19  H   UNL     1      19.307   2.682  50.240  0.00  0.00    +0.000 HD
ENDBRANCH   1  16
BRANCH   9  20
ATOM     20  C   UNL     1      25.439   2.974  51.369  0.00  0.00    +0.000 A 
ATOM     21  C   UNL     1      24.604   4.095  51.252  0.00  0.00    +0.000 A 
ATOM     22  C   UNL     1      24.863   5.085  50.299  0.00  0.00    +0.000 A 
ATOM     23  C   UNL     1      25.966   4.963  49.455  0.00  0.00    +0.000 A 
ATOM     24 CL   UNL     1      26.299   6.183  48.290  0.00  0.00    +0.000 Cl
ATOM     25  C   UNL     1      26.806   3.859  49.552  0.00  0.00    +0.000 A 
ATOM     26  C   UNL     1      26.547   2.874  50.507  0.00  0.00    +0.000 A 
ENDBRANCH   9  20
BRANCH   2  27
ATOM     27  O   UNL     1      20.480  -1.339  54.263  0.00  0.00    +0.000 OA
ATOM     28  H   UNL     1      20.238  -2.113  53.795  0.00  0.00    +0.000 HD
ENDBRANCH   2  27
BRANCH   4  29
ATOM     29  O   UNL     1      24.929  -1.673  55.926  0.00  0.00    +0.000 OA
ATOM     30  H   UNL     1      24.628  -2.279  56.575  0.00  0.00    +0.000 HD
ENDBRANCH   4  29
TORSDOF 4
ENDMDL
MODEL 5
REMARK VINA RESULT:    -8.861      3.775      7.283
REMARK INTER + INTRA:         -11.211
REMARK INTER:                 -10.328
REMARK INTRA:                  -0.882
REMARK UNBOUND:                -0.796
REMARK  Name = 
REMARK  5 active torsions:
REMARK  status: ('A' for Active; 'I' for Inactive)
REMARK    1  A    between atoms: C_1  and  N_2
REMARK    2  A    between atoms: C_5  and  C_6
REMARK    3  A    between atoms: C_7  and  O_8
REMARK    4  A    between atoms: C_10  and  O_11
REMARK    5  A    between atoms: C_16  and  C_17
REMARK                            x       y       z     vdW  Elec       q    Type
REMARK                         _______ _______ _______ _____ _____    ______ ____
ROOT
ATOM      1  C   UNL     1      24.764   2.659  51.056  0.00  0.00    +0.000 A 
ATOM      2  C   UNL     1      26.120   3.033  51.075  0.00  0.00    +0.000 A 
ATOM      3  C   UNL     1      27.058   2.316  51.821  0.00  0.00    +0.000 A 
ATOM      4  C   UNL     1      26.649   1.214  52.569  0.00  0.00    +0.000 A 
ATOM      5  C   UNL     1      25.302   0.829  52.586  0.00  0.00    +0.000 A 
ATOM      6  C   UNL     1      24.823  -0.318  53.387  0.00  0.00    +0.000 A 
ATOM      7  O   UNL     1      25.534  -1.060  54.049  0.00  0.00    +0.000 OA
ATOM      8  C   UNL     1      23.376  -0.564  53.376  0.00  0.00    +0.000 A 
ATOM      9  C   UNL     1      22.577   0.182  52.607  0.00  0.00    +0.000 A 
ATOM     10  O   UNL     1      23.027   1.216  51.805  0.00  0.00    +0.000 OA
ATOM     11  C   UNL     1      24.366   1.550  51.830  0.00  0.00    +0.000 A 
ENDROOT
BRANCH   1  16
ATOM     12  C   UNL     1      22.104   6.127  47.646  0.00  0.00    +0.000 C 
ATOM     13  N   UNL     1      22.030   5.000  48.553  0.00  0.00    +0.000 N 
ATOM     14  C   UNL     1      22.589   3.756  48.053  0.00  0.00    +0.000 C 
ATOM     15  C   UNL     1      23.543   3.036  48.952  0.00  0.00    +0.000 C 
ATOM     16  C   UNL     1      23.790   3.393  50.221  0.00  0.00    +0.000 C 
ATOM     17  C   UNL     1      23.101   4.561  50.860  0.00  0.00    +0.000 C 
ATOM     18  C   UNL     1      22.091   5.306  49.973  0.00  0.00    +0.000 C 
ATOM     19  H   UNL     1      21.046   4.727  48.542  0.00  0.00    +0.000 HD
ENDBRANCH   1  16
BRANCH   9  20
ATOM     20  C   UNL     1      21.118  -0.047  52.562  0.00  0.00    +0.000 A 
ATOM     21  C   UNL     1      20.350   0.445  51.495  0.00  0.00    +0.000 A 
ATOM     22  C   UNL     1      18.970   0.219  51.441  0.00  0.00    +0.000 A 
ATOM     23  C   UNL     1      18.346  -0.506  52.455  0.00  0.00    +0.000 A 
ATOM     24 CL   UNL     1      16.654  -0.799  52.388  0.00  0.00    +0.000 Cl
ATOM     25  C   UNL     1      19.088  -1.001  53.523  0.00  0.00    +0.000 A 
ATOM     26  C   UNL     1      20.464  -0.777  53.572  0.00  0.00    +0.000 A 
ENDBRANCH   9  20
BRANCH   2  27
ATOM     27  O   UNL     1      26.533   4.116  50.347  0.00  0.00    +0.000 OA
ATOM     28  H   UNL     1      27.225   4.025  49.723  0.00  0.00    +0.000 HD
ENDBRANCH   2  27
BRANCH   4  29
ATOM     29  O   UNL     1      27.580   0.524  53.291  0.00  0.00    +0.000 OA
ATOM     30  H   UNL     1      28.467   0.824  53.317  0.00  0.00    +0.000 HD
ENDBRANCH   4  29
TORSDOF 4
ENDMDL
MODEL 6
REMARK VINA RESULT:    -8.851      2.782      5.480
REMARK INTER + INTRA:         -11.200
REMARK INTER:                 -10.285
REMARK INTRA:                  -0.915
REMARK UNBOUND:                -0.796
REMARK  Name = 
REMARK  5 active torsions:
REMARK  status: ('A' for Active; 'I' for Inactive)
REMARK    1  A    between atoms: C_1  and  N_2
REMARK    2  A    between atoms: C_5  and  C_6
REMARK    3  A    between atoms: C_7  and  O_8
REMARK    4  A    between atoms: C_10  and  O_11
REMARK    5  A    between atoms: C_16  and  C_17
REMARK                            x       y       z     vdW  Elec       q    Type
REMARK                         _______ _______ _______ _____ _____    ______ ____
ROOT
ATOM      1  C   UNL     1      20.572   0.427  52.511  0.00  0.00    +0.000 A 
ATOM      2  C   UNL     1      19.766  -0.482  53.221  0.00  0.00    +0.000 A 
ATOM      3  C   UNL     1      20.314  -1.347  54.171  0.00  0.00    +0.000 A 
ATOM      4  C   UNL     1      21.685  -1.321  54.419  0.00  0.00    +0.000 A 
ATOM      5  C   UNL     1      22.516  -0.441  53.713  0.00  0.00    +0.000 A 
ATOM      6  C   UNL     1      23.979  -0.401  53.928  0.00  0.00    +0.000 A 
ATOM      7  O   UNL     1      24.587  -1.065  54.755  0.00  0.00    +0.000 OA
ATOM      8  C   UNL     1      24.741   0.511  53.068  0.00  0.00    +0.000 A 
ATOM      9  C   UNL     1      24.101   1.305  52.203  0.00  0.00    +0.000 A 
ATOM     10  O   UNL     1      22.727   1.319  52.042  0.00  0.00    +0.000 OA
ATOM     11  C   UNL     1      21.959   0.429  52.765  0.00  0.00    +0.000 A 
ENDROOT
BRANCH   1  16
ATOM     12  C   UNL     1      19.511   4.369  48.762  0.00  0.00    +0.000 C 
ATOM     13  N   UNL     1      18.993   3.348  49.648  0.00  0.00    +0.000 N 
ATOM     14  C   UNL     1      19.233   1.977  49.231  0.00  0.00    +0.000 C 
ATOM     15  C   UNL     1      19.809   1.051  50.256  0.00  0.00    +0.000 C 
ATOM     16  C   UNL     1      19.974   1.374  51.548  0.00  0.00    +0.000 C 
ATOM     17  C   UNL     1      19.569   2.714  52.084  0.00  0.00    +0.000 C 
ATOM     18  C   UNL     1      18.947   3.680  51.062  0.00  0.00    +0.000 C 
ATOM     19  H   UNL     1      17.984   3.367  49.498  0.00  0.00    +0.000 HD
ENDBRANCH   1  16
BRANCH   9  20
ATOM     20  C   UNL     1      24.836   2.245  51.330  0.00  0.00    +0.000 A 
ATOM     21  C   UNL     1      26.236   2.325  51.385  0.00  0.00    +0.000 A 
ATOM     22  C   UNL     1      26.937   3.203  50.552  0.00  0.00    +0.000 A 
ATOM     23  C   UNL     1      26.242   4.008  49.651  0.00  0.00    +0.000 A 
ATOM     24 CL   UNL     1      27.097   5.079  48.614  0.00  0.00    +0.000 Cl
ATOM     25  C   UNL     1      24.854   3.946  49.581  0.00  0.00    +0.000 A 
ATOM     26  C   UNL     1      24.157   3.067  50.411  0.00  0.00    +0.000 A 
ENDBRANCH   9  20
BRANCH   2  27
ATOM     27  O   UNL     1      18.419  -0.519  52.983  0.00  0.00    +0.000 OA
ATOM     28  H   UNL     1      18.097  -0.459  52.105  0.00  0.00    +0.000 HD
ENDBRANCH   2  27
BRANCH   4  29
ATOM     29  O   UNL     1      22.203  -2.173  55.351  0.00  0.00    +0.000 OA
ATOM     30  H   UNL     1      22.189  -1.937  56.258  0.00  0.00    +0.000 HD
ENDBRANCH   4  29
TORSDOF 4
ENDMDL
MODEL 7
REMARK VINA RESULT:    -8.467      3.711      6.857
REMARK INTER + INTRA:         -10.749
REMARK INTER:                  -9.858
REMARK INTRA:                  -0.891
REMARK UNBOUND:                -0.796
REMARK  Name = 
REMARK  5 active torsions:
REMARK  status: ('A' for Active; 'I' for Inactive)
REMARK    1  A    between atoms: C_1  and  N_2
REMARK    2  A    between atoms: C_5  and  C_6
REMARK    3  A    between atoms: C_7  and  O_8
REMARK    4  A    between atoms: C_10  and  O_11
REMARK    5  A    between atoms: C_16  and  C_17
REMARK                            x       y       z     vdW  Elec       q    Type
REMARK                         _______ _______ _______ _____ _____    ______ ____
ROOT
ATOM      1  C   UNL     1      23.966   1.600  52.582  0.00  0.00    +0.000 A 
ATOM      2  C   UNL     1      25.291   1.701  53.044  0.00  0.00    +0.000 A 
ATOM      3  C   UNL     1      25.790   0.824  54.009  0.00  0.00    +0.000 A 
ATOM      4  C   UNL     1      24.963  -0.166  54.536  0.00  0.00    +0.000 A 
ATOM      5  C   UNL     1      23.633  -0.279  54.111  0.00  0.00    +0.000 A 
ATOM      6  C   UNL     1      22.716  -1.299  54.663  0.00  0.00    +0.000 A 
ATOM      7  O   UNL     1      23.026  -2.157  55.477  0.00  0.00    +0.000 OA
ATOM      8  C   UNL     1      21.329  -1.257  54.188  0.00  0.00    +0.000 A 
ATOM      9  C   UNL     1      20.972  -0.379  53.245  0.00  0.00    +0.000 A 
ATOM     10  O   UNL     1      21.840   0.536  52.677  0.00  0.00    +0.000 OA
ATOM     11  C   UNL     1      23.140   0.601  53.137  0.00  0.00    +0.000 A 
ENDROOT
BRANCH   1  16
ATOM     12  C   UNL     1      23.241   5.462  48.673  0.00  0.00    +0.000 C 
ATOM     13  N   UNL     1      22.665   4.395  49.465  0.00  0.00    +0.000 N 
ATOM     14  C   UNL     1      23.087   3.053  49.108  0.00  0.00    +0.000 C 
ATOM     15  C   UNL     1      23.553   2.172  50.224  0.00  0.00    +0.000 C 
ATOM     16  C   UNL     1      23.465   2.499  51.522  0.00  0.00    +0.000 C 
ATOM     17  C   UNL     1      22.864   3.798  51.969  0.00  0.00    +0.000 C 
ATOM     18  C   UNL     1      22.348   4.714  50.848  0.00  0.00    +0.000 C 
ATOM     19  H   UNL     1      21.699   4.331  49.144  0.00  0.00    +0.000 HD
ENDBRANCH   1  16
BRANCH   9  20
ATOM     20  C   UNL     1      19.586  -0.318  52.733  0.00  0.00    +0.000 A 
ATOM     21  C   UNL     1      19.268   0.481  51.624  0.00  0.00    +0.000 A 
ATOM     22  C   UNL     1      17.961   0.532  51.128  0.00  0.00    +0.000 A 
ATOM     23  C   UNL     1      16.959  -0.223  51.736  0.00  0.00    +0.000 A 
ATOM     24 CL   UNL     1      15.354  -0.177  51.124  0.00  0.00    +0.000 Cl
ATOM     25  C   UNL     1      17.252  -1.021  52.837  0.00  0.00    +0.000 A 
ATOM     26  C   UNL     1      18.557  -1.072  53.329  0.00  0.00    +0.000 A 
ENDBRANCH   9  20
BRANCH   2  27
ATOM     27  O   UNL     1      26.111   2.673  52.537  0.00  0.00    +0.000 OA
ATOM     28  H   UNL     1      26.043   3.553  52.850  0.00  0.00    +0.000 HD
ENDBRANCH   2  27
BRANCH   4  29
ATOM     29  O   UNL     1      25.468  -1.015  55.478  0.00  0.00    +0.000 OA
ATOM     30  H   UNL     1      26.247  -1.503  55.298  0.00  0.00    +0.000 HD
ENDBRANCH   4  29
TORSDOF 4
ENDMDL
MODEL 8
REMARK VINA RESULT:    -8.421      3.374      6.000
REMARK INTER + INTRA:         -10.694
REMARK INTER:                  -9.857
REMARK INTRA:                  -0.837
REMARK UNBOUND:                -0.796
REMARK  Name = 
REMARK  5 active torsions:
REMARK  status: ('A' for Active; 'I' for Inactive)
REMARK    1  A    between atoms: C_1  and  N_2
REMARK    2  A    between atoms: C_5  and  C_6
REMARK    3  A    between atoms: C_7  and  O_8
REMARK    4  A    between atoms: C_10  and  O_11
REMARK    5  A    between atoms: C_16  and  C_17
REMARK                            x       y       z     vdW  Elec       q    Type
REMARK                         _______ _______ _______ _____ _____    ______ ____
ROOT
ATOM      1  C   UNL     1      25.030   2.883  51.000  0.00  0.00    +0.000 A 
ATOM      2  C   UNL     1      25.889   3.761  50.313  0.00  0.00    +0.000 A 
ATOM      3  C   UNL     1      25.395   4.677  49.382  0.00  0.00    +0.000 A 
ATOM      4  C   UNL     1      24.027   4.721  49.116  0.00  0.00    +0.000 A 
ATOM      5  C   UNL     1      23.150   3.846  49.768  0.00  0.00    +0.000 A 
ATOM      6  C   UNL     1      21.696   3.844  49.495  0.00  0.00    +0.000 A 
ATOM      7  O   UNL     1      21.121   4.617  48.742  0.00  0.00    +0.000 OA
ATOM      8  C   UNL     1      20.902   2.824  50.189  0.00  0.00    +0.000 A 
ATOM      9  C   UNL     1      21.486   2.011  51.074  0.00  0.00    +0.000 A 
ATOM     10  O   UNL     1      22.835   2.049  51.382  0.00  0.00    +0.000 OA
ATOM     11  C   UNL     1      23.651   2.933  50.706  0.00  0.00    +0.000 A 
ENDROOT
BRANCH   1  16
ATOM     12  C   UNL     1      28.085   0.011  54.624  0.00  0.00    +0.000 C 
ATOM     13  N   UNL     1      26.804   0.197  53.976  0.00  0.00    +0.000 N 
ATOM     14  C   UNL     1      26.049   1.361  54.405  0.00  0.00    +0.000 C 
ATOM     15  C   UNL     1      25.508   2.249  53.329  0.00  0.00    +0.000 C 
ATOM     16  C   UNL     1      25.557   1.955  52.021  0.00  0.00    +0.000 C 
ATOM     17  C   UNL     1      26.158   0.675  51.522  0.00  0.00    +0.000 C 
ATOM     18  C   UNL     1      26.697  -0.274  52.605  0.00  0.00    +0.000 C 
ATOM     19  H   UNL     1      26.204  -0.520  54.385  0.00  0.00    +0.000 HD
ENDBRANCH   1  16
BRANCH   9  20
ATOM     20  C   UNL     1      20.714   0.980  51.800  0.00  0.00    +0.000 A 
ATOM     21  C   UNL     1      19.410   0.652  51.402  0.00  0.00    +0.000 A 
ATOM     22  C   UNL     1      18.680  -0.332  52.078  0.00  0.00    +0.000 A 
ATOM     23  C   UNL     1      19.253  -1.001  53.158  0.00  0.00    +0.000 A 
ATOM     24 CL   UNL     1      18.368  -2.221  53.985  0.00  0.00    +0.000 Cl
ATOM     25  C   UNL     1      20.544  -0.690  53.571  0.00  0.00    +0.000 A 
ATOM     26  C   UNL     1      21.271   0.289  52.893  0.00  0.00    +0.000 A 
ENDBRANCH   9  20
BRANCH   2  27
ATOM     27  O   UNL     1      27.234   3.723  50.564  0.00  0.00    +0.000 OA
ATOM     28  H   UNL     1      27.808   4.325  50.133  0.00  0.00    +0.000 HD
ENDBRANCH   2  27
BRANCH   4  29
ATOM     29  O   UNL     1      23.563   5.624  48.203  0.00  0.00    +0.000 OA
ATOM     30  H   UNL     1      24.112   6.328  47.920  0.00  0.00    +0.000 HD
ENDBRANCH   4  29
TORSDOF 4
ENDMDL
MODEL 9
REMARK VINA RESULT:    -8.207      2.995      5.604
REMARK INTER + INTRA:         -10.443
REMARK INTER:                  -9.625
REMARK INTRA:                  -0.818
REMARK UNBOUND:                -0.796
REMARK  Name = 
REMARK  5 active torsions:
REMARK  status: ('A' for Active; 'I' for Inactive)
REMARK    1  A    between atoms: C_1  and  N_2
REMARK    2  A    between atoms: C_5  and  C_6
REMARK    3  A    between atoms: C_7  and  O_8
REMARK    4  A    between atoms: C_10  and  O_11
REMARK    5  A    between atoms: C_16  and  C_17
REMARK                            x       y       z     vdW  Elec       q    Type
REMARK                         _______ _______ _______ _____ _____    ______ ____
ROOT
ATOM      1  C   UNL     1      21.743   1.369  51.232  0.00  0.00    +0.000 A 
ATOM      2  C   UNL     1      21.072   0.337  51.915  0.00  0.00    +0.000 A 
ATOM      3  C   UNL     1      21.702  -0.389  52.928  0.00  0.00    +0.000 A 
ATOM      4  C   UNL     1      23.022  -0.097  53.269  0.00  0.00    +0.000 A 
ATOM      5  C   UNL     1      23.722   0.911  52.593  0.00  0.00    +0.000 A 
ATOM      6  C   UNL     1      25.130   1.233  52.907  0.00  0.00    +0.000 A 
ATOM      7  O   UNL     1      25.790   0.713  53.795  0.00  0.00    +0.000 OA
ATOM      8  C   UNL     1      25.768   2.257  52.071  0.00  0.00    +0.000 A 
ATOM      9  C   UNL     1      25.056   2.898  51.139  0.00  0.00    +0.000 A 
ATOM     10  O   UNL     1      23.719   2.646  50.884  0.00  0.00    +0.000 OA
ATOM     11  C   UNL     1      23.082   1.640  51.581  0.00  0.00    +0.000 A 
ENDROOT
BRANCH   1  16
ATOM     12  C   UNL     1      18.217   3.531  47.542  0.00  0.00    +0.000 C 
ATOM     13  N   UNL     1      19.528   3.570  48.155  0.00  0.00    +0.000 N 
ATOM     14  C   UNL     1      19.568   4.068  49.518  0.00  0.00    +0.000 C 
ATOM     15  C   UNL     1      20.312   3.241  50.518  0.00  0.00    +0.000 C 
ATOM     16  C   UNL     1      21.049   2.166  50.199  0.00  0.00    +0.000 C 
ATOM     17  C   UNL     1      21.203   1.708  48.780  0.00  0.00    +0.000 C 
ATOM     18  C   UNL     1      20.474   2.554  47.724  0.00  0.00    +0.000 C 
ATOM     19  H   UNL     1      19.998   4.356  47.703  0.00  0.00    +0.000 HD
ENDBRANCH   1  16
BRANCH   9  20
ATOM     20  C   UNL     1      25.663   3.943  50.289  0.00  0.00    +0.000 A 
ATOM     21  C   UNL     1      25.103   5.229  50.228  0.00  0.00    +0.000 A 
ATOM     22  C   UNL     1      25.681   6.225  49.435  0.00  0.00    +0.000 A 
ATOM     23  C   UNL     1      26.831   5.945  48.698  0.00  0.00    +0.000 A 
ATOM     24 CL   UNL     1      27.556   7.169  47.733  0.00  0.00    +0.000 Cl
ATOM     25  C   UNL     1      27.402   4.678  48.743  0.00  0.00    +0.000 A 
ATOM     26  C   UNL     1      26.825   3.686  49.537  0.00  0.00    +0.000 A 
ENDBRANCH   9  20
BRANCH   2  27
ATOM     27  O   UNL     1      19.777   0.040  51.586  0.00  0.00    +0.000 OA
ATOM     28  H   UNL     1      19.357  -0.705  51.967  0.00  0.00    +0.000 HD
ENDBRANCH   2  27
BRANCH   4  29
ATOM     29  O   UNL     1      23.620  -0.817  54.262  0.00  0.00    +0.000 OA
ATOM     30  H   UNL     1      24.540  -0.992  54.223  0.00  0.00    +0.000 HD
ENDBRANCH   4  29
TORSDOF 4
ENDMDL
