MODEL 1
REMARK VINA RESULT:    -7.917      0.000      0.000
REMARK INTER + INTRA:         -10.011
REMARK INTER:                  -9.768
REMARK INTRA:                  -0.243
REMARK UNBOUND:                -0.243
REMARK  Name = 
REMARK  6 active torsions:
REMARK  status: ('A' for Active; 'I' for Inactive)
REMARK    1  A    between atoms: C_1  and  N_2
REMARK    2  A    between atoms: N_2  and  C_3
REMARK    3  A    between atoms: N_2  and  C_4
REMARK    4  A    between atoms: C_9  and  S_10
REMARK    5  A    between atoms: S_10  and  N_13
REMARK    6  A    between atoms: N_13  and  C_14
REMARK                            x       y       z     vdW  Elec       q    Type
REMARK                         _______ _______ _______ _____ _____    ______ ____
ROOT
ATOM      1  C   UNL     1      26.171   6.391  49.153  0.00  0.00    +0.000 A 
ATOM      2  C   UNL     1      27.184   5.496  48.754  0.00  0.00    +0.000 A 
ATOM      3  C   UNL     1      27.156   4.151  49.093  0.00  0.00    +0.000 A 
ATOM      4  C   UNL     1      26.170   3.675  49.945  0.00  0.00    +0.000 A 
ATOM      5  C   UNL     1      25.189   4.520  50.490  0.00  0.00    +0.000 A 
ATOM      6  C   UNL     1      24.221   4.089  51.452  0.00  0.00    +0.000 A 
ATOM      7  C   UNL     1      23.129   4.893  51.790  0.00  0.00    +0.000 A 
ATOM      8  C   UNL     1      22.992   6.142  51.215  0.00  0.00    +0.000 A 
ATOM      9  C   UNL     1      23.979   6.620  50.355  0.00  0.00    +0.000 A 
ATOM     10  C   UNL     1      25.129   5.871  50.006  0.00  0.00    +0.000 A 
ENDROOT
BRANCH   1  12
ATOM     11  C   UNL     1      25.943   7.914  47.225  0.00  0.00    +0.000 C 
ATOM     12  N   UNL     1      26.182   7.722  48.659  0.00  0.00    +0.000 N 
ATOM     13  C   UNL     1      27.167   8.649  49.229  0.00  0.00    +0.000 C 
ENDBRANCH   1  12
BRANCH   6  14
ATOM     14  S   UNL     1      24.355   2.520  52.311  0.00  0.00    +0.000 S 
ATOM     15  O   UNL     1      23.070   2.227  52.921  0.00  0.00    +0.000 OA
ATOM     16  O   UNL     1      24.969   1.565  51.414  0.00  0.00    +0.000 OA
BRANCH  14  17
ATOM     17  N   UNL     1      25.449   2.775  53.580  0.00  0.00    +0.000 N 
ATOM     18  H   UNL     1      25.314   3.486  54.248  0.00  0.00    +0.000 HD
BRANCH  17  19
ATOM     19  C   UNL     1      26.559   1.914  53.625  0.00  0.00    +0.000 A 
ATOM     20  C   UNL     1      27.814   2.302  53.184  0.00  0.00    +0.000 A 
ATOM     21  C   UNL     1      28.860   1.388  53.290  0.00  0.00    +0.000 A 
ATOM     22  C   UNL     1      28.579   0.138  53.807  0.00  0.00    +0.000 A 
ATOM     23 CL   UNL     1      29.780  -1.069  53.949  0.00  0.00    +0.000 Cl
ATOM     24  N   UNL     1      27.346  -0.214  54.227  0.00  0.00    +0.000 NA
ATOM     25  N   UNL     1      26.324   0.691  54.141  0.00  0.00    +0.000 NA
ENDBRANCH  17  19
ENDBRANCH  14  17
ENDBRANCH   6  14
TORSDOF 4
ENDMDL
MODEL 2
REMARK VINA RESULT:    -7.869      1.794      2.005
REMARK INTER + INTRA:          -9.952
REMARK INTER:                  -9.580
REMARK INTRA:                  -0.373
REMARK UNBOUND:                -0.243
REMARK  Name = 
REMARK  6 active torsions:
REMARK  status: ('A' for Active; 'I' for Inactive)
REMARK    1  A    between atoms: C_1  and  N_2
REMARK    2  A    between atoms: N_2  and  C_3
REMARK    3  A    between atoms: N_2  and  C_4
REMARK    4  A    between atoms: C_9  and  S_10
REMARK    5  A    between atoms: S_10  and  N_13
REMARK    6  A    between atoms: N_13  and  C_14
REMARK                            x       y       z     vdW  Elec       q    Type
REMARK                         _______ _______ _______ _____ _____    ______ ____
ROOT
ATOM      1  C   UNL     1      26.994   6.990  48.853  0.00  0.00    +0.000 A 
ATOM      2  C   UNL     1      27.738   5.839  48.522  0.00  0.00    +0.000 A 
ATOM      3  C   UNL     1      27.268   4.558  48.774  0.00  0.00    +0.000 A 
ATOM      4  C   UNL     1      26.085   4.384  49.475  0.00  0.00    +0.000 A 
ATOM      5  C   UNL     1      25.337   5.473  49.952  0.00  0.00    +0.000 A 
ATOM      6  C   UNL     1      24.169   5.334  50.767  0.00  0.00    +0.000 A 
ATOM      7  C   UNL     1      23.330   6.422  51.024  0.00  0.00    +0.000 A 
ATOM      8  C   UNL     1      23.645   7.666  50.512  0.00  0.00    +0.000 A 
ATOM      9  C   UNL     1      24.833   7.843  49.803  0.00  0.00    +0.000 A 
ATOM     10  C   UNL     1      25.744   6.789  49.546  0.00  0.00    +0.000 A 
ENDROOT
BRANCH   1  12
ATOM     11  C   UNL     1      27.409   8.581  47.013  0.00  0.00    +0.000 C 
ATOM     12  N   UNL     1      27.463   8.266  48.445  0.00  0.00    +0.000 N 
ATOM     13  C   UNL     1      28.644   8.805  49.130  0.00  0.00    +0.000 C 
ENDBRANCH   1  12
BRANCH   6  14
ATOM     14  S   UNL     1      23.719   3.779  51.540  0.00  0.00    +0.000 S 
ATOM     15  O   UNL     1      22.558   4.010  52.381  0.00  0.00    +0.000 OA
ATOM     16  O   UNL     1      23.683   2.758  50.515  0.00  0.00    +0.000 OA
BRANCH  14  17
ATOM     17  N   UNL     1      25.000   3.386  52.578  0.00  0.00    +0.000 N 
ATOM     18  H   UNL     1      25.452   4.067  53.127  0.00  0.00    +0.000 HD
BRANCH  17  19
ATOM     19  C   UNL     1      25.380   2.033  52.611  0.00  0.00    +0.000 A 
ATOM     20  C   UNL     1      24.618   1.067  53.250  0.00  0.00    +0.000 A 
ATOM     21  C   UNL     1      25.063  -0.253  53.210  0.00  0.00    +0.000 A 
ATOM     22  C   UNL     1      26.251  -0.518  52.556  0.00  0.00    +0.000 A 
ATOM     23 CL   UNL     1      26.903  -2.096  52.477  0.00  0.00    +0.000 Cl
ATOM     24  N   UNL     1      26.973   0.444  51.944  0.00  0.00    +0.000 NA
ATOM     25  N   UNL     1      26.526   1.736  51.967  0.00  0.00    +0.000 NA
ENDBRANCH  17  19
ENDBRANCH  14  17
ENDBRANCH   6  14
TORSDOF 4
ENDMDL
MODEL 3
REMARK VINA RESULT:    -7.729      4.178      6.481
REMARK INTER + INTRA:          -9.780
REMARK INTER:                  -9.815
REMARK INTRA:                   0.035
REMARK UNBOUND:                -0.243
REMARK  Name = 
REMARK  6 active torsions:
REMARK  status: ('A' for Active; 'I' for Inactive)
REMARK    1  A    between atoms: C_1  and  N_2
REMARK    2  A    between atoms: N_2  and  C_3
REMARK    3  A    between atoms: N_2  and  C_4
REMARK    4  A    between atoms: C_9  and  S_10
REMARK    5  A    between atoms: S_10  and  N_13
REMARK    6  A    between atoms: N_13  and  C_14
REMARK                            x       y       z     vdW  Elec       q    Type
REMARK                         _______ _______ _______ _____ _____    ______ ____
ROOT
ATOM      1  C   UNL     1      19.969  -0.135  52.994  0.00  0.00    +0.000 A 
ATOM      2  C   UNL     1      20.810  -1.103  53.579  0.00  0.00    +0.000 A 
ATOM      3  C   UNL     1      22.127  -0.828  53.919  0.00  0.00    +0.000 A 
ATOM      4  C   UNL     1      22.686   0.394  53.578  0.00  0.00    +0.000 A 
ATOM      5  C   UNL     1      21.959   1.375  52.883  0.00  0.00    +0.000 A 
ATOM      6  C   UNL     1      22.530   2.603  52.422  0.00  0.00    +0.000 A 
ATOM      7  C   UNL     1      21.726   3.642  51.945  0.00  0.00    +0.000 A 
ATOM      8  C   UNL     1      20.356   3.476  51.884  0.00  0.00    +0.000 A 
ATOM      9  C   UNL     1      19.791   2.250  52.231  0.00  0.00    +0.000 A 
ATOM     10  C   UNL     1      20.556   1.146  52.682  0.00  0.00    +0.000 A 
ENDROOT
BRANCH   1  12
ATOM     11  C   UNL     1      18.019  -1.525  53.587  0.00  0.00    +0.000 C 
ATOM     12  N   UNL     1      18.595  -0.432  52.797  0.00  0.00    +0.000 N 
ATOM     13  C   UNL     1      18.071  -0.345  51.429  0.00  0.00    +0.000 C 
ENDBRANCH   1  12
BRANCH   6  14
ATOM     14  S   UNL     1      24.302   2.885  52.388  0.00  0.00    +0.000 S 
ATOM     15  O   UNL     1      24.558   4.066  51.583  0.00  0.00    +0.000 OA
ATOM     16  O   UNL     1      24.798   2.807  53.745  0.00  0.00    +0.000 OA
BRANCH  14  17
ATOM     17  N   UNL     1      24.966   1.571  51.547  0.00  0.00    +0.000 N 
ATOM     18  H   UNL     1      24.597   1.261  50.689  0.00  0.00    +0.000 HD
BRANCH  17  19
ATOM     19  C   UNL     1      26.076   0.949  52.146  0.00  0.00    +0.000 A 
ATOM     20  C   UNL     1      26.074  -0.394  52.489  0.00  0.00    +0.000 A 
ATOM     21  C   UNL     1      27.229  -0.929  53.057  0.00  0.00    +0.000 A 
ATOM     22  C   UNL     1      28.301  -0.082  53.266  0.00  0.00    +0.000 A 
ATOM     23 CL   UNL     1      29.752  -0.628  53.985  0.00  0.00    +0.000 Cl
ATOM     24  N   UNL     1      28.274   1.223  52.922  0.00  0.00    +0.000 NA
ATOM     25  N   UNL     1      27.146   1.742  52.348  0.00  0.00    +0.000 NA
ENDBRANCH  17  19
ENDBRANCH  14  17
ENDBRANCH   6  14
TORSDOF 4
ENDMDL
MODEL 4
REMARK VINA RESULT:    -7.703      5.000      8.037
REMARK INTER + INTRA:          -9.748
REMARK INTER:                  -9.339
REMARK INTRA:                  -0.409
REMARK UNBOUND:                -0.243
REMARK  Name = 
REMARK  6 active torsions:
REMARK  status: ('A' for Active; 'I' for Inactive)
REMARK    1  A    between atoms: C_1  and  N_2
REMARK    2  A    between atoms: N_2  and  C_3
REMARK    3  A    between atoms: N_2  and  C_4
REMARK    4  A    between atoms: C_9  and  S_10
REMARK    5  A    between atoms: S_10  and  N_13
REMARK    6  A    between atoms: N_13  and  C_14
REMARK                            x       y       z     vdW  Elec       q    Type
REMARK                         _______ _______ _______ _____ _____    ______ ____
ROOT
ATOM      1  C   UNL     1      25.477   0.024  53.119  0.00  0.00    +0.000 A 
ATOM      2  C   UNL     1      25.716   0.995  52.126  0.00  0.00    +0.000 A 
ATOM      3  C   UNL     1      24.707   1.813  51.636  0.00  0.00    +0.000 A 
ATOM      4  C   UNL     1      23.397   1.608  52.040  0.00  0.00    +0.000 A 
ATOM      5  C   UNL     1      23.047   0.582  52.934  0.00  0.00    +0.000 A 
ATOM      6  C   UNL     1      21.697   0.273  53.292  0.00  0.00    +0.000 A 
ATOM      7  C   UNL     1      21.408  -0.592  54.352  0.00  0.00    +0.000 A 
ATOM      8  C   UNL     1      22.441  -1.190  55.050  0.00  0.00    +0.000 A 
ATOM      9  C   UNL     1      23.760  -0.981  54.649  0.00  0.00    +0.000 A 
ATOM     10  C   UNL     1      24.113  -0.149  53.558  0.00  0.00    +0.000 A 
ENDROOT
BRANCH   1  12
ATOM     11  C   UNL     1      27.522   0.075  54.500  0.00  0.00    +0.000 C 
ATOM     12  N   UNL     1      26.573  -0.685  53.679  0.00  0.00    +0.000 N 
ATOM     13  C   UNL     1      27.197  -1.728  52.857  0.00  0.00    +0.000 C 
ENDBRANCH   1  12
BRANCH   6  14
ATOM     14  S   UNL     1      20.290   0.935  52.397  0.00  0.00    +0.000 S 
ATOM     15  O   UNL     1      20.633   0.986  50.987  0.00  0.00    +0.000 OA
ATOM     16  O   UNL     1      19.104   0.229  52.833  0.00  0.00    +0.000 OA
BRANCH  14  17
ATOM     17  N   UNL     1      20.124   2.541  52.915  0.00  0.00    +0.000 N 
ATOM     18  H   UNL     1      20.157   2.787  53.867  0.00  0.00    +0.000 HD
BRANCH  17  19
ATOM     19  C   UNL     1      19.935   3.502  51.906  0.00  0.00    +0.000 A 
ATOM     20  C   UNL     1      20.970   4.294  51.437  0.00  0.00    +0.000 A 
ATOM     21  C   UNL     1      20.692   5.203  50.418  0.00  0.00    +0.000 A 
ATOM     22  C   UNL     1      19.394   5.278  49.952  0.00  0.00    +0.000 A 
ATOM     23 CL   UNL     1      18.938   6.382  48.729  0.00  0.00    +0.000 Cl
ATOM     24  N   UNL     1      18.404   4.494  50.429  0.00  0.00    +0.000 NA
ATOM     25  N   UNL     1      18.682   3.589  51.416  0.00  0.00    +0.000 NA
ENDBRANCH  17  19
ENDBRANCH  14  17
ENDBRANCH   6  14
TORSDOF 4
ENDMDL
MODEL 5
REMARK VINA RESULT:    -7.663      4.531      6.765
REMARK INTER + INTRA:          -9.698
REMARK INTER:                  -9.752
REMARK INTRA:                   0.055
REMARK UNBOUND:                -0.243
REMARK  Name = 
REMARK  6 active torsions:
REMARK  status: ('A' for Active; 'I' for Inactive)
REMARK    1  A    between atoms: C_1  and  N_2
REMARK    2  A    between atoms: N_2  and  C_3
REMARK    3  A    between atoms: N_2  and  C_4
REMARK    4  A    between atoms: C_9  and  S_10
REMARK    5  A    between atoms: S_10  and  N_13
REMARK    6  A    between atoms: N_13  and  C_14
REMARK                            x       y       z     vdW  Elec       q    Type
REMARK                         _______ _______ _______ _____ _____    ______ ____
ROOT
ATOM      1  C   UNL     1      27.172   0.759  53.164  0.00  0.00    +0.000 A 
ATOM      2  C   UNL     1      26.588  -0.271  53.927  0.00  0.00    +0.000 A 
ATOM      3  C   UNL     1      25.278  -0.685  53.729  0.00  0.00    +0.000 A 
ATOM      4  C   UNL     1      24.467  -0.001  52.836  0.00  0.00    +0.000 A 
ATOM      5  C   UNL     1      24.928   1.116  52.120  0.00  0.00    +0.000 A 
ATOM      6  C   UNL     1      24.094   1.910  51.271  0.00  0.00    +0.000 A 
ATOM      7  C   UNL     1      24.639   2.862  50.405  0.00  0.00    +0.000 A 
ATOM      8  C   UNL     1      26.005   3.071  50.386  0.00  0.00    +0.000 A 
ATOM      9  C   UNL     1      26.823   2.381  51.280  0.00  0.00    +0.000 A 
ATOM     10  C   UNL     1      26.326   1.434  52.209  0.00  0.00    +0.000 A 
ENDROOT
BRANCH   1  12
ATOM     11  C   UNL     1      29.445  -0.079  53.636  0.00  0.00    +0.000 C 
ATOM     12  N   UNL     1      28.556   1.043  53.317  0.00  0.00    +0.000 N 
ATOM     13  C   UNL     1      28.921   2.301  53.979  0.00  0.00    +0.000 C 
ENDBRANCH   1  12
BRANCH   6  14
ATOM     14  S   UNL     1      22.306   1.769  51.280  0.00  0.00    +0.000 S 
ATOM     15  O   UNL     1      21.748   3.048  50.876  0.00  0.00    +0.000 OA
ATOM     16  O   UNL     1      21.944   0.561  50.571  0.00  0.00    +0.000 OA
BRANCH  14  17
ATOM     17  N   UNL     1      21.865   1.538  52.900  0.00  0.00    +0.000 N 
ATOM     18  H   UNL     1      22.215   2.109  53.621  0.00  0.00    +0.000 HD
BRANCH  17  19
ATOM     19  C   UNL     1      20.970   0.484  53.155  0.00  0.00    +0.000 A 
ATOM     20  C   UNL     1      21.327  -0.623  53.908  0.00  0.00    +0.000 A 
ATOM     21  C   UNL     1      20.365  -1.607  54.128  0.00  0.00    +0.000 A 
ATOM     22  C   UNL     1      19.117  -1.432  53.561  0.00  0.00    +0.000 A 
ATOM     23 CL   UNL     1      17.876  -2.593  53.741  0.00  0.00    +0.000 Cl
ATOM     24  N   UNL     1      18.797  -0.343  52.831  0.00  0.00    +0.000 NA
ATOM     25  N   UNL     1      19.736   0.631  52.632  0.00  0.00    +0.000 NA
ENDBRANCH  17  19
ENDBRANCH  14  17
ENDBRANCH   6  14
TORSDOF 4
ENDMDL
MODEL 6
REMARK VINA RESULT:    -7.632      4.816      7.215
REMARK INTER + INTRA:          -9.659
REMARK INTER:                  -9.784
REMARK INTRA:                   0.125
REMARK UNBOUND:                -0.243
REMARK  Name = 
REMARK  6 active torsions:
REMARK  status: ('A' for Active; 'I' for Inactive)
REMARK    1  A    between atoms: C_1  and  N_2
REMARK    2  A    between atoms: N_2  and  C_3
REMARK    3  A    between atoms: N_2  and  C_4
REMARK    4  A    between atoms: C_9  and  S_10
REMARK    5  A    between atoms: S_10  and  N_13
REMARK    6  A    between atoms: N_13  and  C_14
REMARK                            x       y       z     vdW  Elec       q    Type
REMARK                         _______ _______ _______ _____ _____    ______ ____
ROOT
ATOM      1  C   UNL     1      18.893  -0.410  52.607  0.00  0.00    +0.000 A 
ATOM      2  C   UNL     1      18.679   0.239  51.375  0.00  0.00    +0.000 A 
ATOM      3  C   UNL     1      19.716   0.819  50.657  0.00  0.00    +0.000 A 
ATOM      4  C   UNL     1      20.988   0.872  51.205  0.00  0.00    +0.000 A 
ATOM      5  C   UNL     1      21.268   0.360  52.482  0.00  0.00    +0.000 A 
ATOM      6  C   UNL     1      22.541   0.489  53.124  0.00  0.00    +0.000 A 
ATOM      7  C   UNL     1      22.844  -0.230  54.284  0.00  0.00    +0.000 A 
ATOM      8  C   UNL     1      21.891  -1.058  54.846  0.00  0.00    +0.000 A 
ATOM      9  C   UNL     1      20.612  -1.116  54.294  0.00  0.00    +0.000 A 
ATOM     10  C   UNL     1      20.232  -0.381  53.145  0.00  0.00    +0.000 A 
ENDROOT
BRANCH   1  12
ATOM     11  C   UNL     1      17.996  -2.539  53.476  0.00  0.00    +0.000 C 
ATOM     12  N   UNL     1      17.819  -1.104  53.225  0.00  0.00    +0.000 N 
ATOM     13  C   UNL     1      16.455  -0.731  52.833  0.00  0.00    +0.000 C 
ENDBRANCH   1  12
BRANCH   6  14
ATOM     14  S   UNL     1      23.814   1.596  52.516  0.00  0.00    +0.000 S 
ATOM     15  O   UNL     1      24.621   0.872  51.550  0.00  0.00    +0.000 OA
ATOM     16  O   UNL     1      23.187   2.848  52.148  0.00  0.00    +0.000 OA
BRANCH  14  17
ATOM     17  N   UNL     1      24.820   1.922  53.841  0.00  0.00    +0.000 N 
ATOM     18  H   UNL     1      24.490   2.387  54.643  0.00  0.00    +0.000 HD
BRANCH  17  19
ATOM     19  C   UNL     1      26.153   1.489  53.730  0.00  0.00    +0.000 A 
ATOM     20  C   UNL     1      27.159   2.310  53.247  0.00  0.00    +0.000 A 
ATOM     21  C   UNL     1      28.456   1.801  53.195  0.00  0.00    +0.000 A 
ATOM     22  C   UNL     1      28.657   0.497  53.606  0.00  0.00    +0.000 A 
ATOM     23 CL   UNL     1      30.200  -0.236  53.552  0.00  0.00    +0.000 Cl
ATOM     24  N   UNL     1      27.657  -0.281  54.071  0.00  0.00    +0.000 NA
ATOM     25  N   UNL     1      26.388   0.226  54.140  0.00  0.00    +0.000 NA
ENDBRANCH  17  19
ENDBRANCH  14  17
ENDBRANCH   6  14
TORSDOF 4
ENDMDL
MODEL 7
REMARK VINA RESULT:    -7.620      4.038      7.194
REMARK INTER + INTRA:          -9.644
REMARK INTER:                  -9.483
REMARK INTRA:                  -0.162
REMARK UNBOUND:                -0.243
REMARK  Name = 
REMARK  6 active torsions:
REMARK  status: ('A' for Active; 'I' for Inactive)
REMARK    1  A    between atoms: C_1  and  N_2
REMARK    2  A    between atoms: N_2  and  C_3
REMARK    3  A    between atoms: N_2  and  C_4
REMARK    4  A    between atoms: C_9  and  S_10
REMARK    5  A    between atoms: S_10  and  N_13
REMARK    6  A    between atoms: N_13  and  C_14
REMARK                            x       y       z     vdW  Elec       q    Type
REMARK                         _______ _______ _______ _____ _____    ______ ____
ROOT
ATOM      1  C   UNL     1      26.827   0.320  53.182  0.00  0.00    +0.000 A 
ATOM      2  C   UNL     1      27.172   1.298  52.227  0.00  0.00    +0.000 A 
ATOM      3  C   UNL     1      26.217   2.073  51.585  0.00  0.00    +0.000 A 
ATOM      4  C   UNL     1      24.870   1.815  51.789  0.00  0.00    +0.000 A 
ATOM      5  C   UNL     1      24.431   0.779  52.630  0.00  0.00    +0.000 A 
ATOM      6  C   UNL     1      23.056   0.415  52.785  0.00  0.00    +0.000 A 
ATOM      7  C   UNL     1      22.647  -0.458  53.797  0.00  0.00    +0.000 A 
ATOM      8  C   UNL     1      23.586  -1.011  54.647  0.00  0.00    +0.000 A 
ATOM      9  C   UNL     1      24.941  -0.750  54.446  0.00  0.00    +0.000 A 
ATOM     10  C   UNL     1      25.420   0.093  53.413  0.00  0.00    +0.000 A 
ENDROOT
BRANCH   1  12
ATOM     11  C   UNL     1      28.681   0.471  54.803  0.00  0.00    +0.000 C 
ATOM     12  N   UNL     1      27.853  -0.342  53.906  0.00  0.00    +0.000 N 
ATOM     13  C   UNL     1      28.591  -1.408  53.216  0.00  0.00    +0.000 C 
ENDBRANCH   1  12
BRANCH   6  14
ATOM     14  S   UNL     1      21.775   1.018  51.684  0.00  0.00    +0.000 S 
ATOM     15  O   UNL     1      22.413   1.555  50.496  0.00  0.00    +0.000 OA
ATOM     16  O   UNL     1      20.762  -0.009  51.565  0.00  0.00    +0.000 OA
BRANCH  14  17
ATOM     17  N   UNL     1      21.053   2.328  52.482  0.00  0.00    +0.000 N 
ATOM     18  H   UNL     1      20.434   2.201  53.236  0.00  0.00    +0.000 HD
BRANCH  17  19
ATOM     19  C   UNL     1      21.390   3.607  52.006  0.00  0.00    +0.000 A 
ATOM     20  C   UNL     1      22.572   4.239  52.358  0.00  0.00    +0.000 A 
ATOM     21  C   UNL     1      22.831   5.497  51.817  0.00  0.00    +0.000 A 
ATOM     22  C   UNL     1      21.882   6.051  50.980  0.00  0.00    +0.000 A 
ATOM     23 CL   UNL     1      22.084   7.602  50.290  0.00  0.00    +0.000 Cl
ATOM     24  N   UNL     1      20.738   5.413  50.655  0.00  0.00    +0.000 NA
ATOM     25  N   UNL     1      20.494   4.170  51.171  0.00  0.00    +0.000 NA
ENDBRANCH  17  19
ENDBRANCH  14  17
ENDBRANCH   6  14
TORSDOF 4
ENDMDL
MODEL 8
REMARK VINA RESULT:    -7.224      4.321      7.849
REMARK INTER + INTRA:          -9.157
REMARK INTER:                  -8.702
REMARK INTRA:                  -0.455
REMARK UNBOUND:                -0.243
REMARK  Name = 
REMARK  6 active torsions:
REMARK  status: ('A' for Active; 'I' for Inactive)
REMARK    1  A    between atoms: C_1  and  N_2
REMARK    2  A    between atoms: N_2  and  C_3
REMARK    3  A    between atoms: N_2  and  C_4
REMARK    4  A    between atoms: C_9  and  S_10
REMARK    5  A    between atoms: S_10  and  N_13
REMARK    6  A    between atoms: N_13  and  C_14
REMARK                            x       y       z     vdW  Elec       q    Type
REMARK                         _______ _______ _______ _____ _____    ______ ____
ROOT
ATOM      1  C   UNL     1      25.918   0.260  53.094  0.00  0.00    +0.000 A 
ATOM      2  C   UNL     1      24.813  -0.347  53.725  0.00  0.00    +0.000 A 
ATOM      3  C   UNL     1      23.505  -0.062  53.359  0.00  0.00    +0.000 A 
ATOM      4  C   UNL     1      23.252   0.932  52.426  0.00  0.00    +0.000 A 
ATOM      5  C   UNL     1      24.286   1.676  51.834  0.00  0.00    +0.000 A 
ATOM      6  C   UNL     1      24.061   2.777  50.949  0.00  0.00    +0.000 A 
ATOM      7  C   UNL     1      25.106   3.335  50.207  0.00  0.00    +0.000 A 
ATOM      8  C   UNL     1      26.389   2.843  50.350  0.00  0.00    +0.000 A 
ATOM      9  C   UNL     1      26.645   1.840  51.285  0.00  0.00    +0.000 A 
ATOM     10  C   UNL     1      25.637   1.263  52.095  0.00  0.00    +0.000 A 
ENDROOT
BRANCH   1  12
ATOM     11  C   UNL     1      27.638  -1.503  52.942  0.00  0.00    +0.000 C 
ATOM     12  N   UNL     1      27.231  -0.175  53.415  0.00  0.00    +0.000 N 
ATOM     13  C   UNL     1      27.756   0.173  54.741  0.00  0.00    +0.000 C 
ENDBRANCH   1  12
BRANCH   6  14
ATOM     14  S   UNL     1      22.448   3.536  50.753  0.00  0.00    +0.000 S 
ATOM     15  O   UNL     1      21.529   2.527  50.256  0.00  0.00    +0.000 OA
ATOM     16  O   UNL     1      22.142   4.266  51.964  0.00  0.00    +0.000 OA
BRANCH  14  17
ATOM     17  N   UNL     1      22.621   4.685  49.519  0.00  0.00    +0.000 N 
ATOM     18  H   UNL     1      23.204   4.530  48.741  0.00  0.00    +0.000 HD
BRANCH  17  19
ATOM     19  C   UNL     1      21.884   5.873  49.669  0.00  0.00    +0.000 A 
ATOM     20  C   UNL     1      22.485   7.081  49.987  0.00  0.00    +0.000 A 
ATOM     21  C   UNL     1      21.676   8.211  50.092  0.00  0.00    +0.000 A 
ATOM     22  C   UNL     1      20.317   8.055  49.897  0.00  0.00    +0.000 A 
ATOM     23 CL   UNL     1      19.231   9.368  50.036  0.00  0.00    +0.000 Cl
ATOM     24  N   UNL     1      19.758   6.866  49.590  0.00  0.00    +0.000 NA
ATOM     25  N   UNL     1      20.556   5.761  49.468  0.00  0.00    +0.000 NA
ENDBRANCH  17  19
ENDBRANCH  14  17
ENDBRANCH   6  14
TORSDOF 4
ENDMDL
MODEL 9
REMARK VINA RESULT:    -7.179      4.741      6.338
REMARK INTER + INTRA:          -9.101
REMARK INTER:                  -8.950
REMARK INTRA:                  -0.151
REMARK UNBOUND:                -0.243
REMARK  Name = 
REMARK  6 active torsions:
REMARK  status: ('A' for Active; 'I' for Inactive)
REMARK    1  A    between atoms: C_1  and  N_2
REMARK    2  A    between atoms: N_2  and  C_3
REMARK    3  A    between atoms: N_2  and  C_4
REMARK    4  A    between atoms: C_9  and  S_10
REMARK    5  A    between atoms: S_10  and  N_13
REMARK    6  A    between atoms: N_13  and  C_14
REMARK                            x       y       z     vdW  Elec       q    Type
REMARK                         _______ _______ _______ _____ _____    ______ ____
ROOT
ATOM      1  C   UNL     1      18.910   1.266  50.630  0.00  0.00    +0.000 A 
ATOM      2  C   UNL     1      19.467   1.989  49.556  0.00  0.00    +0.000 A 
ATOM      3  C   UNL     1      20.838   2.132  49.395  0.00  0.00    +0.000 A 
ATOM      4  C   UNL     1      21.700   1.655  50.371  0.00  0.00    +0.000 A 
ATOM      5  C   UNL     1      21.228   1.029  51.536  0.00  0.00    +0.000 A 
ATOM      6  C   UNL     1      22.077   0.618  52.612  0.00  0.00    +0.000 A 
ATOM      7  C   UNL     1      21.601  -0.202  53.639  0.00  0.00    +0.000 A 
ATOM      8  C   UNL     1      20.278  -0.600  53.641  0.00  0.00    +0.000 A 
ATOM      9  C   UNL     1      19.411  -0.125  52.658  0.00  0.00    +0.000 A 
ATOM     10  C   UNL     1      19.823   0.740  51.616  0.00  0.00    +0.000 A 
ENDROOT
BRANCH   1  12
ATOM     11  C   UNL     1      16.866   0.588  49.424  0.00  0.00    +0.000 C 
ATOM     12  N   UNL     1      17.509   1.036  50.664  0.00  0.00    +0.000 N 
ATOM     13  C   UNL     1      16.690   1.958  51.461  0.00  0.00    +0.000 C 
ENDBRANCH   1  12
BRANCH   6  14
ATOM     14  S   UNL     1      23.787   1.146  52.740  0.00  0.00    +0.000 S 
ATOM     15  O   UNL     1      24.452   0.837  51.487  0.00  0.00    +0.000 OA
ATOM     16  O   UNL     1      23.805   2.497  53.259  0.00  0.00    +0.000 OA
BRANCH  14  17
ATOM     17  N   UNL     1      24.493   0.157  53.922  0.00  0.00    +0.000 N 
ATOM     18  H   UNL     1      23.971  -0.214  54.669  0.00  0.00    +0.000 HD
BRANCH  17  19
ATOM     19  C   UNL     1      25.867  -0.103  53.774  0.00  0.00    +0.000 A 
ATOM     20  C   UNL     1      26.342  -1.139  52.986  0.00  0.00    +0.000 A 
ATOM     21  C   UNL     1      27.722  -1.305  52.881  0.00  0.00    +0.000 A 
ATOM     22  C   UNL     1      28.535  -0.441  53.589  0.00  0.00    +0.000 A 
ATOM     23 CL   UNL     1      30.238  -0.578  53.558  0.00  0.00    +0.000 Cl
ATOM     24  N   UNL     1      28.044   0.559  54.351  0.00  0.00    +0.000 NA
ATOM     25  N   UNL     1      26.690   0.733  54.437  0.00  0.00    +0.000 NA
ENDBRANCH  17  19
ENDBRANCH  14  17
ENDBRANCH   6  14
TORSDOF 4
ENDMDL
