MODEL 1
REMARK VINA RESULT:    -7.938      0.000      0.000
REMARK INTER + INTRA:         -11.643
REMARK INTER:                 -10.722
REMARK INTRA:                  -0.921
REMARK UNBOUND:                -0.921
REMARK  Name = 
REMARK  8 active torsions:
REMARK  status: ('A' for Active; 'I' for Inactive)
REMARK    1  A    between atoms: C_1  and  C_2
REMARK    2  A    between atoms: C_2  and  N_3
REMARK    3  A    between atoms: C_7  and  N_8
REMARK    4  A    between atoms: N_8  and  C_9
REMARK    5  A    between atoms: C_9  and  C_10
REMARK    6  A    between atoms: C_13  and  O_14
REMARK    7  A    between atoms: O_14  and  C_15
REMARK    8  A    between atoms: C_19  and  C_20
REMARK                            x       y       z     vdW  Elec       q    Type
REMARK                         _______ _______ _______ _____ _____    ______ ____
ROOT
ATOM      1  N   UNL     1      23.170  -0.012  53.184  0.00  0.00    +0.000 N 
ATOM      2  N   UNL     1      22.588   0.791  52.268  0.00  0.00    +0.000 NA
ATOM      3  C   UNL     1      23.594   1.576  51.873  0.00  0.00    +0.000 A 
ATOM      4  C   UNL     1      24.830   1.289  52.506  0.00  0.00    +0.000 A 
ATOM      5  C   UNL     1      26.167   1.767  52.475  0.00  0.00    +0.000 A 
ATOM      6  C   UNL     1      27.048   1.129  53.395  0.00  0.00    +0.000 A 
ATOM      7  C   UNL     1      26.583   0.095  54.207  0.00  0.00    +0.000 A 
ATOM      8  N   UNL     1      25.320  -0.392  54.231  0.00  0.00    +0.000 NA
ATOM      9  C   UNL     1      24.503   0.247  53.372  0.00  0.00    +0.000 A 
ENDROOT
BRANCH   6  10
ATOM     10  C   UNL     1      28.456   1.592  53.530  0.00  0.00    +0.000 C 
ATOM     11  O   UNL     1      28.832   2.747  53.620  0.00  0.00    +0.000 OA
ATOM     12  O   UNL     1      29.345   0.584  53.596  0.00  0.00    +0.000 OA
ENDBRANCH   6  10
BRANCH   1  14
ATOM     13  C   UNL     1      21.313  -0.414  54.749  0.00  0.00    +0.000 C 
ATOM     14  C   UNL     1      22.377  -1.022  53.852  0.00  0.00    +0.000 C 
ENDBRANCH   1  14
BRANCH   5  15
ATOM     15  N   UNL     1      26.675   2.709  51.582  0.00  0.00    +0.000 N 
ATOM     16  H   UNL     1      27.165   3.467  51.977  0.00  0.00    +0.000 HD
BRANCH  15  17
ATOM     17  C   UNL     1      26.564   2.697  50.142  0.00  0.00    +0.000 C 
BRANCH  17  18
ATOM     18  C   UNL     1      26.397   4.063  49.514  0.00  0.00    +0.000 A 
ATOM     19  C   UNL     1      25.218   4.808  49.536  0.00  0.00    +0.000 A 
ATOM     20  C   UNL     1      25.186   6.096  48.992  0.00  0.00    +0.000 A 
ATOM     21  C   UNL     1      26.318   6.687  48.406  0.00  0.00    +0.000 A 
ATOM     22  C   UNL     1      27.498   5.935  48.357  0.00  0.00    +0.000 A 
ATOM     23 CL   UNL     1      28.996   6.445  47.661  0.00  0.00    +0.000 Cl
ATOM     24  C   UNL     1      27.523   4.641  48.907  0.00  0.00    +0.000 A 
BRANCH  21  25
ATOM     25  O   UNL     1      26.050   7.954  47.970  0.00  0.00    +0.000 OA
ATOM     26  C   UNL     1      24.821   8.580  48.300  0.00  0.00    +0.000 C 
ENDBRANCH  21  25
ENDBRANCH  17  18
ENDBRANCH  15  17
ENDBRANCH   5  15
TORSDOF 6
ENDMDL
MODEL 2
REMARK VINA RESULT:    -7.820      2.863      4.373
REMARK INTER + INTRA:         -11.484
REMARK INTER:                 -10.292
REMARK INTRA:                  -1.192
REMARK UNBOUND:                -0.921
REMARK  Name = 
REMARK  8 active torsions:
REMARK  status: ('A' for Active; 'I' for Inactive)
REMARK    1  A    between atoms: C_1  and  C_2
REMARK    2  A    between atoms: C_2  and  N_3
REMARK    3  A    between atoms: C_7  and  N_8
REMARK    4  A    between atoms: N_8  and  C_9
REMARK    5  A    between atoms: C_9  and  C_10
REMARK    6  A    between atoms: C_13  and  O_14
REMARK    7  A    between atoms: O_14  and  C_15
REMARK    8  A    between atoms: C_19  and  C_20
REMARK                            x       y       z     vdW  Elec       q    Type
REMARK                         _______ _______ _______ _____ _____    ______ ____
ROOT
ATOM      1  N   UNL     1      27.697   0.727  53.976  0.00  0.00    +0.000 N 
ATOM      2  N   UNL     1      28.021   1.805  53.232  0.00  0.00    +0.000 NA
ATOM      3  C   UNL     1      26.851   2.161  52.692  0.00  0.00    +0.000 A 
ATOM      4  C   UNL     1      25.764   1.339  53.083  0.00  0.00    +0.000 A 
ATOM      5  C   UNL     1      24.367   1.255  52.844  0.00  0.00    +0.000 A 
ATOM      6  C   UNL     1      23.721   0.154  53.477  0.00  0.00    +0.000 A 
ATOM      7  C   UNL     1      24.451  -0.714  54.288  0.00  0.00    +0.000 A 
ATOM      8  N   UNL     1      25.777  -0.634  54.549  0.00  0.00    +0.000 NA
ATOM      9  C   UNL     1      26.367   0.399  53.917  0.00  0.00    +0.000 A 
ENDROOT
BRANCH   6  10
ATOM     10  C   UNL     1      22.275  -0.105  53.240  0.00  0.00    +0.000 C 
ATOM     11  O   UNL     1      21.727  -0.212  52.158  0.00  0.00    +0.000 OA
ATOM     12  O   UNL     1      21.569  -0.270  54.374  0.00  0.00    +0.000 OA
ENDBRANCH   6  10
BRANCH   1  14
ATOM     13  C   UNL     1      29.695  -0.704  53.831  0.00  0.00    +0.000 C 
ATOM     14  C   UNL     1      28.728   0.046  54.731  0.00  0.00    +0.000 C 
ENDBRANCH   1  14
BRANCH   5  15
ATOM     15  N   UNL     1      23.602   2.185  52.142  0.00  0.00    +0.000 N 
ATOM     16  H   UNL     1      22.968   2.721  52.673  0.00  0.00    +0.000 HD
BRANCH  15  17
ATOM     17  C   UNL     1      23.636   2.451  50.722  0.00  0.00    +0.000 C 
BRANCH  17  18
ATOM     18  C   UNL     1      24.511   3.617  50.323  0.00  0.00    +0.000 A 
ATOM     19  C   UNL     1      25.673   3.512  49.557  0.00  0.00    +0.000 A 
ATOM     20  C   UNL     1      26.375   4.660  49.176  0.00  0.00    +0.000 A 
ATOM     21  C   UNL     1      25.950   5.949  49.540  0.00  0.00    +0.000 A 
ATOM     22  C   UNL     1      24.799   6.060  50.330  0.00  0.00    +0.000 A 
ATOM     23 CL   UNL     1      24.113   7.535  50.918  0.00  0.00    +0.000 Cl
ATOM     24  C   UNL     1      24.099   4.902  50.710  0.00  0.00    +0.000 A 
BRANCH  21  25
ATOM     25  O   UNL     1      26.778   6.909  49.031  0.00  0.00    +0.000 OA
ATOM     26  C   UNL     1      27.946   6.542  48.317  0.00  0.00    +0.000 C 
ENDBRANCH  21  25
ENDBRANCH  17  18
ENDBRANCH  15  17
ENDBRANCH   5  15
TORSDOF 6
ENDMDL
MODEL 3
REMARK VINA RESULT:    -7.819      2.693      4.109
REMARK INTER + INTRA:         -11.483
REMARK INTER:                 -10.295
REMARK INTRA:                  -1.189
REMARK UNBOUND:                -0.921
REMARK  Name = 
REMARK  8 active torsions:
REMARK  status: ('A' for Active; 'I' for Inactive)
REMARK    1  A    between atoms: C_1  and  C_2
REMARK    2  A    between atoms: C_2  and  N_3
REMARK    3  A    between atoms: C_7  and  N_8
REMARK    4  A    between atoms: N_8  and  C_9
REMARK    5  A    between atoms: C_9  and  C_10
REMARK    6  A    between atoms: C_13  and  O_14
REMARK    7  A    between atoms: O_14  and  C_15
REMARK    8  A    between atoms: C_19  and  C_20
REMARK                            x       y       z     vdW  Elec       q    Type
REMARK                         _______ _______ _______ _____ _____    ______ ____
ROOT
ATOM      1  N   UNL     1      27.675   0.724  53.970  0.00  0.00    +0.000 N 
ATOM      2  N   UNL     1      28.016   1.786  53.211  0.00  0.00    +0.000 NA
ATOM      3  C   UNL     1      26.854   2.147  52.659  0.00  0.00    +0.000 A 
ATOM      4  C   UNL     1      25.754   1.345  53.057  0.00  0.00    +0.000 A 
ATOM      5  C   UNL     1      24.358   1.274  52.812  0.00  0.00    +0.000 A 
ATOM      6  C   UNL     1      23.695   0.191  53.458  0.00  0.00    +0.000 A 
ATOM      7  C   UNL     1      24.410  -0.673  54.287  0.00  0.00    +0.000 A 
ATOM      8  N   UNL     1      25.736  -0.604  54.554  0.00  0.00    +0.000 NA
ATOM      9  C   UNL     1      26.342   0.411  53.909  0.00  0.00    +0.000 A 
ENDROOT
BRANCH   6  10
ATOM     10  C   UNL     1      22.247  -0.055  53.217  0.00  0.00    +0.000 C 
ATOM     11  O   UNL     1      21.715  -0.239  52.138  0.00  0.00    +0.000 OA
ATOM     12  O   UNL     1      21.519  -0.109  54.348  0.00  0.00    +0.000 OA
ENDBRANCH   6  10
BRANCH   1  14
ATOM     13  C   UNL     1      29.710  -0.657  53.856  0.00  0.00    +0.000 C 
ATOM     14  C   UNL     1      28.694   0.043  54.742  0.00  0.00    +0.000 C 
ENDBRANCH   1  14
BRANCH   5  15
ATOM     15  N   UNL     1      23.608   2.202  52.091  0.00  0.00    +0.000 N 
ATOM     16  H   UNL     1      22.916   2.691  52.593  0.00  0.00    +0.000 HD
BRANCH  15  17
ATOM     17  C   UNL     1      23.733   2.525  50.688  0.00  0.00    +0.000 C 
BRANCH  17  18
ATOM     18  C   UNL     1      24.355   3.875  50.409  0.00  0.00    +0.000 A 
ATOM     19  C   UNL     1      23.851   5.092  50.869  0.00  0.00    +0.000 A 
ATOM     20  C   UNL     1      24.542   6.282  50.620  0.00  0.00    +0.000 A 
ATOM     21  C   UNL     1      25.752   6.307  49.906  0.00  0.00    +0.000 A 
ATOM     22  C   UNL     1      26.250   5.093  49.419  0.00  0.00    +0.000 A 
ATOM     23 CL   UNL     1      27.697   4.889  48.494  0.00  0.00    +0.000 Cl
ATOM     24  C   UNL     1      25.551   3.900  49.673  0.00  0.00    +0.000 A 
BRANCH  21  25
ATOM     25  O   UNL     1      26.250   7.577  49.814  0.00  0.00    +0.000 OA
ATOM     26  C   UNL     1      25.404   8.694  50.021  0.00  0.00    +0.000 C 
ENDBRANCH  21  25
ENDBRANCH  17  18
ENDBRANCH  15  17
ENDBRANCH   5  15
TORSDOF 6
ENDMDL
MODEL 4
REMARK VINA RESULT:    -7.530      1.668      1.946
REMARK INTER + INTRA:         -11.093
REMARK INTER:                 -10.048
REMARK INTRA:                  -1.044
REMARK UNBOUND:                -0.921
REMARK  Name = 
REMARK  8 active torsions:
REMARK  status: ('A' for Active; 'I' for Inactive)
REMARK    1  A    between atoms: C_1  and  C_2
REMARK    2  A    between atoms: C_2  and  N_3
REMARK    3  A    between atoms: C_7  and  N_8
REMARK    4  A    between atoms: N_8  and  C_9
REMARK    5  A    between atoms: C_9  and  C_10
REMARK    6  A    between atoms: C_13  and  O_14
REMARK    7  A    between atoms: O_14  and  C_15
REMARK    8  A    between atoms: C_19  and  C_20
REMARK                            x       y       z     vdW  Elec       q    Type
REMARK                         _______ _______ _______ _____ _____    ______ ____
ROOT
ATOM      1  N   UNL     1      23.083  -0.140  53.015  0.00  0.00    +0.000 N 
ATOM      2  N   UNL     1      22.485   0.735  52.178  0.00  0.00    +0.000 NA
ATOM      3  C   UNL     1      23.474   1.580  51.870  0.00  0.00    +0.000 A 
ATOM      4  C   UNL     1      24.713   1.263  52.482  0.00  0.00    +0.000 A 
ATOM      5  C   UNL     1      26.037   1.774  52.509  0.00  0.00    +0.000 A 
ATOM      6  C   UNL     1      26.929   1.071  53.369  0.00  0.00    +0.000 A 
ATOM      7  C   UNL     1      26.486  -0.050  54.071  0.00  0.00    +0.000 A 
ATOM      8  N   UNL     1      25.235  -0.568  54.037  0.00  0.00    +0.000 NA
ATOM      9  C   UNL     1      24.407   0.132  53.239  0.00  0.00    +0.000 A 
ENDROOT
BRANCH   6  10
ATOM     10  C   UNL     1      28.324   1.552  53.561  0.00  0.00    +0.000 C 
ATOM     11  O   UNL     1      28.682   2.712  53.648  0.00  0.00    +0.000 OA
ATOM     12  O   UNL     1      29.220   0.556  53.684  0.00  0.00    +0.000 OA
ENDBRANCH   6  10
BRANCH   1  14
ATOM     13  C   UNL     1      21.639  -0.846  54.879  0.00  0.00    +0.000 C 
ATOM     14  C   UNL     1      22.311  -1.231  53.573  0.00  0.00    +0.000 C 
ENDBRANCH   1  14
BRANCH   5  15
ATOM     15  N   UNL     1      26.526   2.812  51.718  0.00  0.00    +0.000 N 
ATOM     16  H   UNL     1      26.868   3.603  52.195  0.00  0.00    +0.000 HD
BRANCH  15  17
ATOM     17  C   UNL     1      26.587   2.857  50.275  0.00  0.00    +0.000 C 
BRANCH  17  18
ATOM     18  C   UNL     1      25.821   4.001  49.650  0.00  0.00    +0.000 A 
ATOM     19  C   UNL     1      26.370   5.244  49.333  0.00  0.00    +0.000 A 
ATOM     20  C   UNL     1      25.596   6.214  48.687  0.00  0.00    +0.000 A 
ATOM     21  C   UNL     1      24.255   5.986  48.336  0.00  0.00    +0.000 A 
ATOM     22  C   UNL     1      23.690   4.751  48.675  0.00  0.00    +0.000 A 
ATOM     23 CL   UNL     1      22.059   4.265  48.370  0.00  0.00    +0.000 Cl
ATOM     24  C   UNL     1      24.474   3.780  49.324  0.00  0.00    +0.000 A 
BRANCH  21  25
ATOM     25  O   UNL     1      23.718   7.066  47.693  0.00  0.00    +0.000 OA
ATOM     26  C   UNL     1      23.915   8.374  48.202  0.00  0.00    +0.000 C 
ENDBRANCH  21  25
ENDBRANCH  17  18
ENDBRANCH  15  17
ENDBRANCH   5  15
TORSDOF 6
ENDMDL
MODEL 5
REMARK VINA RESULT:    -7.323      3.134      4.791
REMARK INTER + INTRA:         -10.813
REMARK INTER:                  -9.587
REMARK INTRA:                  -1.226
REMARK UNBOUND:                -0.921
REMARK  Name = 
REMARK  8 active torsions:
REMARK  status: ('A' for Active; 'I' for Inactive)
REMARK    1  A    between atoms: C_1  and  C_2
REMARK    2  A    between atoms: C_2  and  N_3
REMARK    3  A    between atoms: C_7  and  N_8
REMARK    4  A    between atoms: N_8  and  C_9
REMARK    5  A    between atoms: C_9  and  C_10
REMARK    6  A    between atoms: C_13  and  O_14
REMARK    7  A    between atoms: O_14  and  C_15
REMARK    8  A    between atoms: C_19  and  C_20
REMARK                            x       y       z     vdW  Elec       q    Type
REMARK                         _______ _______ _______ _____ _____    ______ ____
ROOT
ATOM      1  N   UNL     1      27.183   0.224  53.761  0.00  0.00    +0.000 N 
ATOM      2  N   UNL     1      27.273   0.858  52.573  0.00  0.00    +0.000 NA
ATOM      3  C   UNL     1      26.003   0.901  52.159  0.00  0.00    +0.000 A 
ATOM      4  C   UNL     1      25.082   0.317  53.064  0.00  0.00    +0.000 A 
ATOM      5  C   UNL     1      23.682   0.097  53.149  0.00  0.00    +0.000 A 
ATOM      6  C   UNL     1      23.261  -0.616  54.307  0.00  0.00    +0.000 A 
ATOM      7  C   UNL     1      24.195  -1.006  55.267  0.00  0.00    +0.000 A 
ATOM      8  N   UNL     1      25.529  -0.781  55.217  0.00  0.00    +0.000 NA
ATOM      9  C   UNL     1      25.902  -0.130  54.099  0.00  0.00    +0.000 A 
ENDROOT
BRANCH   6  10
ATOM     10  C   UNL     1      21.831  -0.993  54.480  0.00  0.00    +0.000 C 
ATOM     11  O   UNL     1      20.921  -0.249  54.794  0.00  0.00    +0.000 OA
ATOM     12  O   UNL     1      21.583  -2.286  54.206  0.00  0.00    +0.000 OA
ENDBRANCH   6  10
BRANCH   1  14
ATOM     13  C   UNL     1      29.556  -0.422  53.658  0.00  0.00    +0.000 C 
ATOM     14  C   UNL     1      28.384  -0.015  54.534  0.00  0.00    +0.000 C 
ENDBRANCH   1  14
BRANCH   5  15
ATOM     15  N   UNL     1      22.724   0.589  52.263  0.00  0.00    +0.000 N 
ATOM     16  H   UNL     1      22.370  -0.049  51.601  0.00  0.00    +0.000 HD
BRANCH  15  17
ATOM     17  C   UNL     1      22.193   1.932  52.209  0.00  0.00    +0.000 C 
BRANCH  17  18
ATOM     18  C   UNL     1      22.923   2.857  51.261  0.00  0.00    +0.000 A 
ATOM     19  C   UNL     1      23.273   2.535  49.950  0.00  0.00    +0.000 A 
ATOM     20  C   UNL     1      23.881   3.488  49.126  0.00  0.00    +0.000 A 
ATOM     21  C   UNL     1      24.164   4.790  49.574  0.00  0.00    +0.000 A 
ATOM     22  C   UNL     1      23.839   5.111  50.898  0.00  0.00    +0.000 A 
ATOM     23 CL   UNL     1      24.121   6.634  51.668  0.00  0.00    +0.000 Cl
ATOM     24  C   UNL     1      23.227   4.149  51.719  0.00  0.00    +0.000 A 
BRANCH  21  25
ATOM     25  O   UNL     1      24.732   5.544  48.587  0.00  0.00    +0.000 OA
ATOM     26  C   UNL     1      23.981   6.552  47.933  0.00  0.00    +0.000 C 
ENDBRANCH  21  25
ENDBRANCH  17  18
ENDBRANCH  15  17
ENDBRANCH   5  15
TORSDOF 6
ENDMDL
MODEL 6
REMARK VINA RESULT:    -7.297      3.284      7.467
REMARK INTER + INTRA:         -10.778
REMARK INTER:                  -9.693
REMARK INTRA:                  -1.085
REMARK UNBOUND:                -0.921
REMARK  Name = 
REMARK  8 active torsions:
REMARK  status: ('A' for Active; 'I' for Inactive)
REMARK    1  A    between atoms: C_1  and  C_2
REMARK    2  A    between atoms: C_2  and  N_3
REMARK    3  A    between atoms: C_7  and  N_8
REMARK    4  A    between atoms: N_8  and  C_9
REMARK    5  A    between atoms: C_9  and  C_10
REMARK    6  A    between atoms: C_13  and  O_14
REMARK    7  A    between atoms: O_14  and  C_15
REMARK    8  A    between atoms: C_19  and  C_20
REMARK                            x       y       z     vdW  Elec       q    Type
REMARK                         _______ _______ _______ _____ _____    ______ ____
ROOT
ATOM      1  N   UNL     1      26.299   5.173  49.074  0.00  0.00    +0.000 N 
ATOM      2  N   UNL     1      27.192   4.179  49.268  0.00  0.00    +0.000 NA
ATOM      3  C   UNL     1      26.469   3.245  49.893  0.00  0.00    +0.000 A 
ATOM      4  C   UNL     1      25.114   3.607  50.099  0.00  0.00    +0.000 A 
ATOM      5  C   UNL     1      23.946   3.038  50.670  0.00  0.00    +0.000 A 
ATOM      6  C   UNL     1      22.804   3.889  50.659  0.00  0.00    +0.000 A 
ATOM      7  C   UNL     1      22.880   5.156  50.082  0.00  0.00    +0.000 A 
ATOM      8  N   UNL     1      23.977   5.705  49.509  0.00  0.00    +0.000 NA
ATOM      9  C   UNL     1      25.049   4.890  49.558  0.00  0.00    +0.000 A 
ENDROOT
BRANCH   6  10
ATOM     10  C   UNL     1      21.535   3.453  51.305  0.00  0.00    +0.000 C 
ATOM     11  O   UNL     1      21.061   3.893  52.336  0.00  0.00    +0.000 OA
ATOM     12  O   UNL     1      20.879   2.508  50.608  0.00  0.00    +0.000 OA
ENDBRANCH   6  10
BRANCH   1  14
ATOM     13  C   UNL     1      28.196   6.361  48.048  0.00  0.00    +0.000 C 
ATOM     14  C   UNL     1      26.720   6.388  48.408  0.00  0.00    +0.000 C 
ENDBRANCH   1  14
BRANCH   5  15
ATOM     15  N   UNL     1      23.819   1.730  51.134  0.00  0.00    +0.000 N 
ATOM     16  H   UNL     1      23.634   1.040  50.456  0.00  0.00    +0.000 HD
BRANCH  15  17
ATOM     17  C   UNL     1      23.929   1.273  52.501  0.00  0.00    +0.000 C 
BRANCH  17  18
ATOM     18  C   UNL     1      25.299   0.762  52.883  0.00  0.00    +0.000 A 
ATOM     19  C   UNL     1      25.644  -0.587  52.983  0.00  0.00    +0.000 A 
ATOM     20  C   UNL     1      26.961  -0.960  53.271  0.00  0.00    +0.000 A 
ATOM     21  C   UNL     1      27.978  -0.011  53.471  0.00  0.00    +0.000 A 
ATOM     22  C   UNL     1      27.634   1.344  53.399  0.00  0.00    +0.000 A 
ATOM     23 CL   UNL     1      28.709   2.676  53.638  0.00  0.00    +0.000 Cl
ATOM     24  C   UNL     1      26.308   1.712  53.108  0.00  0.00    +0.000 A 
BRANCH  21  25
ATOM     25  O   UNL     1      29.181  -0.614  53.711  0.00  0.00    +0.000 OA
ATOM     26  C   UNL     1      29.417  -1.942  53.275  0.00  0.00    +0.000 C 
ENDBRANCH  21  25
ENDBRANCH  17  18
ENDBRANCH  15  17
ENDBRANCH   5  15
TORSDOF 6
ENDMDL
MODEL 7
REMARK VINA RESULT:    -7.295      5.015      7.915
REMARK INTER + INTRA:         -10.775
REMARK INTER:                  -9.732
REMARK INTRA:                  -1.042
REMARK UNBOUND:                -0.921
REMARK  Name = 
REMARK  8 active torsions:
REMARK  status: ('A' for Active; 'I' for Inactive)
REMARK    1  A    between atoms: C_1  and  C_2
REMARK    2  A    between atoms: C_2  and  N_3
REMARK    3  A    between atoms: C_7  and  N_8
REMARK    4  A    between atoms: N_8  and  C_9
REMARK    5  A    between atoms: C_9  and  C_10
REMARK    6  A    between atoms: C_13  and  O_14
REMARK    7  A    between atoms: O_14  and  C_15
REMARK    8  A    between atoms: C_19  and  C_20
REMARK                            x       y       z     vdW  Elec       q    Type
REMARK                         _______ _______ _______ _____ _____    ______ ____
ROOT
ATOM      1  N   UNL     1      27.527   0.708  53.927  0.00  0.00    +0.000 N 
ATOM      2  N   UNL     1      27.037  -0.242  54.751  0.00  0.00    +0.000 NA
ATOM      3  C   UNL     1      25.747  -0.302  54.406  0.00  0.00    +0.000 A 
ATOM      4  C   UNL     1      25.390   0.584  53.359  0.00  0.00    +0.000 A 
ATOM      5  C   UNL     1      24.228   0.927  52.618  0.00  0.00    +0.000 A 
ATOM      6  C   UNL     1      24.416   1.970  51.666  0.00  0.00    +0.000 A 
ATOM      7  C   UNL     1      25.677   2.542  51.494  0.00  0.00    +0.000 A 
ATOM      8  N   UNL     1      26.801   2.209  52.171  0.00  0.00    +0.000 NA
ATOM      9  C   UNL     1      26.588   1.241  53.083  0.00  0.00    +0.000 A 
ENDROOT
BRANCH   6  10
ATOM     10  C   UNL     1      23.262   2.490  50.883  0.00  0.00    +0.000 C 
ATOM     11  O   UNL     1      22.817   3.622  50.917  0.00  0.00    +0.000 OA
ATOM     12  O   UNL     1      22.732   1.580  50.045  0.00  0.00    +0.000 OA
ENDBRANCH   6  10
BRANCH   1  14
ATOM     13  C   UNL     1      29.833  -0.087  53.593  0.00  0.00    +0.000 C 
ATOM     14  C   UNL     1      28.929   1.062  54.004  0.00  0.00    +0.000 C 
ENDBRANCH   1  14
BRANCH   5  15
ATOM     15  N   UNL     1      22.995   0.280  52.689  0.00  0.00    +0.000 N 
ATOM     16  H   UNL     1      22.834  -0.428  52.023  0.00  0.00    +0.000 HD
BRANCH  15  17
ATOM     17  C   UNL     1      21.928   0.533  53.629  0.00  0.00    +0.000 C 
BRANCH  17  18
ATOM     18  C   UNL     1      20.538   0.318  53.073  0.00  0.00    +0.000 A 
ATOM     19  C   UNL     1      19.938   1.122  52.104  0.00  0.00    +0.000 A 
ATOM     20  C   UNL     1      18.675   0.796  51.599  0.00  0.00    +0.000 A 
ATOM     21  C   UNL     1      17.965  -0.334  52.038  0.00  0.00    +0.000 A 
ATOM     22  C   UNL     1      18.550  -1.130  53.030  0.00  0.00    +0.000 A 
ATOM     23 CL   UNL     1      17.849  -2.544  53.737  0.00  0.00    +0.000 Cl
ATOM     24  C   UNL     1      19.820  -0.797  53.532  0.00  0.00    +0.000 A 
BRANCH  21  25
ATOM     25  O   UNL     1      16.772  -0.458  51.382  0.00  0.00    +0.000 OA
ATOM     26  C   UNL     1      16.705  -0.285  49.978  0.00  0.00    +0.000 C 
ENDBRANCH  21  25
ENDBRANCH  17  18
ENDBRANCH  15  17
ENDBRANCH   5  15
TORSDOF 6
ENDMDL
MODEL 8
REMARK VINA RESULT:    -7.291      3.566      7.110
REMARK INTER + INTRA:         -10.770
REMARK INTER:                  -9.983
REMARK INTRA:                  -0.787
REMARK UNBOUND:                -0.921
REMARK  Name = 
REMARK  8 active torsions:
REMARK  status: ('A' for Active; 'I' for Inactive)
REMARK    1  A    between atoms: C_1  and  C_2
REMARK    2  A    between atoms: C_2  and  N_3
REMARK    3  A    between atoms: C_7  and  N_8
REMARK    4  A    between atoms: N_8  and  C_9
REMARK    5  A    between atoms: C_9  and  C_10
REMARK    6  A    between atoms: C_13  and  O_14
REMARK    7  A    between atoms: O_14  and  C_15
REMARK    8  A    between atoms: C_19  and  C_20
REMARK                            x       y       z     vdW  Elec       q    Type
REMARK                         _______ _______ _______ _____ _____    ______ ____
ROOT
ATOM      1  N   UNL     1      25.107   3.384  50.646  0.00  0.00    +0.000 N 
ATOM      2  N   UNL     1      23.861   2.910  50.434  0.00  0.00    +0.000 NA
ATOM      3  C   UNL     1      23.863   1.751  51.101  0.00  0.00    +0.000 A 
ATOM      4  C   UNL     1      25.087   1.468  51.757  0.00  0.00    +0.000 A 
ATOM      5  C   UNL     1      25.632   0.444  52.576  0.00  0.00    +0.000 A 
ATOM      6  C   UNL     1      26.995   0.637  52.943  0.00  0.00    +0.000 A 
ATOM      7  C   UNL     1      27.674   1.784  52.532  0.00  0.00    +0.000 A 
ATOM      8  N   UNL     1      27.163   2.784  51.775  0.00  0.00    +0.000 NA
ATOM      9  C   UNL     1      25.883   2.561  51.420  0.00  0.00    +0.000 A 
ENDROOT
BRANCH   6  10
ATOM     10  C   UNL     1      27.717  -0.402  53.726  0.00  0.00    +0.000 C 
ATOM     11  O   UNL     1      28.168  -0.277  54.849  0.00  0.00    +0.000 OA
ATOM     12  O   UNL     1      27.809  -1.583  53.087  0.00  0.00    +0.000 OA
ENDBRANCH   6  10
BRANCH   1  14
ATOM     13  C   UNL     1      26.640   4.509  49.082  0.00  0.00    +0.000 C 
ATOM     14  C   UNL     1      25.493   4.654  50.067  0.00  0.00    +0.000 C 
ENDBRANCH   1  14
BRANCH   5  15
ATOM     15  N   UNL     1      24.931  -0.642  53.099  0.00  0.00    +0.000 N 
ATOM     16  H   UNL     1      25.003  -1.490  52.603  0.00  0.00    +0.000 HD
BRANCH  15  17
ATOM     17  C   UNL     1      24.110  -0.661  54.288  0.00  0.00    +0.000 C 
BRANCH  17  18
ATOM     18  C   UNL     1      22.622  -0.726  54.022  0.00  0.00    +0.000 A 
ATOM     19  C   UNL     1      21.812  -1.826  54.309  0.00  0.00    +0.000 A 
ATOM     20  C   UNL     1      20.431  -1.761  54.095  0.00  0.00    +0.000 A 
ATOM     21  C   UNL     1      19.808  -0.607  53.589  0.00  0.00    +0.000 A 
ATOM     22  C   UNL     1      20.619   0.490  53.274  0.00  0.00    +0.000 A 
ATOM     23 CL   UNL     1      20.076   1.994  52.616  0.00  0.00    +0.000 Cl
ATOM     24  C   UNL     1      22.006   0.419  53.492  0.00  0.00    +0.000 A 
BRANCH  21  25
ATOM     25  O   UNL     1      18.455  -0.774  53.492  0.00  0.00    +0.000 OA
ATOM     26  C   UNL     1      17.797  -0.583  52.252  0.00  0.00    +0.000 C 
ENDBRANCH  21  25
ENDBRANCH  17  18
ENDBRANCH  15  17
ENDBRANCH   5  15
TORSDOF 6
ENDMDL
MODEL 9
REMARK VINA RESULT:    -7.197      4.401      7.641
REMARK INTER + INTRA:         -10.643
REMARK INTER:                  -9.617
REMARK INTRA:                  -1.026
REMARK UNBOUND:                -0.921
REMARK  Name = 
REMARK  8 active torsions:
REMARK  status: ('A' for Active; 'I' for Inactive)
REMARK    1  A    between atoms: C_1  and  C_2
REMARK    2  A    between atoms: C_2  and  N_3
REMARK    3  A    between atoms: C_7  and  N_8
REMARK    4  A    between atoms: N_8  and  C_9
REMARK    5  A    between atoms: C_9  and  C_10
REMARK    6  A    between atoms: C_13  and  O_14
REMARK    7  A    between atoms: O_14  and  C_15
REMARK    8  A    between atoms: C_19  and  C_20
REMARK                            x       y       z     vdW  Elec       q    Type
REMARK                         _______ _______ _______ _____ _____    ______ ____
ROOT
ATOM      1  N   UNL     1      26.737  -0.397  53.177  0.00  0.00    +0.000 N 
ATOM      2  N   UNL     1      25.716  -1.041  53.780  0.00  0.00    +0.000 NA
ATOM      3  C   UNL     1      24.657  -0.291  53.459  0.00  0.00    +0.000 A 
ATOM      4  C   UNL     1      24.969   0.826  52.645  0.00  0.00    +0.000 A 
ATOM      5  C   UNL     1      24.282   1.904  52.025  0.00  0.00    +0.000 A 
ATOM      6  C   UNL     1      25.120   2.819  51.326  0.00  0.00    +0.000 A 
ATOM      7  C   UNL     1      26.496   2.597  51.257  0.00  0.00    +0.000 A 
ATOM      8  N   UNL     1      27.164   1.561  51.818  0.00  0.00    +0.000 NA
ATOM      9  C   UNL     1      26.351   0.728  52.495  0.00  0.00    +0.000 A 
ENDROOT
BRANCH   6  10
ATOM     10  C   UNL     1      24.543   4.042  50.705  0.00  0.00    +0.000 C 
ATOM     11  O   UNL     1      24.043   4.984  51.292  0.00  0.00    +0.000 OA
ATOM     12  O   UNL     1      24.656   4.064  49.364  0.00  0.00    +0.000 OA
ENDBRANCH   6  10
BRANCH   1  14
ATOM     13  C   UNL     1      28.919  -0.128  54.286  0.00  0.00    +0.000 C 
ATOM     14  C   UNL     1      28.081  -0.922  53.299  0.00  0.00    +0.000 C 
ENDBRANCH   1  14
BRANCH   5  15
ATOM     15  N   UNL     1      22.899   2.070  51.978  0.00  0.00    +0.000 N 
ATOM     16  H   UNL     1      22.511   2.697  52.630  0.00  0.00    +0.000 HD
BRANCH  15  17
ATOM     17  C   UNL     1      21.972   1.424  51.078  0.00  0.00    +0.000 C 
BRANCH  17  18
ATOM     18  C   UNL     1      20.897   0.609  51.763  0.00  0.00    +0.000 A 
ATOM     19  C   UNL     1      21.033   0.009  53.015  0.00  0.00    +0.000 A 
ATOM     20  C   UNL     1      19.953  -0.662  53.598  0.00  0.00    +0.000 A 
ATOM     21  C   UNL     1      18.705  -0.762  52.959  0.00  0.00    +0.000 A 
ATOM     22  C   UNL     1      18.570  -0.185  51.691  0.00  0.00    +0.000 A 
ATOM     23 CL   UNL     1      17.144  -0.211  50.714  0.00  0.00    +0.000 Cl
ATOM     24  C   UNL     1      19.659   0.489  51.112  0.00  0.00    +0.000 A 
BRANCH  21  25
ATOM     25  O   UNL     1      17.804  -1.438  53.733  0.00  0.00    +0.000 OA
ATOM     26  C   UNL     1      17.302  -2.696  53.314  0.00  0.00    +0.000 C 
ENDBRANCH  21  25
ENDBRANCH  17  18
ENDBRANCH  15  17
ENDBRANCH   5  15
TORSDOF 6
ENDMDL
