MODEL 1
REMARK VINA RESULT:    -9.926      0.000      0.000
REMARK INTER + INTRA:         -12.655
REMARK INTER:                 -11.667
REMARK INTRA:                  -0.988
REMARK UNBOUND:                -0.988
REMARK  Name = 
REMARK  5 active torsions:
REMARK  status: ('A' for Active; 'I' for Inactive)
REMARK    1  A    between atoms: C_1  and  N_2
REMARK    2  A    between atoms: C_5  and  C_6
REMARK    3  A    between atoms: C_7  and  O_8
REMARK    4  A    between atoms: C_10  and  O_11
REMARK    5  A    between atoms: C_16  and  C_17
REMARK                            x       y       z     vdW  Elec       q    Type
REMARK                         _______ _______ _______ _____ _____    ______ ____
ROOT
ATOM      1  C   UNL     1      22.517   1.685  52.395  0.00  0.00    +0.000 A 
ATOM      2  C   UNL     1      21.114   1.586  52.498  0.00  0.00    +0.000 A 
ATOM      3  C   UNL     1      20.518   0.652  53.337  0.00  0.00    +0.000 A 
ATOM      4  C   UNL     1      21.324  -0.204  54.087  0.00  0.00    +0.000 A 
ATOM      5  C   UNL     1      22.725  -0.135  54.012  0.00  0.00    +0.000 A 
ATOM      6  C   UNL     1      23.586  -1.064  54.814  0.00  0.00    +0.000 A 
ATOM      7  O   UNL     1      23.132  -1.899  55.593  0.00  0.00    +0.000 OA
ATOM      8  O   UNL     1      24.936  -0.958  54.649  0.00  0.00    +0.000 OA
ATOM      9  C   UNL     1      25.507  -0.001  53.805  0.00  0.00    +0.000 A 
ATOM     10  C   UNL     1      24.790   0.877  53.099  0.00  0.00    +0.000 A 
ATOM     11  C   UNL     1      23.326   0.819  53.167  0.00  0.00    +0.000 A 
ENDROOT
BRANCH   1  16
ATOM     12  C   UNL     1      25.415   5.299  49.097  0.00  0.00    +0.000 C 
ATOM     13  N   UNL     1      24.204   4.706  49.680  0.00  0.00    +0.000 N 
ATOM     14  C   UNL     1      24.103   3.302  49.286  0.00  0.00    +0.000 C 
ATOM     15  C   UNL     1      23.395   2.377  50.221  0.00  0.00    +0.000 C 
ATOM     16  C   UNL     1      23.088   2.699  51.485  0.00  0.00    +0.000 C 
ATOM     17  C   UNL     1      23.380   4.052  52.054  0.00  0.00    +0.000 C 
ATOM     18  C   UNL     1      24.151   5.000  51.119  0.00  0.00    +0.000 C 
ATOM     19  H   UNL     1      23.353   5.127  49.310  0.00  0.00    +0.000 HD
ENDBRANCH   1  16
BRANCH   9  20
ATOM     20  C   UNL     1      26.971  -0.059  53.747  0.00  0.00    +0.000 A 
ATOM     21  C   UNL     1      27.714   0.943  54.389  0.00  0.00    +0.000 A 
ATOM     22  C   UNL     1      29.110   0.888  54.408  0.00  0.00    +0.000 A 
ATOM     23  C   UNL     1      29.777  -0.164  53.782  0.00  0.00    +0.000 A 
ATOM     24  C   UNL     1      29.049  -1.155  53.125  0.00  0.00    +0.000 A 
ATOM     25  C   UNL     1      27.652  -1.104  53.104  0.00  0.00    +0.000 A 
ATOM     26 CL   UNL     1      26.813  -2.368  52.271  0.00  0.00    +0.000 Cl
ENDBRANCH   9  20
BRANCH   2  27
ATOM     27  O   UNL     1      20.322   2.422  51.753  0.00  0.00    +0.000 OA
ATOM     28  H   UNL     1      20.260   3.329  51.976  0.00  0.00    +0.000 HD
ENDBRANCH   2  27
BRANCH   4  29
ATOM     29  O   UNL     1      20.704  -1.115  54.902  0.00  0.00    +0.000 OA
ATOM     30  H   UNL     1      20.747  -1.017  55.833  0.00  0.00    +0.000 HD
ENDBRANCH   4  29
TORSDOF 4
ENDMDL
MODEL 2
REMARK VINA RESULT:    -9.666      2.701      5.885
REMARK INTER + INTRA:         -12.350
REMARK INTER:                 -11.665
REMARK INTRA:                  -0.685
REMARK UNBOUND:                -0.988
REMARK  Name = 
REMARK  5 active torsions:
REMARK  status: ('A' for Active; 'I' for Inactive)
REMARK    1  A    between atoms: C_1  and  N_2
REMARK    2  A    between atoms: C_5  and  C_6
REMARK    3  A    between atoms: C_7  and  O_8
REMARK    4  A    between atoms: C_10  and  O_11
REMARK    5  A    between atoms: C_16  and  C_17
REMARK                            x       y       z     vdW  Elec       q    Type
REMARK                         _______ _______ _______ _____ _____    ______ ____
ROOT
ATOM      1  C   UNL     1      24.210   0.294  53.383  0.00  0.00    +0.000 A 
ATOM      2  C   UNL     1      23.207  -0.432  54.058  0.00  0.00    +0.000 A 
ATOM      3  C   UNL     1      21.861  -0.143  53.871  0.00  0.00    +0.000 A 
ATOM      4  C   UNL     1      21.498   0.886  53.003  0.00  0.00    +0.000 A 
ATOM      5  C   UNL     1      22.468   1.631  52.312  0.00  0.00    +0.000 A 
ATOM      6  C   UNL     1      22.072   2.743  51.388  0.00  0.00    +0.000 A 
ATOM      7  O   UNL     1      20.903   3.042  51.155  0.00  0.00    +0.000 OA
ATOM      8  O   UNL     1      23.079   3.444  50.791  0.00  0.00    +0.000 OA
ATOM      9  C   UNL     1      24.425   3.123  50.991  0.00  0.00    +0.000 A 
ATOM     10  C   UNL     1      24.833   2.119  51.771  0.00  0.00    +0.000 A 
ATOM     11  C   UNL     1      23.832   1.330  52.498  0.00  0.00    +0.000 A 
ENDROOT
BRANCH   1  16
ATOM     12  C   UNL     1      29.824  -0.498  53.816  0.00  0.00    +0.000 C 
ATOM     13  N   UNL     1      28.413  -0.775  54.115  0.00  0.00    +0.000 N 
ATOM     14  C   UNL     1      27.805   0.393  54.749  0.00  0.00    +0.000 C 
ATOM     15  C   UNL     1      26.339   0.597  54.546  0.00  0.00    +0.000 C 
ATOM     16  C   UNL     1      25.624  -0.062  53.625  0.00  0.00    +0.000 C 
ATOM     17  C   UNL     1      26.229  -1.117  52.753  0.00  0.00    +0.000 C 
ATOM     18  C   UNL     1      27.748  -1.306  52.917  0.00  0.00    +0.000 C 
ATOM     19  H   UNL     1      28.305  -1.515  54.807  0.00  0.00    +0.000 HD
ENDBRANCH   1  16
BRANCH   9  20
ATOM     20  C   UNL     1      25.357   4.004  50.280  0.00  0.00    +0.000 A 
ATOM     21  C   UNL     1      26.411   3.430  49.554  0.00  0.00    +0.000 A 
ATOM     22  C   UNL     1      27.282   4.233  48.813  0.00  0.00    +0.000 A 
ATOM     23  C   UNL     1      27.112   5.617  48.795  0.00  0.00    +0.000 A 
ATOM     24  C   UNL     1      26.080   6.200  49.528  0.00  0.00    +0.000 A 
ATOM     25  C   UNL     1      25.205   5.400  50.270  0.00  0.00    +0.000 A 
ATOM     26 CL   UNL     1      23.945   6.190  51.156  0.00  0.00    +0.000 Cl
ENDBRANCH   9  20
BRANCH   2  27
ATOM     27  O   UNL     1      23.565  -1.438  54.917  0.00  0.00    +0.000 OA
ATOM     28  H   UNL     1      23.613  -2.322  54.610  0.00  0.00    +0.000 HD
ENDBRANCH   2  27
BRANCH   4  29
ATOM     29  O   UNL     1      20.162   1.147  52.843  0.00  0.00    +0.000 OA
ATOM     30  H   UNL     1      19.561   0.959  53.537  0.00  0.00    +0.000 HD
ENDBRANCH   4  29
TORSDOF 4
ENDMDL
MODEL 3
REMARK VINA RESULT:    -9.575      2.109      5.705
REMARK INTER + INTRA:         -12.243
REMARK INTER:                 -11.890
REMARK INTRA:                  -0.352
REMARK UNBOUND:                -0.988
REMARK  Name = 
REMARK  5 active torsions:
REMARK  status: ('A' for Active; 'I' for Inactive)
REMARK    1  A    between atoms: C_1  and  N_2
REMARK    2  A    between atoms: C_5  and  C_6
REMARK    3  A    between atoms: C_7  and  O_8
REMARK    4  A    between atoms: C_10  and  O_11
REMARK    5  A    between atoms: C_16  and  C_17
REMARK                            x       y       z     vdW  Elec       q    Type
REMARK                         _______ _______ _______ _____ _____    ______ ____
ROOT
ATOM      1  C   UNL     1      24.512  -0.272  54.024  0.00  0.00    +0.000 A 
ATOM      2  C   UNL     1      23.895  -1.111  54.975  0.00  0.00    +0.000 A 
ATOM      3  C   UNL     1      22.518  -1.090  55.166  0.00  0.00    +0.000 A 
ATOM      4  C   UNL     1      21.736  -0.222  54.405  0.00  0.00    +0.000 A 
ATOM      5  C   UNL     1      22.315   0.627  53.447  0.00  0.00    +0.000 A 
ATOM      6  C   UNL     1      21.469   1.565  52.638  0.00  0.00    +0.000 A 
ATOM      7  O   UNL     1      20.246   1.623  52.735  0.00  0.00    +0.000 OA
ATOM      8  O   UNL     1      22.117   2.385  51.761  0.00  0.00    +0.000 OA
ATOM      9  C   UNL     1      23.503   2.335  51.584  0.00  0.00    +0.000 A 
ATOM     10  C   UNL     1      24.298   1.493  52.247  0.00  0.00    +0.000 A 
ATOM     11  C   UNL     1      23.710   0.598  53.250  0.00  0.00    +0.000 A 
ENDROOT
BRANCH   1  16
ATOM     12  C   UNL     1      30.129  -1.154  53.915  0.00  0.00    +0.000 C 
ATOM     13  N   UNL     1      28.880  -0.470  53.552  0.00  0.00    +0.000 N 
ATOM     14  C   UNL     1      27.998  -1.396  52.846  0.00  0.00    +0.000 C 
ATOM     15  C   UNL     1      26.527  -1.165  52.965  0.00  0.00    +0.000 C 
ATOM     16  C   UNL     1      25.980  -0.341  53.869  0.00  0.00    +0.000 C 
ATOM     17  C   UNL     1      26.813   0.473  54.809  0.00  0.00    +0.000 C 
ATOM     18  C   UNL     1      28.328   0.212  54.731  0.00  0.00    +0.000 C 
ATOM     19  H   UNL     1      29.035   0.282  52.881  0.00  0.00    +0.000 HD
ENDBRANCH   1  16
BRANCH   9  20
ATOM     20  C   UNL     1      24.013   3.309  50.613  0.00  0.00    +0.000 A 
ATOM     21  C   UNL     1      23.095   4.056  49.859  0.00  0.00    +0.000 A 
ATOM     22  C   UNL     1      23.541   5.037  48.969  0.00  0.00    +0.000 A 
ATOM     23  C   UNL     1      24.906   5.276  48.820  0.00  0.00    +0.000 A 
ATOM     24  C   UNL     1      25.827   4.527  49.550  0.00  0.00    +0.000 A 
ATOM     25  C   UNL     1      25.386   3.546  50.442  0.00  0.00    +0.000 A 
ATOM     26 CL   UNL     1      26.584   2.654  51.317  0.00  0.00    +0.000 Cl
ENDBRANCH   9  20
BRANCH   2  27
ATOM     27  O   UNL     1      24.665  -1.957  55.729  0.00  0.00    +0.000 OA
ATOM     28  H   UNL     1      24.867  -1.741  56.617  0.00  0.00    +0.000 HD
ENDBRANCH   2  27
BRANCH   4  29
ATOM     29  O   UNL     1      20.382  -0.226  54.620  0.00  0.00    +0.000 OA
ATOM     30  H   UNL     1      19.945   0.566  54.862  0.00  0.00    +0.000 HD
ENDBRANCH   4  29
TORSDOF 4
ENDMDL
MODEL 4
REMARK VINA RESULT:    -8.845      2.734      5.045
REMARK INTER + INTRA:         -11.384
REMARK INTER:                 -10.669
REMARK INTRA:                  -0.716
REMARK UNBOUND:                -0.988
REMARK  Name = 
REMARK  5 active torsions:
REMARK  status: ('A' for Active; 'I' for Inactive)
REMARK    1  A    between atoms: C_1  and  N_2
REMARK    2  A    between atoms: C_5  and  C_6
REMARK    3  A    between atoms: C_7  and  O_8
REMARK    4  A    between atoms: C_10  and  O_11
REMARK    5  A    between atoms: C_16  and  C_17
REMARK                            x       y       z     vdW  Elec       q    Type
REMARK                         _______ _______ _______ _____ _____    ______ ____
ROOT
ATOM      1  C   UNL     1      22.579   0.530  52.658  0.00  0.00    +0.000 A 
ATOM      2  C   UNL     1      22.381  -0.554  53.539  0.00  0.00    +0.000 A 
ATOM      3  C   UNL     1      23.431  -1.075  54.285  0.00  0.00    +0.000 A 
ATOM      4  C   UNL     1      24.703  -0.517  54.156  0.00  0.00    +0.000 A 
ATOM      5  C   UNL     1      24.938   0.563  53.291  0.00  0.00    +0.000 A 
ATOM      6  C   UNL     1      26.310   1.153  53.150  0.00  0.00    +0.000 A 
ATOM      7  O   UNL     1      27.281   0.760  53.792  0.00  0.00    +0.000 OA
ATOM      8  O   UNL     1      26.459   2.171  52.255  0.00  0.00    +0.000 OA
ATOM      9  C   UNL     1      25.381   2.682  51.525  0.00  0.00    +0.000 A 
ATOM     10  C   UNL     1      24.133   2.222  51.641  0.00  0.00    +0.000 A 
ATOM     11  C   UNL     1      23.869   1.095  52.541  0.00  0.00    +0.000 A 
ENDROOT
BRANCH   1  16
ATOM     12  C   UNL     1      18.626   2.998  49.399  0.00  0.00    +0.000 C 
ATOM     13  N   UNL     1      19.125   2.031  50.386  0.00  0.00    +0.000 N 
ATOM     14  C   UNL     1      20.125   1.164  49.764  0.00  0.00    +0.000 C 
ATOM     15  C   UNL     1      21.185   0.598  50.650  0.00  0.00    +0.000 C 
ATOM     16  C   UNL     1      21.421   1.039  51.893  0.00  0.00    +0.000 C 
ATOM     17  C   UNL     1      20.589   2.108  52.529  0.00  0.00    +0.000 C 
ATOM     18  C   UNL     1      19.522   2.735  51.613  0.00  0.00    +0.000 C 
ATOM     19  H   UNL     1      18.398   1.386  50.694  0.00  0.00    +0.000 HD
ENDBRANCH   1  16
BRANCH   9  20
ATOM     20  C   UNL     1      25.747   3.760  50.601  0.00  0.00    +0.000 A 
ATOM     21  C   UNL     1      26.836   3.570  49.736  0.00  0.00    +0.000 A 
ATOM     22  C   UNL     1      27.177   4.548  48.799  0.00  0.00    +0.000 A 
ATOM     23  C   UNL     1      26.439   5.728  48.721  0.00  0.00    +0.000 A 
ATOM     24  C   UNL     1      25.367   5.936  49.588  0.00  0.00    +0.000 A 
ATOM     25  C   UNL     1      25.022   4.959  50.526  0.00  0.00    +0.000 A 
ATOM     26 CL   UNL     1      23.679   5.283  51.570  0.00  0.00    +0.000 Cl
ENDBRANCH   9  20
BRANCH   2  27
ATOM     27  O   UNL     1      21.132  -1.107  53.658  0.00  0.00    +0.000 OA
ATOM     28  H   UNL     1      20.464  -0.656  54.135  0.00  0.00    +0.000 HD
ENDBRANCH   2  27
BRANCH   4  29
ATOM     29  O   UNL     1      25.716  -1.057  54.904  0.00  0.00    +0.000 OA
ATOM     30  H   UNL     1      26.547  -0.625  54.949  0.00  0.00    +0.000 HD
ENDBRANCH   4  29
TORSDOF 4
ENDMDL
MODEL 5
REMARK VINA RESULT:    -8.550      2.327      5.611
REMARK INTER + INTRA:         -11.038
REMARK INTER:                 -10.985
REMARK INTRA:                  -0.053
REMARK UNBOUND:                -0.988
REMARK  Name = 
REMARK  5 active torsions:
REMARK  status: ('A' for Active; 'I' for Inactive)
REMARK    1  A    between atoms: C_1  and  N_2
REMARK    2  A    between atoms: C_5  and  C_6
REMARK    3  A    between atoms: C_7  and  O_8
REMARK    4  A    between atoms: C_10  and  O_11
REMARK    5  A    between atoms: C_16  and  C_17
REMARK                            x       y       z     vdW  Elec       q    Type
REMARK                         _______ _______ _______ _____ _____    ______ ____
ROOT
ATOM      1  C   UNL     1      25.145   1.374  53.224  0.00  0.00    +0.000 A 
ATOM      2  C   UNL     1      26.228   1.124  54.092  0.00  0.00    +0.000 A 
ATOM      3  C   UNL     1      26.176   0.098  55.029  0.00  0.00    +0.000 A 
ATOM      4  C   UNL     1      25.032  -0.694  55.111  0.00  0.00    +0.000 A 
ATOM      5  C   UNL     1      23.934  -0.476  54.262  0.00  0.00    +0.000 A 
ATOM      6  C   UNL     1      22.702  -1.325  54.362  0.00  0.00    +0.000 A 
ATOM      7  O   UNL     1      22.592  -2.263  55.149  0.00  0.00    +0.000 OA
ATOM      8  O   UNL     1      21.666  -1.017  53.530  0.00  0.00    +0.000 OA
ATOM      9  C   UNL     1      21.751   0.015  52.590  0.00  0.00    +0.000 A 
ATOM     10  C   UNL     1      22.837   0.775  52.431  0.00  0.00    +0.000 A 
ATOM     11  C   UNL     1      23.992   0.560  53.308  0.00  0.00    +0.000 A 
ENDROOT
BRANCH   1  16
ATOM     12  C   UNL     1      25.033   5.262  49.076  0.00  0.00    +0.000 C 
ATOM     13  N   UNL     1      25.502   4.672  50.336  0.00  0.00    +0.000 N 
ATOM     14  C   UNL     1      24.401   4.619  51.296  0.00  0.00    +0.000 C 
ATOM     15  C   UNL     1      24.440   3.535  52.323  0.00  0.00    +0.000 C 
ATOM     16  C   UNL     1      25.263   2.480  52.250  0.00  0.00    +0.000 C 
ATOM     17  C   UNL     1      26.268   2.329  51.152  0.00  0.00    +0.000 C 
ATOM     18  C   UNL     1      26.210   3.414  50.062  0.00  0.00    +0.000 C 
ATOM     19  H   UNL     1      26.202   5.255  50.796  0.00  0.00    +0.000 HD
ENDBRANCH   1  16
BRANCH   9  20
ATOM     20  C   UNL     1      20.528   0.204  51.804  0.00  0.00    +0.000 A 
ATOM     21  C   UNL     1      19.302  -0.207  52.349  0.00  0.00    +0.000 A 
ATOM     22  C   UNL     1      18.109   0.011  51.657  0.00  0.00    +0.000 A 
ATOM     23  C   UNL     1      18.128   0.637  50.411  0.00  0.00    +0.000 A 
ATOM     24  C   UNL     1      19.342   1.033  49.851  0.00  0.00    +0.000 A 
ATOM     25  C   UNL     1      20.539   0.817  50.541  0.00  0.00    +0.000 A 
ATOM     26 CL   UNL     1      22.008   1.334  49.787  0.00  0.00    +0.000 Cl
ENDBRANCH   9  20
BRANCH   2  27
ATOM     27  O   UNL     1      27.349   1.908  54.017  0.00  0.00    +0.000 OA
ATOM     28  H   UNL     1      27.604   2.283  53.197  0.00  0.00    +0.000 HD
ENDBRANCH   2  27
BRANCH   4  29
ATOM     29  O   UNL     1      25.012  -1.695  56.047  0.00  0.00    +0.000 OA
ATOM     30  H   UNL     1      24.376  -1.682  56.735  0.00  0.00    +0.000 HD
ENDBRANCH   4  29
TORSDOF 4
ENDMDL
MODEL 6
REMARK VINA RESULT:    -8.485      2.932      6.749
REMARK INTER + INTRA:         -10.962
REMARK INTER:                 -10.619
REMARK INTRA:                  -0.343
REMARK UNBOUND:                -0.988
REMARK  Name = 
REMARK  5 active torsions:
REMARK  status: ('A' for Active; 'I' for Inactive)
REMARK    1  A    between atoms: C_1  and  N_2
REMARK    2  A    between atoms: C_5  and  C_6
REMARK    3  A    between atoms: C_7  and  O_8
REMARK    4  A    between atoms: C_10  and  O_11
REMARK    5  A    between atoms: C_16  and  C_17
REMARK                            x       y       z     vdW  Elec       q    Type
REMARK                         _______ _______ _______ _____ _____    ______ ____
ROOT
ATOM      1  C   UNL     1      25.139   2.433  51.253  0.00  0.00    +0.000 A 
ATOM      2  C   UNL     1      25.853   3.344  50.447  0.00  0.00    +0.000 A 
ATOM      3  C   UNL     1      25.206   4.121  49.494  0.00  0.00    +0.000 A 
ATOM      4  C   UNL     1      23.826   3.995  49.332  0.00  0.00    +0.000 A 
ATOM      5  C   UNL     1      23.082   3.099  50.118  0.00  0.00    +0.000 A 
ATOM      6  C   UNL     1      21.600   2.961  49.933  0.00  0.00    +0.000 A 
ATOM      7  O   UNL     1      20.956   3.629  49.127  0.00  0.00    +0.000 OA
ATOM      8  O   UNL     1      20.961   2.037  50.707  0.00  0.00    +0.000 OA
ATOM      9  C   UNL     1      21.638   1.276  51.665  0.00  0.00    +0.000 A 
ATOM     10  C   UNL     1      22.948   1.387  51.899  0.00  0.00    +0.000 A 
ATOM     11  C   UNL     1      23.740   2.318  51.089  0.00  0.00    +0.000 A 
ENDROOT
BRANCH   1  16
ATOM     12  C   UNL     1      28.642  -0.214  54.867  0.00  0.00    +0.000 C 
ATOM     13  N   UNL     1      27.351   0.055  54.219  0.00  0.00    +0.000 N 
ATOM     14  C   UNL     1      26.934   1.427  54.504  0.00  0.00    +0.000 C 
ATOM     15  C   UNL     1      26.073   2.105  53.489  0.00  0.00    +0.000 C 
ATOM     16  C   UNL     1      25.887   1.636  52.248  0.00  0.00    +0.000 C 
ATOM     17  C   UNL     1      26.486   0.344  51.789  0.00  0.00    +0.000 C 
ATOM     18  C   UNL     1      27.413  -0.344  52.807  0.00  0.00    +0.000 C 
ATOM     19  H   UNL     1      26.600  -0.516  54.606  0.00  0.00    +0.000 HD
ENDBRANCH   1  16
BRANCH   9  20
ATOM     20  C   UNL     1      20.782   0.325  52.380  0.00  0.00    +0.000 A 
ATOM     21  C   UNL     1      19.431   0.224  52.016  0.00  0.00    +0.000 A 
ATOM     22  C   UNL     1      18.598  -0.714  52.632  0.00  0.00    +0.000 A 
ATOM     23  C   UNL     1      19.105  -1.556  53.621  0.00  0.00    +0.000 A 
ATOM     24  C   UNL     1      20.442  -1.452  54.004  0.00  0.00    +0.000 A 
ATOM     25  C   UNL     1      21.278  -0.515  53.390  0.00  0.00    +0.000 A 
ATOM     26 CL   UNL     1      22.926  -0.441  53.913  0.00  0.00    +0.000 Cl
ENDBRANCH   9  20
BRANCH   2  27
ATOM     27  O   UNL     1      27.210   3.461  50.601  0.00  0.00    +0.000 OA
ATOM     28  H   UNL     1      27.578   4.260  50.923  0.00  0.00    +0.000 HD
ENDBRANCH   2  27
BRANCH   4  29
ATOM     29  O   UNL     1      23.219   4.774  48.382  0.00  0.00    +0.000 OA
ATOM     30  H   UNL     1      22.485   5.308  48.613  0.00  0.00    +0.000 HD
ENDBRANCH   4  29
TORSDOF 4
ENDMDL
MODEL 7
REMARK VINA RESULT:    -8.370      2.625      5.677
REMARK INTER + INTRA:         -10.826
REMARK INTER:                 -10.560
REMARK INTRA:                  -0.266
REMARK UNBOUND:                -0.988
REMARK  Name = 
REMARK  5 active torsions:
REMARK  status: ('A' for Active; 'I' for Inactive)
REMARK    1  A    between atoms: C_1  and  N_2
REMARK    2  A    between atoms: C_5  and  C_6
REMARK    3  A    between atoms: C_7  and  O_8
REMARK    4  A    between atoms: C_10  and  O_11
REMARK    5  A    between atoms: C_16  and  C_17
REMARK                            x       y       z     vdW  Elec       q    Type
REMARK                         _______ _______ _______ _____ _____    ______ ____
ROOT
ATOM      1  C   UNL     1      24.912   2.788  50.986  0.00  0.00    +0.000 A 
ATOM      2  C   UNL     1      26.300   3.032  51.052  0.00  0.00    +0.000 A 
ATOM      3  C   UNL     1      27.138   2.216  51.803  0.00  0.00    +0.000 A 
ATOM      4  C   UNL     1      26.595   1.140  52.504  0.00  0.00    +0.000 A 
ATOM      5  C   UNL     1      25.218   0.865  52.461  0.00  0.00    +0.000 A 
ATOM      6  C   UNL     1      24.638  -0.288  53.225  0.00  0.00    +0.000 A 
ATOM      7  O   UNL     1      25.318  -1.065  53.891  0.00  0.00    +0.000 OA
ATOM      8  O   UNL     1      23.286  -0.457  53.162  0.00  0.00    +0.000 OA
ATOM      9  C   UNL     1      22.469   0.374  52.390  0.00  0.00    +0.000 A 
ATOM     10  C   UNL     1      22.936   1.389  51.660  0.00  0.00    +0.000 A 
ATOM     11  C   UNL     1      24.371   1.689  51.692  0.00  0.00    +0.000 A 
ENDROOT
BRANCH   1  16
ATOM     12  C   UNL     1      21.077   5.906  48.174  0.00  0.00    +0.000 C 
ATOM     13  N   UNL     1      22.433   5.488  48.555  0.00  0.00    +0.000 N 
ATOM     14  C   UNL     1      22.639   5.725  49.983  0.00  0.00    +0.000 C 
ATOM     15  C   UNL     1      23.603   4.832  50.693  0.00  0.00    +0.000 C 
ATOM     16  C   UNL     1      24.075   3.693  50.170  0.00  0.00    +0.000 C 
ATOM     17  C   UNL     1      23.718   3.244  48.788  0.00  0.00    +0.000 C 
ATOM     18  C   UNL     1      22.689   4.128  48.060  0.00  0.00    +0.000 C 
ATOM     19  H   UNL     1      23.151   6.055  48.105  0.00  0.00    +0.000 HD
ENDBRANCH   1  16
BRANCH   9  20
ATOM     20  C   UNL     1      21.043   0.044  52.469  0.00  0.00    +0.000 A 
ATOM     21  C   UNL     1      20.193   0.459  51.433  0.00  0.00    +0.000 A 
ATOM     22  C   UNL     1      18.840   0.111  51.442  0.00  0.00    +0.000 A 
ATOM     23  C   UNL     1      18.322  -0.651  52.489  0.00  0.00    +0.000 A 
ATOM     24  C   UNL     1      19.153  -1.054  53.533  0.00  0.00    +0.000 A 
ATOM     25  C   UNL     1      20.507  -0.707  53.527  0.00  0.00    +0.000 A 
ATOM     26 CL   UNL     1      21.481  -1.241  54.855  0.00  0.00    +0.000 Cl
ENDBRANCH   9  20
BRANCH   2  27
ATOM     27  O   UNL     1      26.831   4.095  50.370  0.00  0.00    +0.000 OA
ATOM     28  H   UNL     1      26.651   4.203  49.457  0.00  0.00    +0.000 HD
ENDBRANCH   2  27
BRANCH   4  29
ATOM     29  O   UNL     1      27.449   0.357  53.237  0.00  0.00    +0.000 OA
ATOM     30  H   UNL     1      27.427   0.389  54.173  0.00  0.00    +0.000 HD
ENDBRANCH   4  29
TORSDOF 4
ENDMDL
MODEL 8
REMARK VINA RESULT:    -8.188      2.462      5.612
REMARK INTER + INTRA:         -10.612
REMARK INTER:                 -10.860
REMARK INTRA:                   0.249
REMARK UNBOUND:                -0.988
REMARK  Name = 
REMARK  5 active torsions:
REMARK  status: ('A' for Active; 'I' for Inactive)
REMARK    1  A    between atoms: C_1  and  N_2
REMARK    2  A    between atoms: C_5  and  C_6
REMARK    3  A    between atoms: C_7  and  O_8
REMARK    4  A    between atoms: C_10  and  O_11
REMARK    5  A    between atoms: C_16  and  C_17
REMARK                            x       y       z     vdW  Elec       q    Type
REMARK                         _______ _______ _______ _____ _____    ______ ____
ROOT
ATOM      1  C   UNL     1      25.711   2.084  52.253  0.00  0.00    +0.000 A 
ATOM      2  C   UNL     1      26.900   1.944  52.999  0.00  0.00    +0.000 A 
ATOM      3  C   UNL     1      27.006   1.000  54.013  0.00  0.00    +0.000 A 
ATOM      4  C   UNL     1      25.915   0.179  54.298  0.00  0.00    +0.000 A 
ATOM      5  C   UNL     1      24.715   0.289  53.576  0.00  0.00    +0.000 A 
ATOM      6  C   UNL     1      23.542  -0.590  53.894  0.00  0.00    +0.000 A 
ATOM      7  O   UNL     1      23.568  -1.461  54.759  0.00  0.00    +0.000 OA
ATOM      8  O   UNL     1      22.401  -0.388  53.173  0.00  0.00    +0.000 OA
ATOM      9  C   UNL     1      22.328   0.564  52.151  0.00  0.00    +0.000 A 
ATOM     10  C   UNL     1      23.352   1.344  51.800  0.00  0.00    +0.000 A 
ATOM     11  C   UNL     1      24.613   1.242  52.543  0.00  0.00    +0.000 A 
ENDROOT
BRANCH   1  16
ATOM     12  C   UNL     1      26.092   6.388  48.555  0.00  0.00    +0.000 C 
ATOM     13  N   UNL     1      25.560   5.121  49.075  0.00  0.00    +0.000 N 
ATOM     14  C   UNL     1      26.624   4.120  49.119  0.00  0.00    +0.000 C 
ATOM     15  C   UNL     1      26.515   3.051  50.156  0.00  0.00    +0.000 C 
ATOM     16  C   UNL     1      25.663   3.108  51.187  0.00  0.00    +0.000 C 
ATOM     17  C   UNL     1      24.692   4.234  51.355  0.00  0.00    +0.000 C 
ATOM     18  C   UNL     1      24.823   5.367  50.322  0.00  0.00    +0.000 C 
ATOM     19  H   UNL     1      24.864   4.712  48.452  0.00  0.00    +0.000 HD
ENDBRANCH   1  16
BRANCH   9  20
ATOM     20  C   UNL     1      21.012   0.645  51.509  0.00  0.00    +0.000 A 
ATOM     21  C   UNL     1      20.918   1.207  50.227  0.00  0.00    +0.000 A 
ATOM     22  C   UNL     1      19.693   1.245  49.557  0.00  0.00    +0.000 A 
ATOM     23  C   UNL     1      18.549   0.727  50.163  0.00  0.00    +0.000 A 
ATOM     24  C   UNL     1      18.627   0.183  51.444  0.00  0.00    +0.000 A 
ATOM     25  C   UNL     1      19.851   0.142  52.117  0.00  0.00    +0.000 A 
ATOM     26 CL   UNL     1      19.876  -0.548  53.704  0.00  0.00    +0.000 Cl
ENDBRANCH   9  20
BRANCH   2  27
ATOM     27  O   UNL     1      27.969   2.757  52.723  0.00  0.00    +0.000 OA
ATOM     28  H   UNL     1      28.825   2.522  53.021  0.00  0.00    +0.000 HD
ENDBRANCH   2  27
BRANCH   4  29
ATOM     29  O   UNL     1      26.051  -0.739  55.306  0.00  0.00    +0.000 OA
ATOM     30  H   UNL     1      26.863  -1.193  55.420  0.00  0.00    +0.000 HD
ENDBRANCH   4  29
TORSDOF 4
ENDMDL
MODEL 9
REMARK VINA RESULT:    -7.810      1.694      2.325
REMARK INTER + INTRA:         -10.168
REMARK INTER:                  -9.609
REMARK INTRA:                  -0.559
REMARK UNBOUND:                -0.988
REMARK  Name = 
REMARK  5 active torsions:
REMARK  status: ('A' for Active; 'I' for Inactive)
REMARK    1  A    between atoms: C_1  and  N_2
REMARK    2  A    between atoms: C_5  and  C_6
REMARK    3  A    between atoms: C_7  and  O_8
REMARK    4  A    between atoms: C_10  and  O_11
REMARK    5  A    between atoms: C_16  and  C_17
REMARK                            x       y       z     vdW  Elec       q    Type
REMARK                         _______ _______ _______ _____ _____    ______ ____
ROOT
ATOM      1  C   UNL     1      22.345   3.269  51.506  0.00  0.00    +0.000 A 
ATOM      2  C   UNL     1      20.966   3.281  51.210  0.00  0.00    +0.000 A 
ATOM      3  C   UNL     1      20.128   2.261  51.645  0.00  0.00    +0.000 A 
ATOM      4  C   UNL     1      20.663   1.206  52.384  0.00  0.00    +0.000 A 
ATOM      5  C   UNL     1      22.032   1.160  52.699  0.00  0.00    +0.000 A 
ATOM      6  C   UNL     1      22.603   0.019  53.485  0.00  0.00    +0.000 A 
ATOM      7  O   UNL     1      21.922  -0.906  53.922  0.00  0.00    +0.000 OA
ATOM      8  O   UNL     1      23.949   0.031  53.710  0.00  0.00    +0.000 OA
ATOM      9  C   UNL     1      24.765   1.077  53.268  0.00  0.00    +0.000 A 
ATOM     10  C   UNL     1      24.303   2.136  52.599  0.00  0.00    +0.000 A 
ATOM     11  C   UNL     1      22.877   2.201  52.264  0.00  0.00    +0.000 A 
ENDROOT
BRANCH   1  16
ATOM     12  C   UNL     1      24.897   7.866  49.340  0.00  0.00    +0.000 C 
ATOM     13  N   UNL     1      24.845   6.582  50.051  0.00  0.00    +0.000 N 
ATOM     14  C   UNL     1      24.030   6.718  51.257  0.00  0.00    +0.000 C 
ATOM     15  C   UNL     1      23.321   5.498  51.746  0.00  0.00    +0.000 C 
ATOM     16  C   UNL     1      23.181   4.384  51.015  0.00  0.00    +0.000 C 
ATOM     17  C   UNL     1      23.784   4.246  49.652  0.00  0.00    +0.000 C 
ATOM     18  C   UNL     1      24.478   5.511  49.115  0.00  0.00    +0.000 C 
ATOM     19  H   UNL     1      25.760   6.301  50.404  0.00  0.00    +0.000 HD
ENDBRANCH   1  16
BRANCH   9  20
ATOM     20  C   UNL     1      26.184   0.898  53.588  0.00  0.00    +0.000 A 
ATOM     21  C   UNL     1      26.532   0.269  54.793  0.00  0.00    +0.000 A 
ATOM     22  C   UNL     1      27.872   0.024  55.105  0.00  0.00    +0.000 A 
ATOM     23  C   UNL     1      28.877   0.411  54.219  0.00  0.00    +0.000 A 
ATOM     24  C   UNL     1      28.545   1.054  53.028  0.00  0.00    +0.000 A 
ATOM     25  C   UNL     1      27.205   1.299  52.712  0.00  0.00    +0.000 A 
ATOM     26 CL   UNL     1      26.864   2.100  51.216  0.00  0.00    +0.000 Cl
ENDBRANCH   9  20
BRANCH   2  27
ATOM     27  O   UNL     1      20.442   4.314  50.477  0.00  0.00    +0.000 OA
ATOM     28  H   UNL     1      20.051   4.145  49.643  0.00  0.00    +0.000 HD
ENDBRANCH   2  27
BRANCH   4  29
ATOM     29  O   UNL     1      19.811   0.215  52.795  0.00  0.00    +0.000 OA
ATOM     30  H   UNL     1      19.053   0.007  52.284  0.00  0.00    +0.000 HD
ENDBRANCH   4  29
TORSDOF 4
ENDMDL
