MODEL 1
REMARK VINA RESULT:    -8.822      0.000      0.000
REMARK INTER + INTRA:         -12.790
REMARK INTER:                 -11.916
REMARK INTRA:                  -0.874
REMARK UNBOUND:                -0.874
REMARK  Name = 
REMARK  8 active torsions:
REMARK  status: ('A' for Active; 'I' for Inactive)
REMARK    1  A    between atoms: C_1  and  O_2
REMARK    2  A    between atoms: O_2  and  C_3
REMARK    3  A    between atoms: C_6  and  C_7
REMARK    4  A    between atoms: C_10  and  N_11
REMARK    5  A    between atoms: C_13  and  C_14
REMARK    6  A    between atoms: C_14  and  N_15
REMARK    7  A    between atoms: C_16  and  C_17
REMARK    8  A    between atoms: C_23  and  C_24
REMARK                            x       y       z     vdW  Elec       q    Type
REMARK                         _______ _______ _______ _____ _____    ______ ____
ROOT
ATOM      1  C   UNL     1      23.238   0.380  53.098  0.00  0.00    +0.000 A 
ATOM      2  C   UNL     1      22.533  -0.445  53.988  0.00  0.00    +0.000 A 
ATOM      3  C   UNL     1      21.163  -0.671  53.834  0.00  0.00    +0.000 A 
ATOM      4  C   UNL     1      20.460  -0.099  52.774  0.00  0.00    +0.000 A 
ATOM      5  C   UNL     1      21.169   0.721  51.882  0.00  0.00    +0.000 A 
ATOM      6  C   UNL     1      22.554   0.971  52.023  0.00  0.00    +0.000 A 
ENDROOT
BRANCH   1  10
ATOM      7  C   UNL     1      27.868   0.138  53.368  0.00  0.00    +0.000 A 
ATOM      8  C   UNL     1      26.858  -0.726  53.222  0.00  0.00    +0.000 A 
ATOM      9  C   UNL     1      25.438  -0.536  53.084  0.00  0.00    +0.000 A 
ATOM     10  C   UNL     1      24.691   0.548  53.334  0.00  0.00    +0.000 A 
ATOM     11  C   UNL     1      25.188   1.820  53.809  0.00  0.00    +0.000 A 
ATOM     12  C   UNL     1      26.444   2.271  53.861  0.00  0.00    +0.000 A 
ATOM     13  C   UNL     1      27.721   1.629  53.483  0.00  0.00    +0.000 A 
ATOM     14  O   UNL     1      28.682   2.384  53.318  0.00  0.00    +0.000 OA
BRANCH   7  16
ATOM     15  C   UNL     1      29.199  -1.859  53.296  0.00  0.00    +0.000 C 
ATOM     16  O   UNL     1      29.146  -0.436  53.309  0.00  0.00    +0.000 OA
ENDBRANCH   7  16
ENDBRANCH   1  10
BRANCH   4  17
ATOM     17  N   UNL     1      19.087  -0.366  52.569  0.00  0.00    +0.000 N 
ATOM     18  C   UNL     1      18.230   0.476  51.794  0.00  0.00    +0.000 C 
ATOM     19  C   UNL     1      17.003  -0.384  51.592  0.00  0.00    +0.000 C 
ATOM     20  O   UNL     1      17.055  -1.333  52.668  0.00  0.00    +0.000 OA
ATOM     21  C   UNL     1      18.349  -1.403  53.118  0.00  0.00    +0.000 C 
ATOM     22  O   UNL     1      18.706  -2.252  53.917  0.00  0.00    +0.000 OA
BRANCH  19  23
ATOM     23  C   UNL     1      15.716   0.434  51.676  0.00  0.00    +0.000 C 
BRANCH  23  24
ATOM     24  N   UNL     1      15.971   1.859  51.777  0.00  0.00    +0.000 N 
ATOM     25  C   UNL     1      15.162   2.682  52.522  0.00  0.00    +0.000 C 
ATOM     26  C   UNL     1      15.588   4.126  52.537  0.00  0.00    +0.000 C 
ATOM     27  O   UNL     1      14.167   2.283  53.120  0.00  0.00    +0.000 OA
ATOM     28  H   UNL     1      16.742   2.245  51.301  0.00  0.00    +0.000 HD
ENDBRANCH  23  24
ENDBRANCH  19  23
ENDBRANCH   4  17
BRANCH   6  29
ATOM     29  C   UNL     1      23.205   1.856  50.984  0.00  0.00    +0.000 C 
ATOM     30  F   UNL     1      24.505   1.591  50.691  0.00  0.00    +0.000 F 
ATOM     31  F   UNL     1      22.545   1.788  49.790  0.00  0.00    +0.000 F 
ATOM     32  F   UNL     1      23.169   3.171  51.341  0.00  0.00    +0.000 F 
ENDBRANCH   6  29
TORSDOF 6
ENDMDL
MODEL 2
REMARK VINA RESULT:    -8.616      2.324      2.879
REMARK INTER + INTRA:         -12.511
REMARK INTER:                 -11.599
REMARK INTRA:                  -0.912
REMARK UNBOUND:                -0.874
REMARK  Name = 
REMARK  8 active torsions:
REMARK  status: ('A' for Active; 'I' for Inactive)
REMARK    1  A    between atoms: C_1  and  O_2
REMARK    2  A    between atoms: O_2  and  C_3
REMARK    3  A    between atoms: C_6  and  C_7
REMARK    4  A    between atoms: C_10  and  N_11
REMARK    5  A    between atoms: C_13  and  C_14
REMARK    6  A    between atoms: C_14  and  N_15
REMARK    7  A    between atoms: C_16  and  C_17
REMARK    8  A    between atoms: C_23  and  C_24
REMARK                            x       y       z     vdW  Elec       q    Type
REMARK                         _______ _______ _______ _____ _____    ______ ____
ROOT
ATOM      1  C   UNL     1      23.585   0.847  52.767  0.00  0.00    +0.000 A 
ATOM      2  C   UNL     1      23.358   1.788  51.751  0.00  0.00    +0.000 A 
ATOM      3  C   UNL     1      22.062   2.126  51.355  0.00  0.00    +0.000 A 
ATOM      4  C   UNL     1      20.953   1.553  51.977  0.00  0.00    +0.000 A 
ATOM      5  C   UNL     1      21.184   0.615  52.996  0.00  0.00    +0.000 A 
ATOM      6  C   UNL     1      22.487   0.250  53.407  0.00  0.00    +0.000 A 
ENDROOT
BRANCH   1  10
ATOM      7  C   UNL     1      27.961  -0.643  53.218  0.00  0.00    +0.000 A 
ATOM      8  C   UNL     1      26.808  -1.142  52.759  0.00  0.00    +0.000 A 
ATOM      9  C   UNL     1      25.500  -0.563  52.604  0.00  0.00    +0.000 A 
ATOM     10  C   UNL     1      24.995   0.563  53.128  0.00  0.00    +0.000 A 
ATOM     11  C   UNL     1      25.702   1.479  53.993  0.00  0.00    +0.000 A 
ATOM     12  C   UNL     1      27.010   1.558  54.252  0.00  0.00    +0.000 A 
ATOM     13  C   UNL     1      28.145   0.741  53.771  0.00  0.00    +0.000 A 
ATOM     14  O   UNL     1      29.265   1.239  53.899  0.00  0.00    +0.000 OA
BRANCH   7  16
ATOM     15  C   UNL     1      28.826  -2.883  53.198  0.00  0.00    +0.000 C 
ATOM     16  O   UNL     1      29.070  -1.486  53.062  0.00  0.00    +0.000 OA
ENDBRANCH   7  16
ENDBRANCH   1  10
BRANCH   4  17
ATOM     17  N   UNL     1      19.636   1.929  51.629  0.00  0.00    +0.000 N 
ATOM     18  C   UNL     1      19.131   3.258  51.785  0.00  0.00    +0.000 C 
ATOM     19  C   UNL     1      17.852   3.231  50.981  0.00  0.00    +0.000 C 
ATOM     20  O   UNL     1      17.498   1.840  50.924  0.00  0.00    +0.000 OA
ATOM     21  C   UNL     1      18.628   1.100  51.165  0.00  0.00    +0.000 C 
ATOM     22  O   UNL     1      18.645  -0.110  51.014  0.00  0.00    +0.000 OA
BRANCH  19  23
ATOM     23  C   UNL     1      16.739   4.028  51.658  0.00  0.00    +0.000 C 
BRANCH  23  24
ATOM     24  N   UNL     1      15.570   3.217  51.941  0.00  0.00    +0.000 N 
ATOM     25  C   UNL     1      14.702   3.538  52.956  0.00  0.00    +0.000 C 
ATOM     26  C   UNL     1      13.530   2.603  53.092  0.00  0.00    +0.000 C 
ATOM     27  O   UNL     1      14.866   4.500  53.701  0.00  0.00    +0.000 OA
ATOM     28  H   UNL     1      15.394   2.418  51.393  0.00  0.00    +0.000 HD
ENDBRANCH  23  24
ENDBRANCH  19  23
ENDBRANCH   4  17
BRANCH   6  29
ATOM     29  C   UNL     1      22.599  -0.755  54.531  0.00  0.00    +0.000 C 
ATOM     30  F   UNL     1      23.796  -0.817  55.171  0.00  0.00    +0.000 F 
ATOM     31  F   UNL     1      21.679  -0.511  55.510  0.00  0.00    +0.000 F 
ATOM     32  F   UNL     1      22.344  -2.025  54.103  0.00  0.00    +0.000 F 
ENDBRANCH   6  29
TORSDOF 6
ENDMDL
MODEL 3
REMARK VINA RESULT:    -8.458      2.082      2.504
REMARK INTER + INTRA:         -12.299
REMARK INTER:                 -11.714
REMARK INTRA:                  -0.585
REMARK UNBOUND:                -0.874
REMARK  Name = 
REMARK  8 active torsions:
REMARK  status: ('A' for Active; 'I' for Inactive)
REMARK    1  A    between atoms: C_1  and  O_2
REMARK    2  A    between atoms: O_2  and  C_3
REMARK    3  A    between atoms: C_6  and  C_7
REMARK    4  A    between atoms: C_10  and  N_11
REMARK    5  A    between atoms: C_13  and  C_14
REMARK    6  A    between atoms: C_14  and  N_15
REMARK    7  A    between atoms: C_16  and  C_17
REMARK    8  A    between atoms: C_23  and  C_24
REMARK                            x       y       z     vdW  Elec       q    Type
REMARK                         _______ _______ _______ _____ _____    ______ ____
ROOT
ATOM      1  C   UNL     1      23.388   0.544  52.573  0.00  0.00    +0.000 A 
ATOM      2  C   UNL     1      22.945   1.213  51.422  0.00  0.00    +0.000 A 
ATOM      3  C   UNL     1      21.612   1.137  51.010  0.00  0.00    +0.000 A 
ATOM      4  C   UNL     1      20.678   0.409  51.746  0.00  0.00    +0.000 A 
ATOM      5  C   UNL     1      21.124  -0.255  52.900  0.00  0.00    +0.000 A 
ATOM      6  C   UNL     1      22.470  -0.200  53.332  0.00  0.00    +0.000 A 
ENDROOT
BRANCH   1  10
ATOM      7  C   UNL     1      28.002   0.378  53.089  0.00  0.00    +0.000 A 
ATOM      8  C   UNL     1      27.040  -0.457  52.684  0.00  0.00    +0.000 A 
ATOM      9  C   UNL     1      25.623  -0.282  52.499  0.00  0.00    +0.000 A 
ATOM     10  C   UNL     1      24.817   0.695  52.938  0.00  0.00    +0.000 A 
ATOM     11  C   UNL     1      25.231   1.837  53.721  0.00  0.00    +0.000 A 
ATOM     12  C   UNL     1      26.461   2.300  53.957  0.00  0.00    +0.000 A 
ATOM     13  C   UNL     1      27.784   1.798  53.530  0.00  0.00    +0.000 A 
ATOM     14  O   UNL     1      28.719   2.597  53.605  0.00  0.00    +0.000 OA
BRANCH   7  16
ATOM     15  C   UNL     1      29.678  -1.107  53.953  0.00  0.00    +0.000 C 
ATOM     16  O   UNL     1      29.304  -0.130  52.987  0.00  0.00    +0.000 OA
ENDBRANCH   7  16
ENDBRANCH   1  10
BRANCH   4  17
ATOM     17  N   UNL     1      19.314   0.372  51.376  0.00  0.00    +0.000 N 
ATOM     18  C   UNL     1      18.765   1.162  50.318  0.00  0.00    +0.000 C 
ATOM     19  C   UNL     1      17.410   0.531  50.092  0.00  0.00    +0.000 C 
ATOM     20  O   UNL     1      17.120  -0.137  51.330  0.00  0.00    +0.000 OA
ATOM     21  C   UNL     1      18.303  -0.349  51.991  0.00  0.00    +0.000 C 
ATOM     22  O   UNL     1      18.363  -1.044  52.991  0.00  0.00    +0.000 OA
BRANCH  19  23
ATOM     23  C   UNL     1      16.338   1.579  49.799  0.00  0.00    +0.000 C 
BRANCH  23  24
ATOM     24  N   UNL     1      15.646   2.015  50.997  0.00  0.00    +0.000 N 
ATOM     25  C   UNL     1      15.925   3.223  51.589  0.00  0.00    +0.000 C 
ATOM     26  C   UNL     1      15.095   3.525  52.807  0.00  0.00    +0.000 C 
ATOM     27  O   UNL     1      16.785   3.992  51.170  0.00  0.00    +0.000 OA
ATOM     28  H   UNL     1      14.960   1.431  51.395  0.00  0.00    +0.000 HD
ENDBRANCH  23  24
ENDBRANCH  19  23
ENDBRANCH   4  17
BRANCH   6  29
ATOM     29  C   UNL     1      22.817  -0.941  54.602  0.00  0.00    +0.000 C 
ATOM     30  F   UNL     1      24.140  -1.115  54.860  0.00  0.00    +0.000 F 
ATOM     31  F   UNL     1      22.316  -0.306  55.702  0.00  0.00    +0.000 F 
ATOM     32  F   UNL     1      22.270  -2.191  54.627  0.00  0.00    +0.000 F 
ENDBRANCH   6  29
TORSDOF 6
ENDMDL
MODEL 4
REMARK VINA RESULT:    -8.418      6.912     10.526
REMARK INTER + INTRA:         -12.245
REMARK INTER:                 -10.865
REMARK INTRA:                  -1.380
REMARK UNBOUND:                -0.874
REMARK  Name = 
REMARK  8 active torsions:
REMARK  status: ('A' for Active; 'I' for Inactive)
REMARK    1  A    between atoms: C_1  and  O_2
REMARK    2  A    between atoms: O_2  and  C_3
REMARK    3  A    between atoms: C_6  and  C_7
REMARK    4  A    between atoms: C_10  and  N_11
REMARK    5  A    between atoms: C_13  and  C_14
REMARK    6  A    between atoms: C_14  and  N_15
REMARK    7  A    between atoms: C_16  and  C_17
REMARK    8  A    between atoms: C_23  and  C_24
REMARK                            x       y       z     vdW  Elec       q    Type
REMARK                         _______ _______ _______ _____ _____    ______ ____
ROOT
ATOM      1  C   UNL     1      25.410   3.940  50.232  0.00  0.00    +0.000 A 
ATOM      2  C   UNL     1      26.531   3.645  49.441  0.00  0.00    +0.000 A 
ATOM      3  C   UNL     1      27.240   4.655  48.786  0.00  0.00    +0.000 A 
ATOM      4  C   UNL     1      26.864   5.991  48.918  0.00  0.00    +0.000 A 
ATOM      5  C   UNL     1      25.746   6.284  49.714  0.00  0.00    +0.000 A 
ATOM      6  C   UNL     1      25.007   5.277  50.380  0.00  0.00    +0.000 A 
ENDROOT
BRANCH   1  10
ATOM      7  C   UNL     1      23.863   0.545  52.998  0.00  0.00    +0.000 A 
ATOM      8  C   UNL     1      25.012   1.206  52.823  0.00  0.00    +0.000 A 
ATOM      9  C   UNL     1      25.372   2.305  51.965  0.00  0.00    +0.000 A 
ATOM     10  C   UNL     1      24.731   2.804  50.899  0.00  0.00    +0.000 A 
ATOM     11  C   UNL     1      23.474   2.321  50.372  0.00  0.00    +0.000 A 
ATOM     12  C   UNL     1      22.585   1.496  50.929  0.00  0.00    +0.000 A 
ATOM     13  C   UNL     1      22.596   0.793  52.229  0.00  0.00    +0.000 A 
ATOM     14  O   UNL     1      21.509   0.371  52.629  0.00  0.00    +0.000 OA
BRANCH   7  16
ATOM     15  C   UNL     1      25.148  -0.747  54.561  0.00  0.00    +0.000 C 
ATOM     16  O   UNL     1      23.870  -0.375  54.056  0.00  0.00    +0.000 OA
ENDBRANCH   7  16
ENDBRANCH   1  10
BRANCH   4  17
ATOM     17  N   UNL     1      27.607   7.030  48.311  0.00  0.00    +0.000 N 
ATOM     18  C   UNL     1      28.955   7.344  48.668  0.00  0.00    +0.000 C 
ATOM     19  C   UNL     1      29.401   8.251  47.543  0.00  0.00    +0.000 C 
ATOM     20  O   UNL     1      28.177   8.774  47.004  0.00  0.00    +0.000 OA
ATOM     21  C   UNL     1      27.156   7.929  47.358  0.00  0.00    +0.000 C 
ATOM     22  O   UNL     1      26.035   8.048  46.893  0.00  0.00    +0.000 OA
BRANCH  19  23
ATOM     23  C   UNL     1      30.281   9.392  48.049  0.00  0.00    +0.000 C 
BRANCH  23  24
ATOM     24  N   UNL     1      29.507  10.536  48.490  0.00  0.00    +0.000 N 
ATOM     25  C   UNL     1      30.075  11.779  48.626  0.00  0.00    +0.000 C 
ATOM     26  C   UNL     1      29.120  12.855  49.068  0.00  0.00    +0.000 C 
ATOM     27  O   UNL     1      31.264  12.000  48.416  0.00  0.00    +0.000 OA
ATOM     28  H   UNL     1      28.551  10.419  48.696  0.00  0.00    +0.000 HD
ENDBRANCH  23  24
ENDBRANCH  19  23
ENDBRANCH   4  17
BRANCH   6  29
ATOM     29  C   UNL     1      23.836   5.726  51.224  0.00  0.00    +0.000 C 
ATOM     30  F   UNL     1      23.769   5.221  52.483  0.00  0.00    +0.000 F 
ATOM     31  F   UNL     1      23.825   7.083  51.378  0.00  0.00    +0.000 F 
ATOM     32  F   UNL     1      22.642   5.419  50.640  0.00  0.00    +0.000 F 
ENDBRANCH   6  29
TORSDOF 6
ENDMDL
MODEL 5
REMARK VINA RESULT:    -8.396      2.251      3.144
REMARK INTER + INTRA:         -12.215
REMARK INTER:                 -11.437
REMARK INTRA:                  -0.778
REMARK UNBOUND:                -0.874
REMARK  Name = 
REMARK  8 active torsions:
REMARK  status: ('A' for Active; 'I' for Inactive)
REMARK    1  A    between atoms: C_1  and  O_2
REMARK    2  A    between atoms: O_2  and  C_3
REMARK    3  A    between atoms: C_6  and  C_7
REMARK    4  A    between atoms: C_10  and  N_11
REMARK    5  A    between atoms: C_13  and  C_14
REMARK    6  A    between atoms: C_14  and  N_15
REMARK    7  A    between atoms: C_16  and  C_17
REMARK    8  A    between atoms: C_23  and  C_24
REMARK                            x       y       z     vdW  Elec       q    Type
REMARK                         _______ _______ _______ _____ _____    ______ ____
ROOT
ATOM      1  C   UNL     1      23.502   0.791  52.593  0.00  0.00    +0.000 A 
ATOM      2  C   UNL     1      23.167   1.747  51.622  0.00  0.00    +0.000 A 
ATOM      3  C   UNL     1      21.833   2.040  51.325  0.00  0.00    +0.000 A 
ATOM      4  C   UNL     1      20.795   1.403  52.004  0.00  0.00    +0.000 A 
ATOM      5  C   UNL     1      21.133   0.451  52.979  0.00  0.00    +0.000 A 
ATOM      6  C   UNL     1      22.476   0.132  53.290  0.00  0.00    +0.000 A 
ENDROOT
BRANCH   1  10
ATOM      7  C   UNL     1      27.883   0.586  54.123  0.00  0.00    +0.000 A 
ATOM      8  C   UNL     1      26.859   1.440  54.223  0.00  0.00    +0.000 A 
ATOM      9  C   UNL     1      25.499   1.377  53.755  0.00  0.00    +0.000 A 
ATOM     10  C   UNL     1      24.943   0.560  52.849  0.00  0.00    +0.000 A 
ATOM     11  C   UNL     1      25.631  -0.487  52.127  0.00  0.00    +0.000 A 
ATOM     12  C   UNL     1      26.831  -1.025  52.358  0.00  0.00    +0.000 A 
ATOM     13  C   UNL     1      27.847  -0.724  53.388  0.00  0.00    +0.000 A 
ATOM     14  O   UNL     1      28.704  -1.589  53.577  0.00  0.00    +0.000 OA
BRANCH   7  16
ATOM     15  C   UNL     1      29.696   2.127  54.437  0.00  0.00    +0.000 C 
ATOM     16  O   UNL     1      29.022   0.945  54.857  0.00  0.00    +0.000 OA
ENDBRANCH   7  16
ENDBRANCH   1  10
BRANCH   4  17
ATOM     17  N   UNL     1      19.442   1.731  51.758  0.00  0.00    +0.000 N 
ATOM     18  C   UNL     1      18.943   3.071  51.774  0.00  0.00    +0.000 C 
ATOM     19  C   UNL     1      17.580   2.933  51.133  0.00  0.00    +0.000 C 
ATOM     20  O   UNL     1      17.239   1.551  51.322  0.00  0.00    +0.000 OA
ATOM     21  C   UNL     1      18.397   0.848  51.539  0.00  0.00    +0.000 C 
ATOM     22  O   UNL     1      18.412  -0.371  51.565  0.00  0.00    +0.000 OA
BRANCH  19  23
ATOM     23  C   UNL     1      16.542   3.826  51.809  0.00  0.00    +0.000 C 
BRANCH  23  24
ATOM     24  N   UNL     1      15.310   3.120  52.103  0.00  0.00    +0.000 N 
ATOM     25  C   UNL     1      14.443   3.561  53.073  0.00  0.00    +0.000 C 
ATOM     26  C   UNL     1      13.202   2.723  53.225  0.00  0.00    +0.000 C 
ATOM     27  O   UNL     1      14.660   4.549  53.767  0.00  0.00    +0.000 OA
ATOM     28  H   UNL     1      15.090   2.306  51.595  0.00  0.00    +0.000 HD
ENDBRANCH  23  24
ENDBRANCH  19  23
ENDBRANCH   4  17
BRANCH   6  29
ATOM     29  C   UNL     1      22.707  -0.895  54.374  0.00  0.00    +0.000 C 
ATOM     30  F   UNL     1      23.998  -1.117  54.734  0.00  0.00    +0.000 F 
ATOM     31  F   UNL     1      22.064  -0.553  55.529  0.00  0.00    +0.000 F 
ATOM     32  F   UNL     1      22.206  -2.117  54.031  0.00  0.00    +0.000 F 
ENDBRANCH   6  29
TORSDOF 6
ENDMDL
MODEL 6
REMARK VINA RESULT:    -8.373      6.808     10.755
REMARK INTER + INTRA:         -12.183
REMARK INTER:                 -10.927
REMARK INTRA:                  -1.256
REMARK UNBOUND:                -0.874
REMARK  Name = 
REMARK  8 active torsions:
REMARK  status: ('A' for Active; 'I' for Inactive)
REMARK    1  A    between atoms: C_1  and  O_2
REMARK    2  A    between atoms: O_2  and  C_3
REMARK    3  A    between atoms: C_6  and  C_7
REMARK    4  A    between atoms: C_10  and  N_11
REMARK    5  A    between atoms: C_13  and  C_14
REMARK    6  A    between atoms: C_14  and  N_15
REMARK    7  A    between atoms: C_16  and  C_17
REMARK    8  A    between atoms: C_23  and  C_24
REMARK                            x       y       z     vdW  Elec       q    Type
REMARK                         _______ _______ _______ _____ _____    ______ ____
ROOT
ATOM      1  C   UNL     1      25.350   4.166  50.216  0.00  0.00    +0.000 A 
ATOM      2  C   UNL     1      26.454   3.686  49.493  0.00  0.00    +0.000 A 
ATOM      3  C   UNL     1      27.290   4.556  48.790  0.00  0.00    +0.000 A 
ATOM      4  C   UNL     1      27.063   5.932  48.803  0.00  0.00    +0.000 A 
ATOM      5  C   UNL     1      25.961   6.409  49.530  0.00  0.00    +0.000 A 
ATOM      6  C   UNL     1      25.095   5.547  50.243  0.00  0.00    +0.000 A 
ENDROOT
BRANCH   1  10
ATOM      7  C   UNL     1      22.409   0.883  51.680  0.00  0.00    +0.000 A 
ATOM      8  C   UNL     1      22.455   1.769  50.679  0.00  0.00    +0.000 A 
ATOM      9  C   UNL     1      23.461   2.715  50.272  0.00  0.00    +0.000 A 
ATOM     10  C   UNL     1      24.529   3.169  50.943  0.00  0.00    +0.000 A 
ATOM     11  C   UNL     1      24.915   2.772  52.278  0.00  0.00    +0.000 A 
ATOM     12  C   UNL     1      24.484   1.744  53.012  0.00  0.00    +0.000 A 
ATOM     13  C   UNL     1      23.473   0.703  52.725  0.00  0.00    +0.000 A 
ATOM     14  O   UNL     1      23.516  -0.307  53.430  0.00  0.00    +0.000 OA
BRANCH   7  16
ATOM     15  C   UNL     1      20.237   0.329  52.541  0.00  0.00    +0.000 C 
ATOM     16  O   UNL     1      21.305   0.020  51.651  0.00  0.00    +0.000 OA
ENDBRANCH   7  16
ENDBRANCH   1  10
BRANCH   4  17
ATOM     17  N   UNL     1      27.934   6.830  48.145  0.00  0.00    +0.000 N 
ATOM     18  C   UNL     1      29.359   6.723  48.199  0.00  0.00    +0.000 C 
ATOM     19  C   UNL     1      29.811   7.658  47.099  0.00  0.00    +0.000 C 
ATOM     20  O   UNL     1      28.707   8.561  46.927  0.00  0.00    +0.000 OA
ATOM     21  C   UNL     1      27.579   7.960  47.427  0.00  0.00    +0.000 C 
ATOM     22  O   UNL     1      26.470   8.439  47.259  0.00  0.00    +0.000 OA
BRANCH  19  23
ATOM     23  C   UNL     1      31.066   8.434  47.494  0.00  0.00    +0.000 C 
BRANCH  23  24
ATOM     24  N   UNL     1      30.816   9.855  47.640  0.00  0.00    +0.000 N 
ATOM     25  C   UNL     1      30.652  10.433  48.875  0.00  0.00    +0.000 C 
ATOM     26  C   UNL     1      30.427  11.921  48.842  0.00  0.00    +0.000 C 
ATOM     27  O   UNL     1      30.677   9.794  49.923  0.00  0.00    +0.000 OA
ATOM     28  H   UNL     1      30.761  10.420  46.834  0.00  0.00    +0.000 HD
ENDBRANCH  23  24
ENDBRANCH  19  23
ENDBRANCH   4  17
BRANCH   6  29
ATOM     29  C   UNL     1      23.957   6.188  51.004  0.00  0.00    +0.000 C 
ATOM     30  F   UNL     1      23.805   5.808  52.299  0.00  0.00    +0.000 F 
ATOM     31  F   UNL     1      24.085   7.547  51.038  0.00  0.00    +0.000 F 
ATOM     32  F   UNL     1      22.753   5.953  50.408  0.00  0.00    +0.000 F 
ENDBRANCH   6  29
TORSDOF 6
ENDMDL
MODEL 7
REMARK VINA RESULT:    -8.294      3.984      5.885
REMARK INTER + INTRA:         -12.077
REMARK INTER:                 -11.118
REMARK INTRA:                  -0.959
REMARK UNBOUND:                -0.874
REMARK  Name = 
REMARK  8 active torsions:
REMARK  status: ('A' for Active; 'I' for Inactive)
REMARK    1  A    between atoms: C_1  and  O_2
REMARK    2  A    between atoms: O_2  and  C_3
REMARK    3  A    between atoms: C_6  and  C_7
REMARK    4  A    between atoms: C_10  and  N_11
REMARK    5  A    between atoms: C_13  and  C_14
REMARK    6  A    between atoms: C_14  and  N_15
REMARK    7  A    between atoms: C_16  and  C_17
REMARK    8  A    between atoms: C_23  and  C_24
REMARK                            x       y       z     vdW  Elec       q    Type
REMARK                         _______ _______ _______ _____ _____    ______ ____
ROOT
ATOM      1  C   UNL     1      24.957   3.395  50.770  0.00  0.00    +0.000 A 
ATOM      2  C   UNL     1      25.519   2.958  51.980  0.00  0.00    +0.000 A 
ATOM      3  C   UNL     1      24.914   1.951  52.735  0.00  0.00    +0.000 A 
ATOM      4  C   UNL     1      23.743   1.334  52.295  0.00  0.00    +0.000 A 
ATOM      5  C   UNL     1      23.187   1.770  51.082  0.00  0.00    +0.000 A 
ATOM      6  C   UNL     1      23.777   2.794  50.305  0.00  0.00    +0.000 A 
ENDROOT
BRANCH   1  10
ATOM      7  C   UNL     1      26.818   7.287  49.050  0.00  0.00    +0.000 A 
ATOM      8  C   UNL     1      25.714   6.957  49.727  0.00  0.00    +0.000 A 
ATOM      9  C   UNL     1      25.256   5.707  50.276  0.00  0.00    +0.000 A 
ATOM     10  C   UNL     1      25.679   4.459  50.032  0.00  0.00    +0.000 A 
ATOM     11  C   UNL     1      26.745   4.095  49.126  0.00  0.00    +0.000 A 
ATOM     12  C   UNL     1      27.670   4.869  48.554  0.00  0.00    +0.000 A 
ATOM     13  C   UNL     1      27.896   6.328  48.632  0.00  0.00    +0.000 A 
ATOM     14  O   UNL     1      29.009   6.726  48.281  0.00  0.00    +0.000 OA
BRANCH   7  16
ATOM     15  C   UNL     1      27.410   9.441  49.930  0.00  0.00    +0.000 C 
ATOM     16  O   UNL     1      26.977   8.661  48.820  0.00  0.00    +0.000 OA
ENDBRANCH   7  16
ENDBRANCH   1  10
BRANCH   4  17
ATOM     17  N   UNL     1      23.152   0.272  53.018  0.00  0.00    +0.000 N 
ATOM     18  C   UNL     1      21.780  -0.104  52.879  0.00  0.00    +0.000 C 
ATOM     19  C   UNL     1      21.727  -1.451  53.563  0.00  0.00    +0.000 C 
ATOM     20  O   UNL     1      22.858  -1.444  54.448  0.00  0.00    +0.000 OA
ATOM     21  C   UNL     1      23.752  -0.507  53.994  0.00  0.00    +0.000 C 
ATOM     22  O   UNL     1      24.873  -0.410  54.464  0.00  0.00    +0.000 OA
BRANCH  19  23
ATOM     23  C   UNL     1      20.438  -1.632  54.362  0.00  0.00    +0.000 C 
BRANCH  23  24
ATOM     24  N   UNL     1      19.284  -1.069  53.687  0.00  0.00    +0.000 N 
ATOM     25  C   UNL     1      18.114  -1.777  53.552  0.00  0.00    +0.000 C 
ATOM     26  C   UNL     1      17.013  -1.031  52.848  0.00  0.00    +0.000 C 
ATOM     27  O   UNL     1      17.975  -2.927  53.959  0.00  0.00    +0.000 OA
ATOM     28  H   UNL     1      19.340  -0.158  53.318  0.00  0.00    +0.000 HD
ENDBRANCH  23  24
ENDBRANCH  19  23
ENDBRANCH   4  17
BRANCH   6  29
ATOM     29  C   UNL     1      23.090   3.157  49.008  0.00  0.00    +0.000 C 
ATOM     30  F   UNL     1      22.879   4.480  48.784  0.00  0.00    +0.000 F 
ATOM     31  F   UNL     1      23.802   2.717  47.929  0.00  0.00    +0.000 F 
ATOM     32  F   UNL     1      21.866   2.565  48.898  0.00  0.00    +0.000 F 
ENDBRANCH   6  29
TORSDOF 6
ENDMDL
MODEL 8
REMARK VINA RESULT:    -8.254      5.879     10.274
REMARK INTER + INTRA:         -12.023
REMARK INTER:                 -10.864
REMARK INTRA:                  -1.159
REMARK UNBOUND:                -0.874
REMARK  Name = 
REMARK  8 active torsions:
REMARK  status: ('A' for Active; 'I' for Inactive)
REMARK    1  A    between atoms: C_1  and  O_2
REMARK    2  A    between atoms: O_2  and  C_3
REMARK    3  A    between atoms: C_6  and  C_7
REMARK    4  A    between atoms: C_10  and  N_11
REMARK    5  A    between atoms: C_13  and  C_14
REMARK    6  A    between atoms: C_14  and  N_15
REMARK    7  A    between atoms: C_16  and  C_17
REMARK    8  A    between atoms: C_23  and  C_24
REMARK                            x       y       z     vdW  Elec       q    Type
REMARK                         _______ _______ _______ _____ _____    ______ ____
ROOT
ATOM      1  C   UNL     1      24.480   3.661  50.278  0.00  0.00    +0.000 A 
ATOM      2  C   UNL     1      25.686   3.400  49.610  0.00  0.00    +0.000 A 
ATOM      3  C   UNL     1      26.495   4.440  49.147  0.00  0.00    +0.000 A 
ATOM      4  C   UNL     1      26.136   5.771  49.355  0.00  0.00    +0.000 A 
ATOM      5  C   UNL     1      24.931   6.029  50.027  0.00  0.00    +0.000 A 
ATOM      6  C   UNL     1      24.091   4.992  50.498  0.00  0.00    +0.000 A 
ENDROOT
BRANCH   1  10
ATOM      7  C   UNL     1      22.442   0.148  52.533  0.00  0.00    +0.000 A 
ATOM      8  C   UNL     1      23.588   0.829  52.630  0.00  0.00    +0.000 A 
ATOM      9  C   UNL     1      24.103   1.962  51.907  0.00  0.00    +0.000 A 
ATOM     10  C   UNL     1      23.696   2.493  50.745  0.00  0.00    +0.000 A 
ATOM     11  C   UNL     1      22.591   2.016  49.945  0.00  0.00    +0.000 A 
ATOM     12  C   UNL     1      21.619   1.160  50.270  0.00  0.00    +0.000 A 
ATOM     13  C   UNL     1      21.365   0.410  51.518  0.00  0.00    +0.000 A 
ATOM     14  O   UNL     1      20.226  -0.040  51.661  0.00  0.00    +0.000 OA
BRANCH   7  16
ATOM     15  C   UNL     1      21.636  -0.346  54.739  0.00  0.00    +0.000 C 
ATOM     16  O   UNL     1      22.240  -0.809  53.536  0.00  0.00    +0.000 OA
ENDBRANCH   7  16
ENDBRANCH   1  10
BRANCH   4  17
ATOM     17  N   UNL     1      26.973   6.834  48.945  0.00  0.00    +0.000 N 
ATOM     18  C   UNL     1      27.989   6.695  47.948  0.00  0.00    +0.000 C 
ATOM     19  C   UNL     1      28.349   8.128  47.629  0.00  0.00    +0.000 C 
ATOM     20  O   UNL     1      27.939   8.864  48.792  0.00  0.00    +0.000 OA
ATOM     21  C   UNL     1      27.003   8.119  49.464  0.00  0.00    +0.000 C 
ATOM     22  O   UNL     1      26.368   8.578  50.398  0.00  0.00    +0.000 OA
BRANCH  19  23
ATOM     23  C   UNL     1      29.849   8.299  47.402  0.00  0.00    +0.000 C 
BRANCH  23  24
ATOM     24  N   UNL     1      30.620   7.193  47.937  0.00  0.00    +0.000 N 
ATOM     25  C   UNL     1      31.373   7.328  49.078  0.00  0.00    +0.000 C 
ATOM     26  C   UNL     1      32.087   6.073  49.504  0.00  0.00    +0.000 C 
ATOM     27  O   UNL     1      31.468   8.382  49.699  0.00  0.00    +0.000 OA
ATOM     28  H   UNL     1      30.604   6.326  47.471  0.00  0.00    +0.000 HD
ENDBRANCH  23  24
ENDBRANCH  19  23
ENDBRANCH   4  17
BRANCH   6  29
ATOM     29  C   UNL     1      22.831   5.403  51.226  0.00  0.00    +0.000 C 
ATOM     30  F   UNL     1      21.656   4.995  50.679  0.00  0.00    +0.000 F 
ATOM     31  F   UNL     1      22.819   4.927  52.506  0.00  0.00    +0.000 F 
ATOM     32  F   UNL     1      22.731   6.758  51.343  0.00  0.00    +0.000 F 
ENDBRANCH   6  29
TORSDOF 6
ENDMDL
MODEL 9
REMARK VINA RESULT:    -8.243      6.216     10.051
REMARK INTER + INTRA:         -12.009
REMARK INTER:                 -11.069
REMARK INTRA:                  -0.939
REMARK UNBOUND:                -0.874
REMARK  Name = 
REMARK  8 active torsions:
REMARK  status: ('A' for Active; 'I' for Inactive)
REMARK    1  A    between atoms: C_1  and  O_2
REMARK    2  A    between atoms: O_2  and  C_3
REMARK    3  A    between atoms: C_6  and  C_7
REMARK    4  A    between atoms: C_10  and  N_11
REMARK    5  A    between atoms: C_13  and  C_14
REMARK    6  A    between atoms: C_14  and  N_15
REMARK    7  A    between atoms: C_16  and  C_17
REMARK    8  A    between atoms: C_23  and  C_24
REMARK                            x       y       z     vdW  Elec       q    Type
REMARK                         _______ _______ _______ _____ _____    ______ ____
ROOT
ATOM      1  C   UNL     1      24.030   3.504  50.611  0.00  0.00    +0.000 A 
ATOM      2  C   UNL     1      25.268   3.293  49.984  0.00  0.00    +0.000 A 
ATOM      3  C   UNL     1      26.069   4.367  49.587  0.00  0.00    +0.000 A 
ATOM      4  C   UNL     1      25.669   5.682  49.823  0.00  0.00    +0.000 A 
ATOM      5  C   UNL     1      24.433   5.889  50.455  0.00  0.00    +0.000 A 
ATOM      6  C   UNL     1      23.601   4.818  50.858  0.00  0.00    +0.000 A 
ENDROOT
BRANCH   1  10
ATOM      7  C   UNL     1      22.009  -0.141  52.661  0.00  0.00    +0.000 A 
ATOM      8  C   UNL     1      23.142   0.553  52.812  0.00  0.00    +0.000 A 
ATOM      9  C   UNL     1      23.652   1.726  52.152  0.00  0.00    +0.000 A 
ATOM     10  C   UNL     1      23.257   2.303  51.008  0.00  0.00    +0.000 A 
ATOM     11  C   UNL     1      22.176   1.846  50.165  0.00  0.00    +0.000 A 
ATOM     12  C   UNL     1      21.213   0.961  50.431  0.00  0.00    +0.000 A 
ATOM     13  C   UNL     1      20.948   0.150  51.639  0.00  0.00    +0.000 A 
ATOM     14  O   UNL     1      19.814  -0.324  51.738  0.00  0.00    +0.000 OA
BRANCH   7  16
ATOM     15  C   UNL     1      22.339  -0.906  54.913  0.00  0.00    +0.000 C 
ATOM     16  O   UNL     1      21.804  -1.147  53.615  0.00  0.00    +0.000 OA
ENDBRANCH   7  16
ENDBRANCH   1  10
BRANCH   4  17
ATOM     17  N   UNL     1      26.496   6.776  49.482  0.00  0.00    +0.000 N 
ATOM     18  C   UNL     1      26.225   8.121  49.887  0.00  0.00    +0.000 C 
ATOM     19  C   UNL     1      27.525   8.833  49.588  0.00  0.00    +0.000 C 
ATOM     20  O   UNL     1      28.159   8.011  48.595  0.00  0.00    +0.000 OA
ATOM     21  C   UNL     1      27.621   6.751  48.673  0.00  0.00    +0.000 C 
ATOM     22  O   UNL     1      28.094   5.813  48.055  0.00  0.00    +0.000 OA
BRANCH  19  23
ATOM     23  C   UNL     1      27.289  10.236  49.033  0.00  0.00    +0.000 C 
BRANCH  23  24
ATOM     24  N   UNL     1      28.323  11.172  49.433  0.00  0.00    +0.000 N 
ATOM     25  C   UNL     1      29.382  11.468  48.609  0.00  0.00    +0.000 C 
ATOM     26  C   UNL     1      30.345  12.478  49.173  0.00  0.00    +0.000 C 
ATOM     27  O   UNL     1      29.540  10.950  47.508  0.00  0.00    +0.000 OA
ATOM     28  H   UNL     1      28.265  11.604  50.316  0.00  0.00    +0.000 HD
ENDBRANCH  23  24
ENDBRANCH  19  23
ENDBRANCH   4  17
BRANCH   6  29
ATOM     29  C   UNL     1      22.304   5.175  51.548  0.00  0.00    +0.000 C 
ATOM     30  F   UNL     1      22.008   6.498  51.633  0.00  0.00    +0.000 F 
ATOM     31  F   UNL     1      21.234   4.606  50.919  0.00  0.00    +0.000 F 
ATOM     32  F   UNL     1      22.263   4.706  52.828  0.00  0.00    +0.000 F 
ENDBRANCH   6  29
TORSDOF 6
ENDMDL
