MODEL 1
REMARK VINA RESULT:   -10.145      0.000      0.000
REMARK INTER + INTRA:         -13.883
REMARK INTER:                 -12.518
REMARK INTRA:                  -1.365
REMARK UNBOUND:                -1.365
REMARK  Name = 
REMARK  4 active torsions:
REMARK  status: ('A' for Active; 'I' for Inactive)
REMARK    1  A    between atoms: C_1  and  C_19
REMARK    2  A    between atoms: N_6  and  C_7
REMARK    3  A    between atoms: C_10  and  C_11
REMARK    4  A    between atoms: C_22  and  C_23
REMARK                            x       y       z     vdW  Elec       q    Type
REMARK                         _______ _______ _______ _____ _____    ______ ____
ROOT
ATOM      1  C   UNL     1      22.842   2.379  52.843  0.00  0.00    +0.000 C 
ATOM      2  C   UNL     1      22.309   2.861  51.703  0.00  0.00    +0.000 C 
ATOM      3  C   UNL     1      21.053   3.698  51.716  0.00  0.00    +0.000 C 
ATOM      4  C   UNL     1      21.307   5.050  51.042  0.00  0.00    +0.000 C 
ATOM      5  C   UNL     1      21.923   4.865  49.657  0.00  0.00    +0.000 C 
ATOM      6  N   UNL     1      23.100   4.002  49.737  0.00  0.00    +0.000 N 
ATOM      7  C   UNL     1      22.891   2.674  50.317  0.00  0.00    +0.000 C 
ENDROOT
BRANCH   6   8
ATOM      8  C   UNL     1      24.374   4.441  49.424  0.00  0.00    +0.000 A 
ATOM      9  C   UNL     1      25.513   3.637  49.572  0.00  0.00    +0.000 A 
ATOM     10  C   UNL     1      26.794   4.095  49.224  0.00  0.00    +0.000 A 
ATOM     11  C   UNL     1      26.975   5.384  48.721  0.00  0.00    +0.000 A 
ATOM     12  C   UNL     1      25.863   6.214  48.594  0.00  0.00    +0.000 A 
ATOM     13  C   UNL     1      24.592   5.743  48.941  0.00  0.00    +0.000 A 
BRANCH  11  14
ATOM     14  C   UNL     1      28.327   5.856  48.326  0.00  0.00    +0.000 C 
ATOM     15  N   UNL     1      28.492   6.832  47.465  0.00  0.00    +0.000 N 
ATOM     16  C   UNL     1      29.969   6.999  47.366  0.00  0.00    +0.000 C 
ATOM     17  C   UNL     1      30.565   6.226  48.542  0.00  0.00    +0.000 C 
ATOM     18  N   UNL     1      29.482   5.328  48.861  0.00  0.00    +0.000 N 
ATOM     19  H   UNL     1      27.795   7.341  46.990  0.00  0.00    +0.000 HD
ATOM     20  H   UNL     1      29.554   4.488  49.370  0.00  0.00    +0.000 HD
ENDBRANCH  11  14
ENDBRANCH   6   8
BRANCH   1  21
ATOM     21  C   UNL     1      24.084   1.604  52.906  0.00  0.00    +0.000 A 
ATOM     22  C   UNL     1      24.038   0.209  52.977  0.00  0.00    +0.000 A 
ATOM     23  C   UNL     1      25.219  -0.530  53.097  0.00  0.00    +0.000 A 
ATOM     24  C   UNL     1      26.458   0.120  53.160  0.00  0.00    +0.000 A 
ATOM     25  C   UNL     1      26.504   1.517  53.078  0.00  0.00    +0.000 A 
ATOM     26  C   UNL     1      25.321   2.254  52.947  0.00  0.00    +0.000 A 
BRANCH  24  27
ATOM     27  C   UNL     1      27.699  -0.683  53.349  0.00  0.00    +0.000 C 
ATOM     28  N   UNL     1      27.755  -1.946  52.995  0.00  0.00    +0.000 N 
ATOM     29  C   UNL     1      29.133  -2.383  53.357  0.00  0.00    +0.000 C 
ATOM     30  C   UNL     1      29.921  -1.111  53.662  0.00  0.00    +0.000 C 
ATOM     31  N   UNL     1      28.853  -0.168  53.896  0.00  0.00    +0.000 N 
ATOM     32  H   UNL     1      27.044  -2.485  52.581  0.00  0.00    +0.000 HD
ATOM     33  H   UNL     1      28.935   0.693  54.365  0.00  0.00    +0.000 HD
ENDBRANCH  24  27
ENDBRANCH   1  21
TORSDOF 4
ENDMDL
MODEL 2
REMARK VINA RESULT:    -9.795      0.998      6.765
REMARK INTER + INTRA:         -13.451
REMARK INTER:                 -12.162
REMARK INTRA:                  -1.289
REMARK UNBOUND:                -1.365
REMARK  Name = 
REMARK  4 active torsions:
REMARK  status: ('A' for Active; 'I' for Inactive)
REMARK    1  A    between atoms: C_1  and  C_19
REMARK    2  A    between atoms: N_6  and  C_7
REMARK    3  A    between atoms: C_10  and  C_11
REMARK    4  A    between atoms: C_22  and  C_23
REMARK                            x       y       z     vdW  Elec       q    Type
REMARK                         _______ _______ _______ _____ _____    ______ ____
ROOT
ATOM      1  C   UNL     1      22.602   3.685  49.493  0.00  0.00    +0.000 C 
ATOM      2  C   UNL     1      22.084   3.314  50.681  0.00  0.00    +0.000 C 
ATOM      3  C   UNL     1      20.710   2.697  50.781  0.00  0.00    +0.000 C 
ATOM      4  C   UNL     1      20.788   1.332  51.471  0.00  0.00    +0.000 C 
ATOM      5  C   UNL     1      21.529   1.432  52.802  0.00  0.00    +0.000 C 
ATOM      6  N   UNL     1      22.823   2.086  52.615  0.00  0.00    +0.000 N 
ATOM      7  C   UNL     1      22.792   3.422  52.015  0.00  0.00    +0.000 C 
ENDROOT
BRANCH   6   8
ATOM      8  C   UNL     1      24.027   1.446  52.847  0.00  0.00    +0.000 A 
ATOM      9  C   UNL     1      24.126   0.061  53.043  0.00  0.00    +0.000 A 
ATOM     10  C   UNL     1      25.363  -0.570  53.252  0.00  0.00    +0.000 A 
ATOM     11  C   UNL     1      26.545   0.172  53.277  0.00  0.00    +0.000 A 
ATOM     12  C   UNL     1      26.470   1.554  53.116  0.00  0.00    +0.000 A 
ATOM     13  C   UNL     1      25.230   2.170  52.905  0.00  0.00    +0.000 A 
BRANCH  11  14
ATOM     14  C   UNL     1      27.855  -0.501  53.468  0.00  0.00    +0.000 C 
ATOM     15  N   UNL     1      28.020  -1.775  53.205  0.00  0.00    +0.000 N 
ATOM     16  C   UNL     1      29.454  -2.039  53.511  0.00  0.00    +0.000 C 
ATOM     17  C   UNL     1      30.121  -0.670  53.638  0.00  0.00    +0.000 C 
ATOM     18  N   UNL     1      28.979   0.173  53.897  0.00  0.00    +0.000 N 
ATOM     19  H   UNL     1      27.346  -2.416  52.879  0.00  0.00    +0.000 HD
ATOM     20  H   UNL     1      28.998   1.068  54.306  0.00  0.00    +0.000 HD
ENDBRANCH  11  14
ENDBRANCH   6   8
BRANCH   1  21
ATOM     21  C   UNL     1      23.946   4.241  49.320  0.00  0.00    +0.000 A 
ATOM     22  C   UNL     1      24.109   5.577  48.945  0.00  0.00    +0.000 A 
ATOM     23  C   UNL     1      25.389   6.096  48.721  0.00  0.00    +0.000 A 
ATOM     24  C   UNL     1      26.518   5.279  48.859  0.00  0.00    +0.000 A 
ATOM     25  C   UNL     1      26.354   3.942  49.245  0.00  0.00    +0.000 A 
ATOM     26  C   UNL     1      25.073   3.429  49.478  0.00  0.00    +0.000 A 
BRANCH  24  27
ATOM     27  C   UNL     1      27.868   5.835  48.557  0.00  0.00    +0.000 C 
ATOM     28  N   UNL     1      28.961   5.220  48.944  0.00  0.00    +0.000 N 
ATOM     29  C   UNL     1      30.075   6.089  48.470  0.00  0.00    +0.000 C 
ATOM     30  C   UNL     1      29.455   7.092  47.499  0.00  0.00    +0.000 C 
ATOM     31  N   UNL     1      28.060   7.008  47.863  0.00  0.00    +0.000 N 
ATOM     32  H   UNL     1      29.030   4.372  49.438  0.00  0.00    +0.000 HD
ATOM     33  H   UNL     1      27.367   7.673  47.651  0.00  0.00    +0.000 HD
ENDBRANCH  24  27
ENDBRANCH   1  21
TORSDOF 4
ENDMDL
MODEL 3
REMARK VINA RESULT:    -9.571      1.591      2.223
REMARK INTER + INTRA:         -13.174
REMARK INTER:                 -11.784
REMARK INTRA:                  -1.391
REMARK UNBOUND:                -1.365
REMARK  Name = 
REMARK  4 active torsions:
REMARK  status: ('A' for Active; 'I' for Inactive)
REMARK    1  A    between atoms: C_1  and  C_19
REMARK    2  A    between atoms: N_6  and  C_7
REMARK    3  A    between atoms: C_10  and  C_11
REMARK    4  A    between atoms: C_22  and  C_23
REMARK                            x       y       z     vdW  Elec       q    Type
REMARK                         _______ _______ _______ _____ _____    ______ ____
ROOT
ATOM      1  C   UNL     1      21.719   1.613  52.262  0.00  0.00    +0.000 C 
ATOM      2  C   UNL     1      21.420   1.769  50.956  0.00  0.00    +0.000 C 
ATOM      3  C   UNL     1      20.008   2.050  50.502  0.00  0.00    +0.000 C 
ATOM      4  C   UNL     1      19.958   3.344  49.684  0.00  0.00    +0.000 C 
ATOM      5  C   UNL     1      20.987   3.318  48.555  0.00  0.00    +0.000 C 
ATOM      6  N   UNL     1      22.311   2.991  49.083  0.00  0.00    +0.000 N 
ATOM      7  C   UNL     1      22.419   1.729  49.819  0.00  0.00    +0.000 C 
ENDROOT
BRANCH   6   8
ATOM      8  C   UNL     1      23.378   3.869  49.029  0.00  0.00    +0.000 A 
ATOM      9  C   UNL     1      23.280   5.151  48.472  0.00  0.00    +0.000 A 
ATOM     10  C   UNL     1      24.370   6.036  48.451  0.00  0.00    +0.000 A 
ATOM     11  C   UNL     1      25.603   5.656  48.985  0.00  0.00    +0.000 A 
ATOM     12  C   UNL     1      25.736   4.375  49.516  0.00  0.00    +0.000 A 
ATOM     13  C   UNL     1      24.639   3.505  49.534  0.00  0.00    +0.000 A 
BRANCH  11  14
ATOM     14  C   UNL     1      26.747   6.603  48.989  0.00  0.00    +0.000 C 
ATOM     15  N   UNL     1      27.710   6.525  48.101  0.00  0.00    +0.000 N 
ATOM     16  C   UNL     1      28.628   7.647  48.443  0.00  0.00    +0.000 C 
ATOM     17  C   UNL     1      27.859   8.548  49.408  0.00  0.00    +0.000 C 
ATOM     18  N   UNL     1      26.851   7.637  49.895  0.00  0.00    +0.000 N 
ATOM     19  H   UNL     1      27.805   5.870  47.371  0.00  0.00    +0.000 HD
ATOM     20  H   UNL     1      26.330   7.736  50.724  0.00  0.00    +0.000 HD
ENDBRANCH  11  14
ENDBRANCH   6   8
BRANCH   1  21
ATOM     21  C   UNL     1      23.073   1.390  52.773  0.00  0.00    +0.000 A 
ATOM     22  C   UNL     1      23.956   2.464  52.912  0.00  0.00    +0.000 A 
ATOM     23  C   UNL     1      25.268   2.247  53.345  0.00  0.00    +0.000 A 
ATOM     24  C   UNL     1      25.714   0.950  53.630  0.00  0.00    +0.000 A 
ATOM     25  C   UNL     1      24.826  -0.124  53.501  0.00  0.00    +0.000 A 
ATOM     26  C   UNL     1      23.509   0.097  53.078  0.00  0.00    +0.000 A 
BRANCH  24  27
ATOM     27  C   UNL     1      27.133   0.734  54.031  0.00  0.00    +0.000 C 
ATOM     28  N   UNL     1      27.666  -0.465  54.034  0.00  0.00    +0.000 N 
ATOM     29  C   UNL     1      29.066  -0.260  54.501  0.00  0.00    +0.000 C 
ATOM     30  C   UNL     1      29.321   1.245  54.448  0.00  0.00    +0.000 C 
ATOM     31  N   UNL     1      27.971   1.756  54.417  0.00  0.00    +0.000 N 
ATOM     32  H   UNL     1      27.236  -1.314  53.782  0.00  0.00    +0.000 HD
ATOM     33  H   UNL     1      27.697   2.676  54.634  0.00  0.00    +0.000 HD
ENDBRANCH  24  27
ENDBRANCH   1  21
TORSDOF 4
ENDMDL
MODEL 4
REMARK VINA RESULT:    -9.144      3.172      6.473
REMARK INTER + INTRA:         -12.647
REMARK INTER:                 -11.399
REMARK INTRA:                  -1.248
REMARK UNBOUND:                -1.365
REMARK  Name = 
REMARK  4 active torsions:
REMARK  status: ('A' for Active; 'I' for Inactive)
REMARK    1  A    between atoms: C_1  and  C_19
REMARK    2  A    between atoms: N_6  and  C_7
REMARK    3  A    between atoms: C_10  and  C_11
REMARK    4  A    between atoms: C_22  and  C_23
REMARK                            x       y       z     vdW  Elec       q    Type
REMARK                         _______ _______ _______ _____ _____    ______ ____
ROOT
ATOM      1  C   UNL     1      25.322  -0.842  54.163  0.00  0.00    +0.000 C 
ATOM      2  C   UNL     1      26.139   0.224  54.278  0.00  0.00    +0.000 C 
ATOM      3  C   UNL     1      27.632   0.058  54.426  0.00  0.00    +0.000 C 
ATOM      4  C   UNL     1      28.366   0.820  53.318  0.00  0.00    +0.000 C 
ATOM      5  C   UNL     1      27.899   2.273  53.252  0.00  0.00    +0.000 C 
ATOM      6  N   UNL     1      26.442   2.335  53.160  0.00  0.00    +0.000 N 
ATOM      7  C   UNL     1      25.698   1.672  54.234  0.00  0.00    +0.000 C 
ENDROOT
BRANCH   6   8
ATOM      8  C   UNL     1      25.781   2.854  52.062  0.00  0.00    +0.000 A 
ATOM      9  C   UNL     1      26.387   2.996  50.806  0.00  0.00    +0.000 A 
ATOM     10  C   UNL     1      25.689   3.503  49.699  0.00  0.00    +0.000 A 
ATOM     11  C   UNL     1      24.353   3.893  49.819  0.00  0.00    +0.000 A 
ATOM     12  C   UNL     1      23.737   3.791  51.064  0.00  0.00    +0.000 A 
ATOM     13  C   UNL     1      24.444   3.280  52.158  0.00  0.00    +0.000 A 
BRANCH  11  14
ATOM     14  C   UNL     1      23.607   4.401  48.640  0.00  0.00    +0.000 C 
ATOM     15  N   UNL     1      22.717   3.666  48.018  0.00  0.00    +0.000 N 
ATOM     16  C   UNL     1      22.203   4.542  46.927  0.00  0.00    +0.000 C 
ATOM     17  C   UNL     1      22.677   5.956  47.257  0.00  0.00    +0.000 C 
ATOM     18  N   UNL     1      23.776   5.679  48.151  0.00  0.00    +0.000 N 
ATOM     19  H   UNL     1      22.448   2.741  48.225  0.00  0.00    +0.000 HD
ATOM     20  H   UNL     1      24.514   6.292  48.372  0.00  0.00    +0.000 HD
ENDBRANCH  11  14
ENDBRANCH   6   8
BRANCH   1  21
ATOM     21  C   UNL     1      23.874  -0.751  53.966  0.00  0.00    +0.000 A 
ATOM     22  C   UNL     1      23.001  -1.206  54.958  0.00  0.00    +0.000 A 
ATOM     23  C   UNL     1      21.618  -1.174  54.748  0.00  0.00    +0.000 A 
ATOM     24  C   UNL     1      21.096  -0.699  53.539  0.00  0.00    +0.000 A 
ATOM     25  C   UNL     1      21.971  -0.234  52.550  0.00  0.00    +0.000 A 
ATOM     26  C   UNL     1      23.354  -0.257  52.766  0.00  0.00    +0.000 A 
BRANCH  24  27
ATOM     27  C   UNL     1      19.623  -0.731  53.313  0.00  0.00    +0.000 C 
ATOM     28  N   UNL     1      19.051   0.053  52.429  0.00  0.00    +0.000 N 
ATOM     29  C   UNL     1      17.599  -0.268  52.518  0.00  0.00    +0.000 C 
ATOM     30  C   UNL     1      17.491  -1.552  53.338  0.00  0.00    +0.000 C 
ATOM     31  N   UNL     1      18.774  -1.570  54.000  0.00  0.00    +0.000 N 
ATOM     32  H   UNL     1      19.486   0.708  51.838  0.00  0.00    +0.000 HD
ATOM     33  H   UNL     1      19.003  -2.091  54.802  0.00  0.00    +0.000 HD
ENDBRANCH  24  27
ENDBRANCH   1  21
TORSDOF 4
ENDMDL
MODEL 5
REMARK VINA RESULT:    -8.946      1.952      7.052
REMARK INTER + INTRA:         -12.403
REMARK INTER:                 -11.162
REMARK INTRA:                  -1.241
REMARK UNBOUND:                -1.365
REMARK  Name = 
REMARK  4 active torsions:
REMARK  status: ('A' for Active; 'I' for Inactive)
REMARK    1  A    between atoms: C_1  and  C_19
REMARK    2  A    between atoms: N_6  and  C_7
REMARK    3  A    between atoms: C_10  and  C_11
REMARK    4  A    between atoms: C_22  and  C_23
REMARK                            x       y       z     vdW  Elec       q    Type
REMARK                         _______ _______ _______ _____ _____    ______ ____
ROOT
ATOM      1  C   UNL     1      21.888   3.535  48.612  0.00  0.00    +0.000 C 
ATOM      2  C   UNL     1      21.247   3.048  49.693  0.00  0.00    +0.000 C 
ATOM      3  C   UNL     1      20.121   2.052  49.557  0.00  0.00    +0.000 C 
ATOM      4  C   UNL     1      20.431   0.784  50.359  0.00  0.00    +0.000 C 
ATOM      5  C   UNL     1      20.797   1.124  51.802  0.00  0.00    +0.000 C 
ATOM      6  N   UNL     1      21.858   2.129  51.833  0.00  0.00    +0.000 N 
ATOM      7  C   UNL     1      21.579   3.385  51.132  0.00  0.00    +0.000 C 
ENDROOT
BRANCH   6   8
ATOM      8  C   UNL     1      23.112   1.881  52.361  0.00  0.00    +0.000 A 
ATOM      9  C   UNL     1      23.982   2.903  52.765  0.00  0.00    +0.000 A 
ATOM     10  C   UNL     1      25.241   2.626  53.322  0.00  0.00    +0.000 A 
ATOM     11  C   UNL     1      25.672   1.309  53.486  0.00  0.00    +0.000 A 
ATOM     12  C   UNL     1      24.838   0.275  53.064  0.00  0.00    +0.000 A 
ATOM     13  C   UNL     1      23.584   0.566  52.514  0.00  0.00    +0.000 A 
BRANCH  11  14
ATOM     14  C   UNL     1      26.991   1.017  54.103  0.00  0.00    +0.000 C 
ATOM     15  N   UNL     1      27.244  -0.133  54.681  0.00  0.00    +0.000 N 
ATOM     16  C   UNL     1      28.656  -0.019  55.142  0.00  0.00    +0.000 C 
ATOM     17  C   UNL     1      29.239   1.203  54.433  0.00  0.00    +0.000 C 
ATOM     18  N   UNL     1      28.036   1.916  54.076  0.00  0.00    +0.000 N 
ATOM     19  H   UNL     1      26.635  -0.900  54.786  0.00  0.00    +0.000 HD
ATOM     20  H   UNL     1      27.973   2.873  53.853  0.00  0.00    +0.000 HD
ENDBRANCH  11  14
ENDBRANCH   6   8
BRANCH   1  21
ATOM     21  C   UNL     1      23.020   4.462  48.675  0.00  0.00    +0.000 A 
ATOM     22  C   UNL     1      24.246   4.039  49.197  0.00  0.00    +0.000 A 
ATOM     23  C   UNL     1      25.311   4.938  49.314  0.00  0.00    +0.000 A 
ATOM     24  C   UNL     1      25.156   6.274  48.922  0.00  0.00    +0.000 A 
ATOM     25  C   UNL     1      23.931   6.695  48.390  0.00  0.00    +0.000 A 
ATOM     26  C   UNL     1      22.870   5.790  48.264  0.00  0.00    +0.000 A 
BRANCH  24  27
ATOM     27  C   UNL     1      26.284   7.230  49.112  0.00  0.00    +0.000 C 
ATOM     28  N   UNL     1      27.119   7.502  48.137  0.00  0.00    +0.000 N 
ATOM     29  C   UNL     1      28.089   8.468  48.723  0.00  0.00    +0.000 C 
ATOM     30  C   UNL     1      27.488   8.930  50.050  0.00  0.00    +0.000 C 
ATOM     31  N   UNL     1      26.525   7.883  50.299  0.00  0.00    +0.000 N 
ATOM     32  H   UNL     1      27.106   7.147  47.219  0.00  0.00    +0.000 HD
ATOM     33  H   UNL     1      26.112   7.674  51.168  0.00  0.00    +0.000 HD
ENDBRANCH  24  27
ENDBRANCH   1  21
TORSDOF 4
ENDMDL
MODEL 6
REMARK VINA RESULT:    -8.638      2.171      7.271
REMARK INTER + INTRA:         -12.023
REMARK INTER:                 -10.752
REMARK INTRA:                  -1.271
REMARK UNBOUND:                -1.365
REMARK  Name = 
REMARK  4 active torsions:
REMARK  status: ('A' for Active; 'I' for Inactive)
REMARK    1  A    between atoms: C_1  and  C_19
REMARK    2  A    between atoms: N_6  and  C_7
REMARK    3  A    between atoms: C_10  and  C_11
REMARK    4  A    between atoms: C_22  and  C_23
REMARK                            x       y       z     vdW  Elec       q    Type
REMARK                         _______ _______ _______ _____ _____    ______ ____
ROOT
ATOM      1  C   UNL     1      20.445   2.995  50.306  0.00  0.00    +0.000 C 
ATOM      2  C   UNL     1      20.082   2.313  51.411  0.00  0.00    +0.000 C 
ATOM      3  C   UNL     1      18.894   1.382  51.404  0.00  0.00    +0.000 C 
ATOM      4  C   UNL     1      19.317  -0.025  51.838  0.00  0.00    +0.000 C 
ATOM      5  C   UNL     1      20.076   0.015  53.163  0.00  0.00    +0.000 C 
ATOM      6  N   UNL     1      21.174   0.978  53.090  0.00  0.00    +0.000 N 
ATOM      7  C   UNL     1      20.807   2.352  52.740  0.00  0.00    +0.000 C 
ENDROOT
BRANCH   6   8
ATOM      8  C   UNL     1      22.503   0.609  53.198  0.00  0.00    +0.000 A 
ATOM      9  C   UNL     1      23.521   1.209  52.444  0.00  0.00    +0.000 A 
ATOM     10  C   UNL     1      24.867   0.837  52.588  0.00  0.00    +0.000 A 
ATOM     11  C   UNL     1      25.235  -0.160  53.494  0.00  0.00    +0.000 A 
ATOM     12  C   UNL     1      24.238  -0.794  54.232  0.00  0.00    +0.000 A 
ATOM     13  C   UNL     1      22.901  -0.409  54.081  0.00  0.00    +0.000 A 
BRANCH  11  14
ATOM     14  C   UNL     1      26.663  -0.532  53.667  0.00  0.00    +0.000 C 
ATOM     15  N   UNL     1      27.307  -1.231  52.763  0.00  0.00    +0.000 N 
ATOM     16  C   UNL     1      28.688  -1.366  53.308  0.00  0.00    +0.000 C 
ATOM     17  C   UNL     1      28.796  -0.357  54.450  0.00  0.00    +0.000 C 
ATOM     18  N   UNL     1      27.404  -0.139  54.761  0.00  0.00    +0.000 N 
ATOM     19  H   UNL     1      26.957  -1.587  51.914  0.00  0.00    +0.000 HD
ATOM     20  H   UNL     1      27.046   0.224  55.603  0.00  0.00    +0.000 HD
ENDBRANCH  11  14
ENDBRANCH   6   8
BRANCH   1  21
ATOM     21  C   UNL     1      21.614   3.874  50.229  0.00  0.00    +0.000 A 
ATOM     22  C   UNL     1      21.588   5.131  50.839  0.00  0.00    +0.000 A 
ATOM     23  C   UNL     1      22.680   5.997  50.718  0.00  0.00    +0.000 A 
ATOM     24  C   UNL     1      23.805   5.617  49.975  0.00  0.00    +0.000 A 
ATOM     25  C   UNL     1      23.835   4.353  49.373  0.00  0.00    +0.000 A 
ATOM     26  C   UNL     1      22.744   3.485  49.505  0.00  0.00    +0.000 A 
BRANCH  24  27
ATOM     27  C   UNL     1      24.932   6.578  49.808  0.00  0.00    +0.000 C 
ATOM     28  N   UNL     1      25.151   7.532  50.682  0.00  0.00    +0.000 N 
ATOM     29  C   UNL     1      26.333   8.268  50.156  0.00  0.00    +0.000 C 
ATOM     30  C   UNL     1      26.925   7.398  49.049  0.00  0.00    +0.000 C 
ATOM     31  N   UNL     1      25.809   6.533  48.747  0.00  0.00    +0.000 N 
ATOM     32  H   UNL     1      24.645   7.719  51.505  0.00  0.00    +0.000 HD
ATOM     33  H   UNL     1      25.695   6.003  47.926  0.00  0.00    +0.000 HD
ENDBRANCH  24  27
ENDBRANCH   1  21
TORSDOF 4
ENDMDL
MODEL 7
REMARK VINA RESULT:    -8.594      3.366      9.044
REMARK INTER + INTRA:         -11.968
REMARK INTER:                 -10.542
REMARK INTRA:                  -1.426
REMARK UNBOUND:                -1.365
REMARK  Name = 
REMARK  4 active torsions:
REMARK  status: ('A' for Active; 'I' for Inactive)
REMARK    1  A    between atoms: C_1  and  C_19
REMARK    2  A    between atoms: N_6  and  C_7
REMARK    3  A    between atoms: C_10  and  C_11
REMARK    4  A    between atoms: C_22  and  C_23
REMARK                            x       y       z     vdW  Elec       q    Type
REMARK                         _______ _______ _______ _____ _____    ______ ____
ROOT
ATOM      1  C   UNL     1      26.174   2.257  53.365  0.00  0.00    +0.000 C 
ATOM      2  C   UNL     1      26.107   0.951  53.692  0.00  0.00    +0.000 C 
ATOM      3  C   UNL     1      26.769   0.418  54.940  0.00  0.00    +0.000 C 
ATOM      4  C   UNL     1      25.741  -0.290  55.828  0.00  0.00    +0.000 C 
ATOM      5  C   UNL     1      24.961  -1.337  55.036  0.00  0.00    +0.000 C 
ATOM      6  N   UNL     1      24.400  -0.743  53.824  0.00  0.00    +0.000 N 
ATOM      7  C   UNL     1      25.356  -0.109  52.913  0.00  0.00    +0.000 C 
ENDROOT
BRANCH   6   8
ATOM      8  C   UNL     1      23.039  -0.643  53.598  0.00  0.00    +0.000 A 
ATOM      9  C   UNL     1      22.496   0.118  52.553  0.00  0.00    +0.000 A 
ATOM     10  C   UNL     1      21.112   0.184  52.327  0.00  0.00    +0.000 A 
ATOM     11  C   UNL     1      20.224  -0.510  53.151  0.00  0.00    +0.000 A 
ATOM     12  C   UNL     1      20.736  -1.248  54.215  0.00  0.00    +0.000 A 
ATOM     13  C   UNL     1      22.119  -1.308  54.426  0.00  0.00    +0.000 A 
BRANCH  11  14
ATOM     14  C   UNL     1      18.762  -0.463  52.892  0.00  0.00    +0.000 C 
ATOM     15  N   UNL     1      18.266   0.156  51.847  0.00  0.00    +0.000 N 
ATOM     16  C   UNL     1      16.795  -0.048  51.953  0.00  0.00    +0.000 C 
ATOM     17  C   UNL     1      16.591  -1.148  52.994  0.00  0.00    +0.000 C 
ATOM     18  N   UNL     1      17.844  -1.092  53.706  0.00  0.00    +0.000 N 
ATOM     19  H   UNL     1      18.758   0.647  51.148  0.00  0.00    +0.000 HD
ATOM     20  H   UNL     1      18.015  -1.439  54.612  0.00  0.00    +0.000 HD
ENDBRANCH  11  14
ENDBRANCH   6   8
BRANCH   1  21
ATOM     21  C   UNL     1      25.513   2.847  52.199  0.00  0.00    +0.000 A 
ATOM     22  C   UNL     1      24.214   3.350  52.309  0.00  0.00    +0.000 A 
ATOM     23  C   UNL     1      23.558   3.861  51.185  0.00  0.00    +0.000 A 
ATOM     24  C   UNL     1      24.191   3.861  49.935  0.00  0.00    +0.000 A 
ATOM     25  C   UNL     1      25.496   3.365  49.827  0.00  0.00    +0.000 A 
ATOM     26  C   UNL     1      26.154   2.865  50.957  0.00  0.00    +0.000 A 
BRANCH  24  27
ATOM     27  C   UNL     1      23.451   4.353  48.738  0.00  0.00    +0.000 C 
ATOM     28  N   UNL     1      22.608   3.582  48.092  0.00  0.00    +0.000 N 
ATOM     29  C   UNL     1      22.101   4.423  46.973  0.00  0.00    +0.000 C 
ATOM     30  C   UNL     1      22.537   5.855  47.279  0.00  0.00    +0.000 C 
ATOM     31  N   UNL     1      23.595   5.627  48.235  0.00  0.00    +0.000 N 
ATOM     32  H   UNL     1      22.364   2.652  48.302  0.00  0.00    +0.000 HD
ATOM     33  H   UNL     1      24.297   6.269  48.485  0.00  0.00    +0.000 HD
ENDBRANCH  24  27
ENDBRANCH   1  21
TORSDOF 4
ENDMDL
MODEL 8
REMARK VINA RESULT:    -8.055      3.072      8.193
REMARK INTER + INTRA:         -11.303
REMARK INTER:                 -10.016
REMARK INTRA:                  -1.287
REMARK UNBOUND:                -1.365
REMARK  Name = 
REMARK  4 active torsions:
REMARK  status: ('A' for Active; 'I' for Inactive)
REMARK    1  A    between atoms: C_1  and  C_19
REMARK    2  A    between atoms: N_6  and  C_7
REMARK    3  A    between atoms: C_10  and  C_11
REMARK    4  A    between atoms: C_22  and  C_23
REMARK                            x       y       z     vdW  Elec       q    Type
REMARK                         _______ _______ _______ _____ _____    ______ ____
ROOT
ATOM      1  C   UNL     1      25.267   0.834  53.897  0.00  0.00    +0.000 C 
ATOM      2  C   UNL     1      24.491  -0.268  53.880  0.00  0.00    +0.000 C 
ATOM      3  C   UNL     1      24.441  -1.212  55.057  0.00  0.00    +0.000 C 
ATOM      4  C   UNL     1      23.000  -1.371  55.552  0.00  0.00    +0.000 C 
ATOM      5  C   UNL     1      22.065  -1.748  54.405  0.00  0.00    +0.000 C 
ATOM      6  N   UNL     1      22.219  -0.810  53.296  0.00  0.00    +0.000 N 
ATOM      7  C   UNL     1      23.571  -0.673  52.747  0.00  0.00    +0.000 C 
ENDROOT
BRANCH   6   8
ATOM      8  C   UNL     1      21.198   0.018  52.865  0.00  0.00    +0.000 A 
ATOM      9  C   UNL     1      21.394   1.372  52.561  0.00  0.00    +0.000 A 
ATOM     10  C   UNL     1      20.347   2.187  52.101  0.00  0.00    +0.000 A 
ATOM     11  C   UNL     1      19.061   1.668  51.938  0.00  0.00    +0.000 A 
ATOM     12  C   UNL     1      18.833   0.332  52.265  0.00  0.00    +0.000 A 
ATOM     13  C   UNL     1      19.887  -0.469  52.718  0.00  0.00    +0.000 A 
BRANCH  11  14
ATOM     14  C   UNL     1      17.962   2.524  51.424  0.00  0.00    +0.000 C 
ATOM     15  N   UNL     1      17.724   3.714  51.922  0.00  0.00    +0.000 N 
ATOM     16  C   UNL     1      16.574   4.230  51.127  0.00  0.00    +0.000 C 
ATOM     17  C   UNL     1      16.449   3.312  49.913  0.00  0.00    +0.000 C 
ATOM     18  N   UNL     1      17.151   2.140  50.377  0.00  0.00    +0.000 N 
ATOM     19  H   UNL     1      18.200   4.166  52.656  0.00  0.00    +0.000 HD
ATOM     20  H   UNL     1      17.068   1.229  50.012  0.00  0.00    +0.000 HD
ENDBRANCH  11  14
ENDBRANCH   6   8
BRANCH   1  21
ATOM     21  C   UNL     1      25.323   1.816  52.812  0.00  0.00    +0.000 A 
ATOM     22  C   UNL     1      26.304   1.712  51.822  0.00  0.00    +0.000 A 
ATOM     23  C   UNL     1      26.398   2.681  50.817  0.00  0.00    +0.000 A 
ATOM     24  C   UNL     1      25.518   3.771  50.801  0.00  0.00    +0.000 A 
ATOM     25  C   UNL     1      24.529   3.869  51.787  0.00  0.00    +0.000 A 
ATOM     26  C   UNL     1      24.431   2.891  52.785  0.00  0.00    +0.000 A 
BRANCH  24  27
ATOM     27  C   UNL     1      25.674   4.824  49.758  0.00  0.00    +0.000 C 
ATOM     28  N   UNL     1      24.640   5.495  49.306  0.00  0.00    +0.000 N 
ATOM     29  C   UNL     1      25.204   6.422  48.285  0.00  0.00    +0.000 C 
ATOM     30  C   UNL     1      26.720   6.391  48.466  0.00  0.00    +0.000 C 
ATOM     31  N   UNL     1      26.889   5.162  49.205  0.00  0.00    +0.000 N 
ATOM     32  H   UNL     1      23.700   5.407  49.582  0.00  0.00    +0.000 HD
ATOM     33  H   UNL     1      27.726   4.655  49.298  0.00  0.00    +0.000 HD
ENDBRANCH  24  27
ENDBRANCH   1  21
TORSDOF 4
ENDMDL
MODEL 9
REMARK VINA RESULT:    -7.995      2.750      6.679
REMARK INTER + INTRA:         -11.229
REMARK INTER:                  -9.923
REMARK INTRA:                  -1.307
REMARK UNBOUND:                -1.365
REMARK  Name = 
REMARK  4 active torsions:
REMARK  status: ('A' for Active; 'I' for Inactive)
REMARK    1  A    between atoms: C_1  and  C_19
REMARK    2  A    between atoms: N_6  and  C_7
REMARK    3  A    between atoms: C_10  and  C_11
REMARK    4  A    between atoms: C_22  and  C_23
REMARK                            x       y       z     vdW  Elec       q    Type
REMARK                         _______ _______ _______ _____ _____    ______ ____
ROOT
ATOM      1  C   UNL     1      23.343  -0.880  52.816  0.00  0.00    +0.000 C 
ATOM      2  C   UNL     1      24.444  -0.257  53.281  0.00  0.00    +0.000 C 
ATOM      3  C   UNL     1      25.731  -1.009  53.521  0.00  0.00    +0.000 C 
ATOM      4  C   UNL     1      26.875  -0.375  52.724  0.00  0.00    +0.000 C 
ATOM      5  C   UNL     1      26.966   1.125  52.995  0.00  0.00    +0.000 C 
ATOM      6  N   UNL     1      25.666   1.758  52.786  0.00  0.00    +0.000 N 
ATOM      7  C   UNL     1      24.553   1.225  53.575  0.00  0.00    +0.000 C 
ENDROOT
BRANCH   6   8
ATOM      8  C   UNL     1      25.442   2.707  51.804  0.00  0.00    +0.000 A 
ATOM      9  C   UNL     1      26.303   2.889  50.714  0.00  0.00    +0.000 A 
ATOM     10  C   UNL     1      26.043   3.841  49.715  0.00  0.00    +0.000 A 
ATOM     11  C   UNL     1      24.907   4.650  49.784  0.00  0.00    +0.000 A 
ATOM     12  C   UNL     1      24.052   4.511  50.875  0.00  0.00    +0.000 A 
ATOM     13  C   UNL     1      24.322   3.554  51.861  0.00  0.00    +0.000 A 
BRANCH  11  14
ATOM     14  C   UNL     1      24.618   5.637  48.712  0.00  0.00    +0.000 C 
ATOM     15  N   UNL     1      23.460   5.668  48.098  0.00  0.00    +0.000 N 
ATOM     16  C   UNL     1      23.579   6.793  47.128  0.00  0.00    +0.000 C 
ATOM     17  C   UNL     1      24.820   7.582  47.542  0.00  0.00    +0.000 C 
ATOM     18  N   UNL     1      25.528   6.597  48.324  0.00  0.00    +0.000 N 
ATOM     19  H   UNL     1      22.684   5.079  48.244  0.00  0.00    +0.000 HD
ATOM     20  H   UNL     1      26.488   6.608  48.541  0.00  0.00    +0.000 HD
ENDBRANCH  11  14
ENDBRANCH   6   8
BRANCH   1  21
ATOM     21  C   UNL     1      22.081  -0.201  52.514  0.00  0.00    +0.000 A 
ATOM     22  C   UNL     1      21.988   0.648  51.409  0.00  0.00    +0.000 A 
ATOM     23  C   UNL     1      20.802   1.344  51.151  0.00  0.00    +0.000 A 
ATOM     24  C   UNL     1      19.700   1.206  52.005  0.00  0.00    +0.000 A 
ATOM     25  C   UNL     1      19.791   0.346  53.106  0.00  0.00    +0.000 A 
ATOM     26  C   UNL     1      20.976  -0.357  53.356  0.00  0.00    +0.000 A 
BRANCH  24  27
ATOM     27  C   UNL     1      18.467   2.002  51.747  0.00  0.00    +0.000 C 
ATOM     28  N   UNL     1      17.323   1.419  51.476  0.00  0.00    +0.000 N 
ATOM     29  C   UNL     1      16.364   2.540  51.270  0.00  0.00    +0.000 C 
ATOM     30  C   UNL     1      17.060   3.802  51.776  0.00  0.00    +0.000 C 
ATOM     31  N   UNL     1      18.441   3.378  51.775  0.00  0.00    +0.000 N 
ATOM     32  H   UNL     1      17.139   0.454  51.421  0.00  0.00    +0.000 HD
ATOM     33  H   UNL     1      19.226   3.971  51.791  0.00  0.00    +0.000 HD
ENDBRANCH  24  27
ENDBRANCH   1  21
TORSDOF 4
ENDMDL
