MODEL 1
REMARK VINA RESULT:    -9.164      0.000      0.000
REMARK INTER + INTRA:         -15.384
REMARK INTER:                 -13.718
REMARK INTRA:                  -1.666
REMARK UNBOUND:                -1.666
REMARK  Name = 
REMARK  10 active torsions:
REMARK  status: ('A' for Active; 'I' for Inactive)
REMARK    1  A    between atoms: C_2  and  C_3
REMARK    2  A    between atoms: C_3  and  N_4
REMARK    3  A    between atoms: N_4  and  C_5
REMARK    4  A    between atoms: N_4  and  C_18
REMARK    5  A    between atoms: C_5  and  C_6
REMARK    6  A    between atoms: C_11  and  C_12
REMARK    7  A    between atoms: C_14  and  O_15
REMARK    8  A    between atoms: C_21  and  C_22
REMARK    9  A    between atoms: N_24  and  C_25
REMARK   10  A    between atoms: C_25  and  C_26
REMARK                            x       y       z     vdW  Elec       q    Type
REMARK                         _______ _______ _______ _____ _____    ______ ____
ROOT
ATOM      1  N   UNL     1      23.663   3.728  51.460  0.00  0.00    +0.000 N 
ENDROOT
BRANCH   1   2
ATOM      2  C   UNL     1      24.665   4.219  50.628  0.00  0.00    +0.000 A 
ATOM      3  C   UNL     1      25.595   3.403  49.963  0.00  0.00    +0.000 A 
ATOM      4  C   UNL     1      26.661   3.931  49.204  0.00  0.00    +0.000 A 
ATOM      5  C   UNL     1      26.834   5.311  49.067  0.00  0.00    +0.000 A 
ATOM      6  C   UNL     1      25.872   6.137  49.638  0.00  0.00    +0.000 A 
ATOM      7  C   UNL     1      24.822   5.597  50.400  0.00  0.00    +0.000 A 
BRANCH   5   8
ATOM      8  C   UNL     1      28.028   5.844  48.327  0.00  0.00    +0.000 C 
ATOM      9  O   UNL     1      29.101   5.244  48.361  0.00  0.00    +0.000 OA
ATOM     10  N   UNL     1      27.862   7.031  47.644  0.00  0.00    +0.000 N 
ATOM     11  H   UNL     1      26.964   7.434  47.616  0.00  0.00    +0.000 HD
BRANCH  10  12
ATOM     12  C   UNL     1      28.946   7.717  46.966  0.00  0.00    +0.000 C 
BRANCH  12  13
ATOM     13  C   UNL     1      29.435   8.920  47.744  0.00  0.00    +0.000 A 
ATOM     14  C   UNL     1      30.326   8.753  48.802  0.00  0.00    +0.000 A 
ATOM     15  C   UNL     1      30.742   9.872  49.518  0.00  0.00    +0.000 A 
ATOM     16  C   UNL     1      30.260  11.126  49.165  0.00  0.00    +0.000 A 
ATOM     17  C   UNL     1      29.380  11.209  48.099  0.00  0.00    +0.000 A 
ATOM     18  N   UNL     1      28.953  10.141  47.386  0.00  0.00    +0.000 NA
ENDBRANCH  12  13
ENDBRANCH  10  12
ENDBRANCH   5   8
ENDBRANCH   1   2
BRANCH   1  19
ATOM     19  C   UNL     1      22.263   3.554  51.040  0.00  0.00    +0.000 C 
BRANCH  19  21
ATOM     20  C   UNL     1      21.891   1.175  49.876  0.00  0.00    +0.000 C 
ATOM     21  C   UNL     1      22.057   2.265  50.359  0.00  0.00    +0.000 C 
ENDBRANCH  19  21
ENDBRANCH   1  19
BRANCH   1  22
ATOM     22  C   UNL     1      23.950   3.330  52.851  0.00  0.00    +0.000 C 
BRANCH  22  23
ATOM     23  C   UNL     1      24.902   2.156  52.972  0.00  0.00    +0.000 A 
ATOM     24  C   UNL     1      24.554   0.844  52.636  0.00  0.00    +0.000 A 
ATOM     25  C   UNL     1      25.509  -0.178  52.655  0.00  0.00    +0.000 A 
ATOM     26  C   UNL     1      26.812   0.050  53.064  0.00  0.00    +0.000 A 
ATOM     27  N   UNL     1      27.679  -0.969  53.092  0.00  0.00    +0.000 NA
ATOM     28  C   UNL     1      28.916  -0.725  53.562  0.00  0.00    +0.000 A 
ATOM     29  C   UNL     1      29.842  -1.896  53.651  0.00  0.00    +0.000 C 
ATOM     30  N   UNL     1      29.357   0.468  53.992  0.00  0.00    +0.000 NA
ATOM     31  C   UNL     1      28.460   1.458  53.919  0.00  0.00    +0.000 A 
ATOM     32  C   UNL     1      27.157   1.340  53.462  0.00  0.00    +0.000 A 
ATOM     33  C   UNL     1      26.215   2.394  53.398  0.00  0.00    +0.000 A 
BRANCH  31  34
ATOM     34  O   UNL     1      28.931   2.642  54.400  0.00  0.00    +0.000 OA
ATOM     35  H   UNL     1      28.346   3.362  54.528  0.00  0.00    +0.000 HD
ENDBRANCH  31  34
ENDBRANCH  22  23
ENDBRANCH   1  22
TORSDOF 9
ENDMDL
MODEL 2
REMARK VINA RESULT:    -8.542      5.637     10.474
REMARK INTER + INTRA:         -14.452
REMARK INTER:                 -13.240
REMARK INTRA:                  -1.212
REMARK UNBOUND:                -1.666
REMARK  Name = 
REMARK  10 active torsions:
REMARK  status: ('A' for Active; 'I' for Inactive)
REMARK    1  A    between atoms: C_2  and  C_3
REMARK    2  A    between atoms: C_3  and  N_4
REMARK    3  A    between atoms: N_4  and  C_5
REMARK    4  A    between atoms: N_4  and  C_18
REMARK    5  A    between atoms: C_5  and  C_6
REMARK    6  A    between atoms: C_11  and  C_12
REMARK    7  A    between atoms: C_14  and  O_15
REMARK    8  A    between atoms: C_21  and  C_22
REMARK    9  A    between atoms: N_24  and  C_25
REMARK   10  A    between atoms: C_25  and  C_26
REMARK                            x       y       z     vdW  Elec       q    Type
REMARK                         _______ _______ _______ _____ _____    ______ ____
ROOT
ATOM      1  N   UNL     1      22.158   1.308  51.740  0.00  0.00    +0.000 N 
ENDROOT
BRANCH   1   2
ATOM      2  C   UNL     1      20.891   0.742  51.850  0.00  0.00    +0.000 A 
ATOM      3  C   UNL     1      19.938   0.757  50.818  0.00  0.00    +0.000 A 
ATOM      4  C   UNL     1      18.628   0.263  50.989  0.00  0.00    +0.000 A 
ATOM      5  C   UNL     1      18.217  -0.286  52.207  0.00  0.00    +0.000 A 
ATOM      6  C   UNL     1      19.171  -0.398  53.213  0.00  0.00    +0.000 A 
ATOM      7  C   UNL     1      20.468   0.109  53.032  0.00  0.00    +0.000 A 
BRANCH   5   8
ATOM      8  C   UNL     1      16.791  -0.723  52.386  0.00  0.00    +0.000 C 
ATOM      9  O   UNL     1      16.433  -1.843  52.027  0.00  0.00    +0.000 OA
ATOM     10  N   UNL     1      15.920   0.194  52.940  0.00  0.00    +0.000 N 
ATOM     11  H   UNL     1      16.282   1.054  53.251  0.00  0.00    +0.000 HD
BRANCH  10  12
ATOM     12  C   UNL     1      14.497  -0.047  53.084  0.00  0.00    +0.000 C 
BRANCH  12  13
ATOM     13  C   UNL     1      13.741   1.208  53.464  0.00  0.00    +0.000 A 
ATOM     14  C   UNL     1      12.579   1.120  54.228  0.00  0.00    +0.000 A 
ATOM     15  C   UNL     1      11.888   2.287  54.543  0.00  0.00    +0.000 A 
ATOM     16  C   UNL     1      12.369   3.508  54.088  0.00  0.00    +0.000 A 
ATOM     17  C   UNL     1      13.533   3.512  53.338  0.00  0.00    +0.000 A 
ATOM     18  N   UNL     1      14.224   2.396  53.010  0.00  0.00    +0.000 NA
ENDBRANCH  12  13
ENDBRANCH  10  12
ENDBRANCH   5   8
ENDBRANCH   1   2
BRANCH   1  19
ATOM     19  C   UNL     1      22.839   1.549  50.459  0.00  0.00    +0.000 C 
BRANCH  19  21
ATOM     20  C   UNL     1      22.902   4.173  49.942  0.00  0.00    +0.000 C 
ATOM     21  C   UNL     1      22.888   2.985  50.132  0.00  0.00    +0.000 C 
ENDBRANCH  19  21
ENDBRANCH   1  19
BRANCH   1  22
ATOM     22  C   UNL     1      22.916   1.723  52.936  0.00  0.00    +0.000 C 
BRANCH  22  23
ATOM     23  C   UNL     1      24.228   0.985  53.120  0.00  0.00    +0.000 A 
ATOM     24  C   UNL     1      24.354  -0.403  53.004  0.00  0.00    +0.000 A 
ATOM     25  C   UNL     1      25.610  -1.016  53.066  0.00  0.00    +0.000 A 
ATOM     26  C   UNL     1      26.764  -0.289  53.306  0.00  0.00    +0.000 A 
ATOM     27  N   UNL     1      27.938  -0.928  53.385  0.00  0.00    +0.000 NA
ATOM     28  C   UNL     1      29.028  -0.200  53.689  0.00  0.00    +0.000 A 
ATOM     29  C   UNL     1      30.313  -0.949  53.844  0.00  0.00    +0.000 C 
ATOM     30  N   UNL     1      29.035   1.126  53.904  0.00  0.00    +0.000 NA
ATOM     31  C   UNL     1      27.842   1.720  53.788  0.00  0.00    +0.000 A 
ATOM     32  C   UNL     1      26.646   1.087  53.486  0.00  0.00    +0.000 A 
ATOM     33  C   UNL     1      25.389   1.727  53.374  0.00  0.00    +0.000 A 
BRANCH  31  34
ATOM     34  O   UNL     1      27.883   3.056  54.052  0.00  0.00    +0.000 OA
ATOM     35  H   UNL     1      27.183   3.461  54.525  0.00  0.00    +0.000 HD
ENDBRANCH  31  34
ENDBRANCH  22  23
ENDBRANCH   1  22
TORSDOF 9
ENDMDL
MODEL 3
REMARK VINA RESULT:    -8.351      5.063      9.564
REMARK INTER + INTRA:         -14.168
REMARK INTER:                 -13.022
REMARK INTRA:                  -1.145
REMARK UNBOUND:                -1.666
REMARK  Name = 
REMARK  10 active torsions:
REMARK  status: ('A' for Active; 'I' for Inactive)
REMARK    1  A    between atoms: C_2  and  C_3
REMARK    2  A    between atoms: C_3  and  N_4
REMARK    3  A    between atoms: N_4  and  C_5
REMARK    4  A    between atoms: N_4  and  C_18
REMARK    5  A    between atoms: C_5  and  C_6
REMARK    6  A    between atoms: C_11  and  C_12
REMARK    7  A    between atoms: C_14  and  O_15
REMARK    8  A    between atoms: C_21  and  C_22
REMARK    9  A    between atoms: N_24  and  C_25
REMARK   10  A    between atoms: C_25  and  C_26
REMARK                            x       y       z     vdW  Elec       q    Type
REMARK                         _______ _______ _______ _____ _____    ______ ____
ROOT
ATOM      1  N   UNL     1      23.055   3.150  51.783  0.00  0.00    +0.000 N 
ENDROOT
BRANCH   1   2
ATOM      2  C   UNL     1      21.755   2.652  51.746  0.00  0.00    +0.000 A 
ATOM      3  C   UNL     1      21.442   1.309  51.480  0.00  0.00    +0.000 A 
ATOM      4  C   UNL     1      20.114   0.851  51.352  0.00  0.00    +0.000 A 
ATOM      5  C   UNL     1      19.033   1.724  51.499  0.00  0.00    +0.000 A 
ATOM      6  C   UNL     1      19.315   3.038  51.856  0.00  0.00    +0.000 A 
ATOM      7  C   UNL     1      20.643   3.483  51.969  0.00  0.00    +0.000 A 
BRANCH   5   8
ATOM      8  C   UNL     1      17.634   1.226  51.269  0.00  0.00    +0.000 C 
ATOM      9  O   UNL     1      17.431   0.246  50.555  0.00  0.00    +0.000 OA
ATOM     10  N   UNL     1      16.612   1.931  51.873  0.00  0.00    +0.000 N 
ATOM     11  H   UNL     1      16.847   2.675  52.472  0.00  0.00    +0.000 HD
BRANCH  10  12
ATOM     12  C   UNL     1      15.208   1.630  51.665  0.00  0.00    +0.000 C 
BRANCH  12  13
ATOM     13  C   UNL     1      14.305   2.518  52.494  0.00  0.00    +0.000 A 
ATOM     14  C   UNL     1      14.793   3.709  53.026  0.00  0.00    +0.000 A 
ATOM     15  C   UNL     1      13.949   4.495  53.807  0.00  0.00    +0.000 A 
ATOM     16  C   UNL     1      12.646   4.075  54.039  0.00  0.00    +0.000 A 
ATOM     17  C   UNL     1      12.236   2.880  53.471  0.00  0.00    +0.000 A 
ATOM     18  N   UNL     1      13.031   2.091  52.713  0.00  0.00    +0.000 NA
ENDBRANCH  12  13
ENDBRANCH  10  12
ENDBRANCH   5   8
ENDBRANCH   1   2
BRANCH   1  19
ATOM     19  C   UNL     1      23.745   3.726  50.619  0.00  0.00    +0.000 C 
BRANCH  19  21
ATOM     20  C   UNL     1      22.994   2.580  48.321  0.00  0.00    +0.000 C 
ATOM     21  C   UNL     1      23.350   3.056  49.368  0.00  0.00    +0.000 C 
ENDBRANCH  19  21
ENDBRANCH   1  19
BRANCH   1  22
ATOM     22  C   UNL     1      23.841   3.139  53.032  0.00  0.00    +0.000 C 
BRANCH  22  23
ATOM     23  C   UNL     1      24.862   2.020  53.107  0.00  0.00    +0.000 A 
ATOM     24  C   UNL     1      24.572   0.690  52.786  0.00  0.00    +0.000 A 
ATOM     25  C   UNL     1      25.583  -0.277  52.760  0.00  0.00    +0.000 A 
ATOM     26  C   UNL     1      26.888   0.025  53.108  0.00  0.00    +0.000 A 
ATOM     27  N   UNL     1      27.812  -0.944  53.094  0.00  0.00    +0.000 NA
ATOM     28  C   UNL     1      29.054  -0.631  53.506  0.00  0.00    +0.000 A 
ATOM     29  C   UNL     1      30.047  -1.749  53.551  0.00  0.00    +0.000 C 
ATOM     30  N   UNL     1      29.447   0.586  53.916  0.00  0.00    +0.000 NA
ATOM     31  C   UNL     1      28.494   1.524  53.887  0.00  0.00    +0.000 A 
ATOM     32  C   UNL     1      27.179   1.332  53.491  0.00  0.00    +0.000 A 
ATOM     33  C   UNL     1      26.178   2.331  53.472  0.00  0.00    +0.000 A 
BRANCH  31  34
ATOM     34  O   UNL     1      28.920   2.733  54.346  0.00  0.00    +0.000 OA
ATOM     35  H   UNL     1      29.152   3.408  53.741  0.00  0.00    +0.000 HD
ENDBRANCH  31  34
ENDBRANCH  22  23
ENDBRANCH   1  22
TORSDOF 9
ENDMDL
MODEL 4
REMARK VINA RESULT:    -8.325      1.712      2.274
REMARK INTER + INTRA:         -14.128
REMARK INTER:                 -12.634
REMARK INTRA:                  -1.494
REMARK UNBOUND:                -1.666
REMARK  Name = 
REMARK  10 active torsions:
REMARK  status: ('A' for Active; 'I' for Inactive)
REMARK    1  A    between atoms: C_2  and  C_3
REMARK    2  A    between atoms: C_3  and  N_4
REMARK    3  A    between atoms: N_4  and  C_5
REMARK    4  A    between atoms: N_4  and  C_18
REMARK    5  A    between atoms: C_5  and  C_6
REMARK    6  A    between atoms: C_11  and  C_12
REMARK    7  A    between atoms: C_14  and  O_15
REMARK    8  A    between atoms: C_21  and  C_22
REMARK    9  A    between atoms: N_24  and  C_25
REMARK   10  A    between atoms: C_25  and  C_26
REMARK                            x       y       z     vdW  Elec       q    Type
REMARK                         _______ _______ _______ _____ _____    ______ ____
ROOT
ATOM      1  N   UNL     1      22.874   2.260  51.365  0.00  0.00    +0.000 N 
ENDROOT
BRANCH   1   2
ATOM      2  C   UNL     1      23.606   3.340  50.881  0.00  0.00    +0.000 A 
ATOM      3  C   UNL     1      24.650   3.219  49.948  0.00  0.00    +0.000 A 
ATOM      4  C   UNL     1      25.439   4.318  49.547  0.00  0.00    +0.000 A 
ATOM      5  C   UNL     1      25.206   5.598  50.058  0.00  0.00    +0.000 A 
ATOM      6  C   UNL     1      24.119   5.760  50.909  0.00  0.00    +0.000 A 
ATOM      7  C   UNL     1      23.349   4.655  51.309  0.00  0.00    +0.000 A 
BRANCH   5   8
ATOM      8  C   UNL     1      26.119   6.730  49.680  0.00  0.00    +0.000 C 
ATOM      9  O   UNL     1      26.092   7.788  50.304  0.00  0.00    +0.000 OA
ATOM     10  N   UNL     1      26.954   6.526  48.599  0.00  0.00    +0.000 N 
ATOM     11  H   UNL     1      26.962   5.638  48.175  0.00  0.00    +0.000 HD
BRANCH  10  12
ATOM     12  C   UNL     1      27.818   7.556  48.056  0.00  0.00    +0.000 C 
BRANCH  12  13
ATOM     13  C   UNL     1      29.272   7.134  48.043  0.00  0.00    +0.000 A 
ATOM     14  C   UNL     1      30.279   8.096  48.034  0.00  0.00    +0.000 A 
ATOM     15  C   UNL     1      31.608   7.682  47.996  0.00  0.00    +0.000 A 
ATOM     16  C   UNL     1      31.899   6.324  47.966  0.00  0.00    +0.000 A 
ATOM     17  C   UNL     1      30.841   5.431  47.982  0.00  0.00    +0.000 A 
ATOM     18  N   UNL     1      29.540   5.800  48.013  0.00  0.00    +0.000 NA
ENDBRANCH  12  13
ENDBRANCH  10  12
ENDBRANCH   5   8
ENDBRANCH   1   2
BRANCH   1  19
ATOM     19  C   UNL     1      21.895   1.509  50.565  0.00  0.00    +0.000 C 
BRANCH  19  21
ATOM     20  C   UNL     1      19.792   3.061  49.993  0.00  0.00    +0.000 C 
ATOM     21  C   UNL     1      20.731   2.340  50.212  0.00  0.00    +0.000 C 
ENDBRANCH  19  21
ENDBRANCH   1  19
BRANCH   1  22
ATOM     22  C   UNL     1      23.045   1.781  52.751  0.00  0.00    +0.000 C 
BRANCH  22  23
ATOM     23  C   UNL     1      24.332   1.012  52.981  0.00  0.00    +0.000 A 
ATOM     24  C   UNL     1      24.433  -0.377  52.855  0.00  0.00    +0.000 A 
ATOM     25  C   UNL     1      25.672  -1.019  52.963  0.00  0.00    +0.000 A 
ATOM     26  C   UNL     1      26.829  -0.320  53.260  0.00  0.00    +0.000 A 
ATOM     27  N   UNL     1      27.985  -0.985  53.382  0.00  0.00    +0.000 NA
ATOM     28  C   UNL     1      29.076  -0.285  53.741  0.00  0.00    +0.000 A 
ATOM     29  C   UNL     1      30.337  -1.064  53.942  0.00  0.00    +0.000 C 
ATOM     30  N   UNL     1      29.102   1.038  53.972  0.00  0.00    +0.000 NA
ATOM     31  C   UNL     1      27.929   1.660  53.812  0.00  0.00    +0.000 A 
ATOM     32  C   UNL     1      26.733   1.057  53.451  0.00  0.00    +0.000 A 
ATOM     33  C   UNL     1      25.497   1.725  53.293  0.00  0.00    +0.000 A 
BRANCH  31  34
ATOM     34  O   UNL     1      27.987   2.991  54.092  0.00  0.00    +0.000 OA
ATOM     35  H   UNL     1      27.609   3.611  53.501  0.00  0.00    +0.000 HD
ENDBRANCH  31  34
ENDBRANCH  22  23
ENDBRANCH   1  22
TORSDOF 9
ENDMDL
MODEL 5
REMARK VINA RESULT:    -8.300      3.152      5.808
REMARK INTER + INTRA:         -14.090
REMARK INTER:                 -13.027
REMARK INTRA:                  -1.063
REMARK UNBOUND:                -1.666
REMARK  Name = 
REMARK  10 active torsions:
REMARK  status: ('A' for Active; 'I' for Inactive)
REMARK    1  A    between atoms: C_2  and  C_3
REMARK    2  A    between atoms: C_3  and  N_4
REMARK    3  A    between atoms: N_4  and  C_5
REMARK    4  A    between atoms: N_4  and  C_18
REMARK    5  A    between atoms: C_5  and  C_6
REMARK    6  A    between atoms: C_11  and  C_12
REMARK    7  A    between atoms: C_14  and  O_15
REMARK    8  A    between atoms: C_21  and  C_22
REMARK    9  A    between atoms: N_24  and  C_25
REMARK   10  A    between atoms: C_25  and  C_26
REMARK                            x       y       z     vdW  Elec       q    Type
REMARK                         _______ _______ _______ _____ _____    ______ ____
ROOT
ATOM      1  N   UNL     1      25.657   0.639  53.505  0.00  0.00    +0.000 N 
ENDROOT
BRANCH   1   2
ATOM      2  C   UNL     1      25.588   1.605  52.505  0.00  0.00    +0.000 A 
ATOM      3  C   UNL     1      26.458   1.650  51.404  0.00  0.00    +0.000 A 
ATOM      4  C   UNL     1      26.428   2.695  50.456  0.00  0.00    +0.000 A 
ATOM      5  C   UNL     1      25.509   3.742  50.566  0.00  0.00    +0.000 A 
ATOM      6  C   UNL     1      24.575   3.669  51.594  0.00  0.00    +0.000 A 
ATOM      7  C   UNL     1      24.625   2.628  52.537  0.00  0.00    +0.000 A 
BRANCH   5   8
ATOM      8  C   UNL     1      25.560   4.885  49.592  0.00  0.00    +0.000 C 
ATOM      9  O   UNL     1      24.636   5.074  48.804  0.00  0.00    +0.000 OA
ATOM     10  N   UNL     1      26.689   5.678  49.617  0.00  0.00    +0.000 N 
ATOM     11  H   UNL     1      27.369   5.502  50.307  0.00  0.00    +0.000 HD
BRANCH  10  12
ATOM     12  C   UNL     1      26.926   6.755  48.675  0.00  0.00    +0.000 C 
BRANCH  12  13
ATOM     13  C   UNL     1      28.339   6.739  48.132  0.00  0.00    +0.000 A 
ATOM     14  C   UNL     1      29.153   5.627  48.334  0.00  0.00    +0.000 A 
ATOM     15  C   UNL     1      30.457   5.648  47.847  0.00  0.00    +0.000 A 
ATOM     16  C   UNL     1      30.917   6.773  47.174  0.00  0.00    +0.000 A 
ATOM     17  C   UNL     1      30.044   7.836  47.011  0.00  0.00    +0.000 A 
ATOM     18  N   UNL     1      28.774   7.850  47.477  0.00  0.00    +0.000 NA
ENDBRANCH  12  13
ENDBRANCH  10  12
ENDBRANCH   5   8
ENDBRANCH   1   2
BRANCH   1  19
ATOM     19  C   UNL     1      26.320   0.848  54.802  0.00  0.00    +0.000 C 
BRANCH  19  21
ATOM     20  C   UNL     1      28.875   0.055  54.793  0.00  0.00    +0.000 C 
ATOM     21  C   UNL     1      27.734   0.437  54.761  0.00  0.00    +0.000 C 
ENDBRANCH  19  21
ENDBRANCH   1  19
BRANCH   1  22
ATOM     22  C   UNL     1      25.044  -0.691  53.327  0.00  0.00    +0.000 C 
BRANCH  22  23
ATOM     23  C   UNL     1      23.528  -0.675  53.325  0.00  0.00    +0.000 A 
ATOM     24  C   UNL     1      22.752  -1.091  54.412  0.00  0.00    +0.000 A 
ATOM     25  C   UNL     1      21.361  -0.942  54.398  0.00  0.00    +0.000 A 
ATOM     26  C   UNL     1      20.694  -0.440  53.293  0.00  0.00    +0.000 A 
ATOM     27  N   UNL     1      19.359  -0.346  53.320  0.00  0.00    +0.000 NA
ATOM     28  C   UNL     1      18.739   0.079  52.204  0.00  0.00    +0.000 A 
ATOM     29  C   UNL     1      17.243   0.105  52.236  0.00  0.00    +0.000 C 
ATOM     30  N   UNL     1      19.357   0.434  51.065  0.00  0.00    +0.000 NA
ATOM     31  C   UNL     1      20.691   0.346  51.099  0.00  0.00    +0.000 A 
ATOM     32  C   UNL     1      21.449  -0.081  52.179  0.00  0.00    +0.000 A 
ATOM     33  C   UNL     1      22.860  -0.177  52.199  0.00  0.00    +0.000 A 
BRANCH  31  34
ATOM     34  O   UNL     1      21.278   0.675  49.916  0.00  0.00    +0.000 OA
ATOM     35  H   UNL     1      21.908   0.101  49.529  0.00  0.00    +0.000 HD
ENDBRANCH  31  34
ENDBRANCH  22  23
ENDBRANCH   1  22
TORSDOF 9
ENDMDL
MODEL 6
REMARK VINA RESULT:    -8.272      2.331      8.235
REMARK INTER + INTRA:         -14.049
REMARK INTER:                 -12.726
REMARK INTRA:                  -1.323
REMARK UNBOUND:                -1.666
REMARK  Name = 
REMARK  10 active torsions:
REMARK  status: ('A' for Active; 'I' for Inactive)
REMARK    1  A    between atoms: C_2  and  C_3
REMARK    2  A    between atoms: C_3  and  N_4
REMARK    3  A    between atoms: N_4  and  C_5
REMARK    4  A    between atoms: N_4  and  C_18
REMARK    5  A    between atoms: C_5  and  C_6
REMARK    6  A    between atoms: C_11  and  C_12
REMARK    7  A    between atoms: C_14  and  O_15
REMARK    8  A    between atoms: C_21  and  C_22
REMARK    9  A    between atoms: N_24  and  C_25
REMARK   10  A    between atoms: C_25  and  C_26
REMARK                            x       y       z     vdW  Elec       q    Type
REMARK                         _______ _______ _______ _____ _____    ______ ____
ROOT
ATOM      1  N   UNL     1      22.572   5.920  50.315  0.00  0.00    +0.000 N 
ENDROOT
BRANCH   1   2
ATOM      2  C   UNL     1      22.806   4.724  50.988  0.00  0.00    +0.000 A 
ATOM      3  C   UNL     1      23.418   4.647  52.250  0.00  0.00    +0.000 A 
ATOM      4  C   UNL     1      23.731   3.417  52.866  0.00  0.00    +0.000 A 
ATOM      5  C   UNL     1      23.429   2.201  52.246  0.00  0.00    +0.000 A 
ATOM      6  C   UNL     1      22.737   2.252  51.041  0.00  0.00    +0.000 A 
ATOM      7  C   UNL     1      22.442   3.484  50.433  0.00  0.00    +0.000 A 
BRANCH   5   8
ATOM      8  C   UNL     1      23.854   0.910  52.886  0.00  0.00    +0.000 C 
ATOM      9  O   UNL     1      23.114   0.336  53.683  0.00  0.00    +0.000 OA
ATOM     10  N   UNL     1      25.105   0.430  52.555  0.00  0.00    +0.000 N 
ATOM     11  H   UNL     1      25.626   0.912  51.873  0.00  0.00    +0.000 HD
BRANCH  10  12
ATOM     12  C   UNL     1      25.692  -0.748  53.165  0.00  0.00    +0.000 C 
BRANCH  12  13
ATOM     13  C   UNL     1      27.181  -0.594  53.389  0.00  0.00    +0.000 A 
ATOM     14  C   UNL     1      28.046  -1.641  53.081  0.00  0.00    +0.000 A 
ATOM     15  C   UNL     1      29.409  -1.484  53.320  0.00  0.00    +0.000 A 
ATOM     16  C   UNL     1      29.874  -0.291  53.859  0.00  0.00    +0.000 A 
ATOM     17  C   UNL     1      28.951   0.704  54.134  0.00  0.00    +0.000 A 
ATOM     18  N   UNL     1      27.620   0.580  53.919  0.00  0.00    +0.000 NA
ENDBRANCH  12  13
ENDBRANCH  10  12
ENDBRANCH   5   8
ENDBRANCH   1   2
BRANCH   1  19
ATOM     19  C   UNL     1      22.189   7.174  50.982  0.00  0.00    +0.000 C 
BRANCH  19  21
ATOM     20  C   UNL     1      20.179   8.419  49.732  0.00  0.00    +0.000 C 
ATOM     21  C   UNL     1      21.109   7.866  50.258  0.00  0.00    +0.000 C 
ENDBRANCH  19  21
ENDBRANCH   1  19
BRANCH   1  22
ATOM     22  C   UNL     1      22.705   6.009  48.848  0.00  0.00    +0.000 C 
BRANCH  22  23
ATOM     23  C   UNL     1      24.092   6.406  48.379  0.00  0.00    +0.000 A 
ATOM     24  C   UNL     1      24.343   7.522  47.576  0.00  0.00    +0.000 A 
ATOM     25  C   UNL     1      25.654   7.906  47.273  0.00  0.00    +0.000 A 
ATOM     26  C   UNL     1      26.745   7.167  47.698  0.00  0.00    +0.000 A 
ATOM     27  N   UNL     1      27.978   7.561  47.356  0.00  0.00    +0.000 NA
ATOM     28  C   UNL     1      29.010   6.781  47.725  0.00  0.00    +0.000 A 
ATOM     29  C   UNL     1      30.369   7.205  47.267  0.00  0.00    +0.000 C 
ATOM     30  N   UNL     1      28.903   5.642  48.429  0.00  0.00    +0.000 NA
ATOM     31  C   UNL     1      27.653   5.306  48.767  0.00  0.00    +0.000 A 
ATOM     32  C   UNL     1      26.507   6.017  48.445  0.00  0.00    +0.000 A 
ATOM     33  C   UNL     1      25.189   5.646  48.803  0.00  0.00    +0.000 A 
BRANCH  31  34
ATOM     34  O   UNL     1      27.582   4.127  49.444  0.00  0.00    +0.000 OA
ATOM     35  H   UNL     1      28.207   3.450  49.273  0.00  0.00    +0.000 HD
ENDBRANCH  31  34
ENDBRANCH  22  23
ENDBRANCH   1  22
TORSDOF 9
ENDMDL
MODEL 7
REMARK VINA RESULT:    -8.230      2.358      3.261
REMARK INTER + INTRA:         -13.985
REMARK INTER:                 -12.608
REMARK INTRA:                  -1.377
REMARK UNBOUND:                -1.666
REMARK  Name = 
REMARK  10 active torsions:
REMARK  status: ('A' for Active; 'I' for Inactive)
REMARK    1  A    between atoms: C_2  and  C_3
REMARK    2  A    between atoms: C_3  and  N_4
REMARK    3  A    between atoms: N_4  and  C_5
REMARK    4  A    between atoms: N_4  and  C_18
REMARK    5  A    between atoms: C_5  and  C_6
REMARK    6  A    between atoms: C_11  and  C_12
REMARK    7  A    between atoms: C_14  and  O_15
REMARK    8  A    between atoms: C_21  and  C_22
REMARK    9  A    between atoms: N_24  and  C_25
REMARK   10  A    between atoms: C_25  and  C_26
REMARK                            x       y       z     vdW  Elec       q    Type
REMARK                         _______ _______ _______ _____ _____    ______ ____
ROOT
ATOM      1  N   UNL     1      21.444   2.607  51.664  0.00  0.00    +0.000 N 
ENDROOT
BRANCH   1   2
ATOM      2  C   UNL     1      21.973   3.859  51.363  0.00  0.00    +0.000 A 
ATOM      3  C   UNL     1      21.878   4.461  50.098  0.00  0.00    +0.000 A 
ATOM      4  C   UNL     1      22.508   5.687  49.792  0.00  0.00    +0.000 A 
ATOM      5  C   UNL     1      23.254   6.373  50.754  0.00  0.00    +0.000 A 
ATOM      6  C   UNL     1      23.283   5.844  52.040  0.00  0.00    +0.000 A 
ATOM      7  C   UNL     1      22.661   4.617  52.326  0.00  0.00    +0.000 A 
BRANCH   5   8
ATOM      8  C   UNL     1      23.985   7.630  50.374  0.00  0.00    +0.000 C 
ATOM      9  O   UNL     1      23.392   8.552  49.818  0.00  0.00    +0.000 OA
ATOM     10  N   UNL     1      25.335   7.678  50.657  0.00  0.00    +0.000 N 
ATOM     11  H   UNL     1      25.737   6.926  51.148  0.00  0.00    +0.000 HD
BRANCH  10  12
ATOM     12  C   UNL     1      26.191   8.780  50.262  0.00  0.00    +0.000 C 
BRANCH  12  13
ATOM     13  C   UNL     1      27.378   8.318  49.444  0.00  0.00    +0.000 A 
ATOM     14  C   UNL     1      27.286   7.162  48.672  0.00  0.00    +0.000 A 
ATOM     15  C   UNL     1      28.400   6.743  47.948  0.00  0.00    +0.000 A 
ATOM     16  C   UNL     1      29.573   7.484  48.013  0.00  0.00    +0.000 A 
ATOM     17  C   UNL     1      29.582   8.624  48.799  0.00  0.00    +0.000 A 
ATOM     18  N   UNL     1      28.520   9.054  49.519  0.00  0.00    +0.000 NA
ENDBRANCH  12  13
ENDBRANCH  10  12
ENDBRANCH   5   8
ENDBRANCH   1   2
BRANCH   1  19
ATOM     19  C   UNL     1      20.207   2.405  52.435  0.00  0.00    +0.000 C 
BRANCH  19  21
ATOM     20  C   UNL     1      18.755   0.355  51.517  0.00  0.00    +0.000 C 
ATOM     21  C   UNL     1      19.403   1.298  51.890  0.00  0.00    +0.000 C 
ENDBRANCH  19  21
ENDBRANCH   1  19
BRANCH   1  22
ATOM     22  C   UNL     1      22.103   1.368  51.208  0.00  0.00    +0.000 C 
BRANCH  22  23
ATOM     23  C   UNL     1      23.340   1.000  52.005  0.00  0.00    +0.000 A 
ATOM     24  C   UNL     1      23.357  -0.002  52.980  0.00  0.00    +0.000 A 
ATOM     25  C   UNL     1      24.554  -0.380  53.599  0.00  0.00    +0.000 A 
ATOM     26  C   UNL     1      25.750   0.260  53.321  0.00  0.00    +0.000 A 
ATOM     27  N   UNL     1      26.862  -0.119  53.962  0.00  0.00    +0.000 NA
ATOM     28  C   UNL     1      27.991   0.570  53.719  0.00  0.00    +0.000 A 
ATOM     29  C   UNL     1      29.201   0.173  54.504  0.00  0.00    +0.000 C 
ATOM     30  N   UNL     1      28.096   1.604  52.868  0.00  0.00    +0.000 NA
ATOM     31  C   UNL     1      26.963   1.927  52.235  0.00  0.00    +0.000 A 
ATOM     32  C   UNL     1      25.736   1.303  52.397  0.00  0.00    +0.000 A 
ATOM     33  C   UNL     1      24.543   1.660  51.726  0.00  0.00    +0.000 A 
BRANCH  31  34
ATOM     34  O   UNL     1      27.100   3.003  51.411  0.00  0.00    +0.000 OA
ATOM     35  H   UNL     1      27.944   3.388  51.279  0.00  0.00    +0.000 HD
ENDBRANCH  31  34
ENDBRANCH  22  23
ENDBRANCH   1  22
TORSDOF 9
ENDMDL
MODEL 8
REMARK VINA RESULT:    -8.181      2.389      8.468
REMARK INTER + INTRA:         -13.912
REMARK INTER:                 -12.642
REMARK INTRA:                  -1.270
REMARK UNBOUND:                -1.666
REMARK  Name = 
REMARK  10 active torsions:
REMARK  status: ('A' for Active; 'I' for Inactive)
REMARK    1  A    between atoms: C_2  and  C_3
REMARK    2  A    between atoms: C_3  and  N_4
REMARK    3  A    between atoms: N_4  and  C_5
REMARK    4  A    between atoms: N_4  and  C_18
REMARK    5  A    between atoms: C_5  and  C_6
REMARK    6  A    between atoms: C_11  and  C_12
REMARK    7  A    between atoms: C_14  and  O_15
REMARK    8  A    between atoms: C_21  and  C_22
REMARK    9  A    between atoms: N_24  and  C_25
REMARK   10  A    between atoms: C_25  and  C_26
REMARK                            x       y       z     vdW  Elec       q    Type
REMARK                         _______ _______ _______ _____ _____    ______ ____
ROOT
ATOM      1  N   UNL     1      23.651   6.395  50.017  0.00  0.00    +0.000 N 
ENDROOT
BRANCH   1   2
ATOM      2  C   UNL     1      23.666   5.122  50.580  0.00  0.00    +0.000 A 
ATOM      3  C   UNL     1      23.688   4.883  51.964  0.00  0.00    +0.000 A 
ATOM      4  C   UNL     1      23.801   3.585  52.507  0.00  0.00    +0.000 A 
ATOM      5  C   UNL     1      23.883   2.462  51.680  0.00  0.00    +0.000 A 
ATOM      6  C   UNL     1      23.768   2.666  50.309  0.00  0.00    +0.000 A 
ATOM      7  C   UNL     1      23.668   3.965  49.782  0.00  0.00    +0.000 A 
BRANCH   5   8
ATOM      8  C   UNL     1      24.091   1.103  52.285  0.00  0.00    +0.000 C 
ATOM      9  O   UNL     1      23.136   0.456  52.709  0.00  0.00    +0.000 OA
ATOM     10  N   UNL     1      25.391   0.643  52.360  0.00  0.00    +0.000 N 
ATOM     11  H   UNL     1      26.104   1.189  51.957  0.00  0.00    +0.000 HD
BRANCH  10  12
ATOM     12  C   UNL     1      25.758  -0.603  53.005  0.00  0.00    +0.000 C 
BRANCH  12  13
ATOM     13  C   UNL     1      27.252  -0.714  53.224  0.00  0.00    +0.000 A 
ATOM     14  C   UNL     1      27.986   0.403  53.616  0.00  0.00    +0.000 A 
ATOM     15  C   UNL     1      29.363   0.281  53.786  0.00  0.00    +0.000 A 
ATOM     16  C   UNL     1      29.972  -0.947  53.561  0.00  0.00    +0.000 A 
ATOM     17  C   UNL     1      29.172  -2.010  53.178  0.00  0.00    +0.000 A 
ATOM     18  N   UNL     1      27.833  -1.923  52.998  0.00  0.00    +0.000 NA
ENDBRANCH  12  13
ENDBRANCH  10  12
ENDBRANCH   5   8
ENDBRANCH   1   2
BRANCH   1  19
ATOM     19  C   UNL     1      23.053   7.572  50.666  0.00  0.00    +0.000 C 
BRANCH  19  21
ATOM     20  C   UNL     1      21.520   8.894  48.918  0.00  0.00    +0.000 C 
ATOM     21  C   UNL     1      22.192   8.324  49.737  0.00  0.00    +0.000 C 
ENDBRANCH  19  21
ENDBRANCH   1  19
BRANCH   1  22
ATOM     22  C   UNL     1      24.261   6.654  48.698  0.00  0.00    +0.000 C 
BRANCH  22  23
ATOM     23  C   UNL     1      25.773   6.769  48.731  0.00  0.00    +0.000 A 
ATOM     24  C   UNL     1      26.633   5.718  48.396  0.00  0.00    +0.000 A 
ATOM     25  C   UNL     1      28.016   5.917  48.330  0.00  0.00    +0.000 A 
ATOM     26  C   UNL     1      28.592   7.134  48.651  0.00  0.00    +0.000 A 
ATOM     27  N   UNL     1      29.924   7.264  48.600  0.00  0.00    +0.000 NA
ATOM     28  C   UNL     1      30.454   8.439  48.987  0.00  0.00    +0.000 A 
ATOM     29  C   UNL     1      31.946   8.532  48.990  0.00  0.00    +0.000 C 
ATOM     30  N   UNL     1      29.749   9.502  49.406  0.00  0.00    +0.000 NA
ATOM     31  C   UNL     1      28.422   9.329  49.414  0.00  0.00    +0.000 A 
ATOM     32  C   UNL     1      27.752   8.172  49.047  0.00  0.00    +0.000 A 
ATOM     33  C   UNL     1      26.349   8.000  49.068  0.00  0.00    +0.000 A 
BRANCH  31  34
ATOM     34  O   UNL     1      27.745  10.415  49.882  0.00  0.00    +0.000 OA
ATOM     35  H   UNL     1      27.907  10.730  50.749  0.00  0.00    +0.000 HD
ENDBRANCH  31  34
ENDBRANCH  22  23
ENDBRANCH   1  22
TORSDOF 9
ENDMDL
MODEL 9
REMARK VINA RESULT:    -8.180      1.972      2.711
REMARK INTER + INTRA:         -13.910
REMARK INTER:                 -12.775
REMARK INTRA:                  -1.136
REMARK UNBOUND:                -1.666
REMARK  Name = 
REMARK  10 active torsions:
REMARK  status: ('A' for Active; 'I' for Inactive)
REMARK    1  A    between atoms: C_2  and  C_3
REMARK    2  A    between atoms: C_3  and  N_4
REMARK    3  A    between atoms: N_4  and  C_5
REMARK    4  A    between atoms: N_4  and  C_18
REMARK    5  A    between atoms: C_5  and  C_6
REMARK    6  A    between atoms: C_11  and  C_12
REMARK    7  A    between atoms: C_14  and  O_15
REMARK    8  A    between atoms: C_21  and  C_22
REMARK    9  A    between atoms: N_24  and  C_25
REMARK   10  A    between atoms: C_25  and  C_26
REMARK                            x       y       z     vdW  Elec       q    Type
REMARK                         _______ _______ _______ _____ _____    ______ ____
ROOT
ATOM      1  N   UNL     1      23.090   2.219  51.262  0.00  0.00    +0.000 N 
ENDROOT
BRANCH   1   2
ATOM      2  C   UNL     1      23.746   3.419  51.002  0.00  0.00    +0.000 A 
ATOM      3  C   UNL     1      23.443   4.629  51.648  0.00  0.00    +0.000 A 
ATOM      4  C   UNL     1      24.057   5.850  51.297  0.00  0.00    +0.000 A 
ATOM      5  C   UNL     1      25.018   5.909  50.284  0.00  0.00    +0.000 A 
ATOM      6  C   UNL     1      25.403   4.709  49.695  0.00  0.00    +0.000 A 
ATOM      7  C   UNL     1      24.775   3.503  50.047  0.00  0.00    +0.000 A 
BRANCH   5   8
ATOM      8  C   UNL     1      25.588   7.237  49.873  0.00  0.00    +0.000 C 
ATOM      9  O   UNL     1      24.863   8.225  49.782  0.00  0.00    +0.000 OA
ATOM     10  N   UNL     1      26.938   7.276  49.586  0.00  0.00    +0.000 N 
ATOM     11  H   UNL     1      27.470   6.461  49.728  0.00  0.00    +0.000 HD
BRANCH  10  12
ATOM     12  C   UNL     1      27.610   8.459  49.083  0.00  0.00    +0.000 C 
BRANCH  12  13
ATOM     13  C   UNL     1      29.074   8.205  48.793  0.00  0.00    +0.000 A 
ATOM     14  C   UNL     1      29.454   7.108  48.024  0.00  0.00    +0.000 A 
ATOM     15  C   UNL     1      30.808   6.882  47.792  0.00  0.00    +0.000 A 
ATOM     16  C   UNL     1      31.747   7.750  48.334  0.00  0.00    +0.000 A 
ATOM     17  C   UNL     1      31.289   8.820  49.084  0.00  0.00    +0.000 A 
ATOM     18  N   UNL     1      29.981   9.065  49.332  0.00  0.00    +0.000 NA
ENDBRANCH  12  13
ENDBRANCH  10  12
ENDBRANCH   5   8
ENDBRANCH   1   2
BRANCH   1  19
ATOM     19  C   UNL     1      22.195   1.551  50.305  0.00  0.00    +0.000 C 
BRANCH  19  21
ATOM     20  C   UNL     1      20.259   0.235  51.600  0.00  0.00    +0.000 C 
ATOM     21  C   UNL     1      21.099   0.844  50.989  0.00  0.00    +0.000 C 
ENDBRANCH  19  21
ENDBRANCH   1  19
BRANCH   1  22
ATOM     22  C   UNL     1      23.263   1.516  52.548  0.00  0.00    +0.000 C 
BRANCH  22  23
ATOM     23  C   UNL     1      24.710   1.242  52.910  0.00  0.00    +0.000 A 
ATOM     24  C   UNL     1      25.531   2.169  53.560  0.00  0.00    +0.000 A 
ATOM     25  C   UNL     1      26.820   1.817  53.974  0.00  0.00    +0.000 A 
ATOM     26  C   UNL     1      27.356   0.569  53.705  0.00  0.00    +0.000 A 
ATOM     27  N   UNL     1      28.606   0.293  54.097  0.00  0.00    +0.000 NA
ATOM     28  C   UNL     1      29.119  -0.903  53.757  0.00  0.00    +0.000 A 
ATOM     29  C   UNL     1      30.542  -1.156  54.144  0.00  0.00    +0.000 C 
ATOM     30  N   UNL     1      28.469  -1.853  53.066  0.00  0.00    +0.000 NA
ATOM     31  C   UNL     1      27.216  -1.538  52.720  0.00  0.00    +0.000 A 
ATOM     32  C   UNL     1      26.572  -0.343  53.002  0.00  0.00    +0.000 A 
ATOM     33  C   UNL     1      25.248  -0.019  52.624  0.00  0.00    +0.000 A 
BRANCH  31  34
ATOM     34  O   UNL     1      26.604  -2.509  51.988  0.00  0.00    +0.000 OA
ATOM     35  H   UNL     1      26.424  -2.368  51.080  0.00  0.00    +0.000 HD
ENDBRANCH  31  34
ENDBRANCH  22  23
ENDBRANCH   1  22
TORSDOF 9
ENDMDL
