MODEL 1
REMARK VINA RESULT:    -8.623      0.000      0.000
REMARK INTER + INTRA:         -14.863
REMARK INTER:                 -13.161
REMARK INTRA:                  -1.702
REMARK UNBOUND:                -1.702
REMARK  Name = 
REMARK  11 active torsions:
REMARK  status: ('A' for Active; 'I' for Inactive)
REMARK    1  A    between atoms: C_1  and  C_2
REMARK    2  A    between atoms: C_2  and  C_3
REMARK    3  A    between atoms: C_3  and  C_4
REMARK    4  A    between atoms: C_4  and  C_5
REMARK    5  A    between atoms: C_5  and  C_15
REMARK    6  A    between atoms: C_6  and  C_7
REMARK    7  A    between atoms: C_7  and  N_8
REMARK    8  A    between atoms: C_19  and  O_20
REMARK    9  A    between atoms: O_20  and  C_21
REMARK   10  A    between atoms: C_24  and  O_25
REMARK   11  A    between atoms: O_25  and  C_26
REMARK                            x       y       z     vdW  Elec       q    Type
REMARK                         _______ _______ _______ _____ _____    ______ ____
ROOT
ATOM      1  C   UNL     1      23.903   0.306  52.810  0.00  0.00    +0.000 C 
ATOM      2  C   UNL     1      25.230   0.259  53.069  0.00  0.00    +0.000 C 
ENDROOT
BRANCH   1   3
ATOM      3  C   UNL     1      23.428   1.369  51.863  0.00  0.00    +0.000 A 
ATOM      4  C   UNL     1      22.377   1.103  50.972  0.00  0.00    +0.000 A 
ATOM      5  C   UNL     1      22.071   1.975  49.925  0.00  0.00    +0.000 A 
ATOM      6  C   UNL     1      22.781   3.159  49.782  0.00  0.00    +0.000 A 
ATOM      7  C   UNL     1      23.680   3.547  50.774  0.00  0.00    +0.000 A 
ATOM      8  C   UNL     1      24.051   2.635  51.771  0.00  0.00    +0.000 A 
BRANCH   7   9
ATOM      9  O   UNL     1      24.240   4.812  50.820  0.00  0.00    +0.000 OA
BRANCH   9  10
ATOM     10  C   UNL     1      25.299   5.085  49.971  0.00  0.00    +0.000 A 
ATOM     11  C   UNL     1      26.237   4.132  49.559  0.00  0.00    +0.000 A 
ATOM     12  C   UNL     1      27.377   4.512  48.845  0.00  0.00    +0.000 A 
ATOM     13  C   UNL     1      27.543   5.840  48.457  0.00  0.00    +0.000 A 
ATOM     14  C   UNL     1      26.542   6.768  48.762  0.00  0.00    +0.000 A 
ATOM     15  C   UNL     1      25.424   6.398  49.519  0.00  0.00    +0.000 A 
BRANCH  13  16
ATOM     16  O   UNL     1      28.622   6.348  47.789  0.00  0.00    +0.000 OA
ATOM     17  C   UNL     1      29.896   5.805  48.120  0.00  0.00    +0.000 C 
ENDBRANCH  13  16
ENDBRANCH   9  10
ENDBRANCH   7   9
ENDBRANCH   1   3
BRANCH   1  18
ATOM     18  C   UNL     1      22.932  -0.788  53.233  0.00  0.00    +0.000 C 
BRANCH  18  19
ATOM     19  C   UNL     1      22.145  -0.568  54.535  0.00  0.00    +0.000 C 
BRANCH  19  21
ATOM     20  C   UNL     1      19.888  -0.399  53.352  0.00  0.00    +0.000 C 
ATOM     21  C   UNL     1      20.830   0.196  54.386  0.00  0.00    +0.000 C 
ENDBRANCH  19  21
ENDBRANCH  18  19
ENDBRANCH   1  18
BRANCH   2  22
ATOM     22  C   UNL     1      26.020  -0.802  53.779  0.00  0.00    +0.000 C 
BRANCH  22  23
ATOM     23  N   UNL     1      27.282  -0.197  54.170  0.00  0.00    +0.000 N 
ATOM     24  O   UNL     1      27.313   1.231  54.096  0.00  0.00    +0.000 OA
ATOM     25  C   UNL     1      28.625   1.583  53.862  0.00  0.00    +0.000 A 
ATOM     26  O   UNL     1      29.024   2.720  53.737  0.00  0.00    +0.000 OA
ATOM     27  N   UNL     1      29.356   0.460  53.739  0.00  0.00    +0.000 N 
ATOM     28  C   UNL     1      28.528  -0.608  53.713  0.00  0.00    +0.000 A 
ATOM     29  O   UNL     1      28.831  -1.719  53.311  0.00  0.00    +0.000 OA
ATOM     30  H   UNL     1      30.338   0.423  53.676  0.00  0.00    +0.000 HD
ENDBRANCH  22  23
ENDBRANCH   2  22
TORSDOF 9
ENDMDL
MODEL 2
REMARK VINA RESULT:    -8.043      1.204      2.021
REMARK INTER + INTRA:         -13.977
REMARK INTER:                 -12.836
REMARK INTRA:                  -1.141
REMARK UNBOUND:                -1.702
REMARK  Name = 
REMARK  11 active torsions:
REMARK  status: ('A' for Active; 'I' for Inactive)
REMARK    1  A    between atoms: C_1  and  C_2
REMARK    2  A    between atoms: C_2  and  C_3
REMARK    3  A    between atoms: C_3  and  C_4
REMARK    4  A    between atoms: C_4  and  C_5
REMARK    5  A    between atoms: C_5  and  C_15
REMARK    6  A    between atoms: C_6  and  C_7
REMARK    7  A    between atoms: C_7  and  N_8
REMARK    8  A    between atoms: C_19  and  O_20
REMARK    9  A    between atoms: O_20  and  C_21
REMARK   10  A    between atoms: C_24  and  O_25
REMARK   11  A    between atoms: O_25  and  C_26
REMARK                            x       y       z     vdW  Elec       q    Type
REMARK                         _______ _______ _______ _____ _____    ______ ____
ROOT
ATOM      1  C   UNL     1      24.330   2.071  52.582  0.00  0.00    +0.000 C 
ATOM      2  C   UNL     1      25.636   2.064  52.937  0.00  0.00    +0.000 C 
ENDROOT
BRANCH   1   3
ATOM      3  C   UNL     1      23.968   2.803  51.324  0.00  0.00    +0.000 A 
ATOM      4  C   UNL     1      23.064   2.236  50.412  0.00  0.00    +0.000 A 
ATOM      5  C   UNL     1      22.888   2.768  49.134  0.00  0.00    +0.000 A 
ATOM      6  C   UNL     1      23.578   3.914  48.761  0.00  0.00    +0.000 A 
ATOM      7  C   UNL     1      24.312   4.616  49.715  0.00  0.00    +0.000 A 
ATOM      8  C   UNL     1      24.562   4.035  50.966  0.00  0.00    +0.000 A 
BRANCH   7   9
ATOM      9  O   UNL     1      24.824   5.880  49.481  0.00  0.00    +0.000 OA
BRANCH   9  10
ATOM     10  C   UNL     1      26.118   5.979  48.996  0.00  0.00    +0.000 A 
ATOM     11  C   UNL     1      26.967   4.882  48.806  0.00  0.00    +0.000 A 
ATOM     12  C   UNL     1      28.313   5.070  48.482  0.00  0.00    +0.000 A 
ATOM     13  C   UNL     1      28.802   6.354  48.254  0.00  0.00    +0.000 A 
ATOM     14  C   UNL     1      27.921   7.439  48.323  0.00  0.00    +0.000 A 
ATOM     15  C   UNL     1      26.584   7.258  48.695  0.00  0.00    +0.000 A 
BRANCH  13  16
ATOM     16  O   UNL     1      30.099   6.676  47.965  0.00  0.00    +0.000 OA
ATOM     17  C   UNL     1      31.108   6.019  48.723  0.00  0.00    +0.000 C 
ENDBRANCH  13  16
ENDBRANCH   9  10
ENDBRANCH   7   9
ENDBRANCH   1   3
BRANCH   1  18
ATOM     18  C   UNL     1      23.281   1.193  53.251  0.00  0.00    +0.000 C 
BRANCH  18  19
ATOM     19  C   UNL     1      23.344  -0.318  52.973  0.00  0.00    +0.000 C 
BRANCH  19  21
ATOM     20  C   UNL     1      21.532  -0.406  54.770  0.00  0.00    +0.000 C 
ATOM     21  C   UNL     1      22.296  -1.162  53.695  0.00  0.00    +0.000 C 
ENDBRANCH  19  21
ENDBRANCH  18  19
ENDBRANCH   1  18
BRANCH   2  22
ATOM     22  C   UNL     1      26.327   1.250  53.992  0.00  0.00    +0.000 C 
BRANCH  22  23
ATOM     23  N   UNL     1      27.594   0.817  53.428  0.00  0.00    +0.000 N 
ATOM     24  O   UNL     1      27.880  -0.575  53.590  0.00  0.00    +0.000 OA
ATOM     25  C   UNL     1      29.253  -0.694  53.614  0.00  0.00    +0.000 A 
ATOM     26  O   UNL     1      29.855  -1.736  53.743  0.00  0.00    +0.000 OA
ATOM     27  N   UNL     1      29.792   0.537  53.534  0.00  0.00    +0.000 N 
ATOM     28  C   UNL     1      28.809   1.460  53.633  0.00  0.00    +0.000 A 
ATOM     29  O   UNL     1      28.979   2.637  53.902  0.00  0.00    +0.000 OA
ATOM     30  H   UNL     1      30.750   0.733  53.422  0.00  0.00    +0.000 HD
ENDBRANCH  22  23
ENDBRANCH   2  22
TORSDOF 9
ENDMDL
MODEL 3
REMARK VINA RESULT:    -7.986      1.486      2.605
REMARK INTER + INTRA:         -13.891
REMARK INTER:                 -12.154
REMARK INTRA:                  -1.737
REMARK UNBOUND:                -1.702
REMARK  Name = 
REMARK  11 active torsions:
REMARK  status: ('A' for Active; 'I' for Inactive)
REMARK    1  A    between atoms: C_1  and  C_2
REMARK    2  A    between atoms: C_2  and  C_3
REMARK    3  A    between atoms: C_3  and  C_4
REMARK    4  A    between atoms: C_4  and  C_5
REMARK    5  A    between atoms: C_5  and  C_15
REMARK    6  A    between atoms: C_6  and  C_7
REMARK    7  A    between atoms: C_7  and  N_8
REMARK    8  A    between atoms: C_19  and  O_20
REMARK    9  A    between atoms: O_20  and  C_21
REMARK   10  A    between atoms: C_24  and  O_25
REMARK   11  A    between atoms: O_25  and  C_26
REMARK                            x       y       z     vdW  Elec       q    Type
REMARK                         _______ _______ _______ _____ _____    ______ ____
ROOT
ATOM      1  C   UNL     1      24.771   1.911  53.268  0.00  0.00    +0.000 C 
ATOM      2  C   UNL     1      25.932   1.883  53.963  0.00  0.00    +0.000 C 
ENDROOT
BRANCH   1   3
ATOM      3  C   UNL     1      24.491   3.139  52.453  0.00  0.00    +0.000 A 
ATOM      4  C   UNL     1      23.779   4.211  53.011  0.00  0.00    +0.000 A 
ATOM      5  C   UNL     1      23.297   5.256  52.222  0.00  0.00    +0.000 A 
ATOM      6  C   UNL     1      23.564   5.273  50.859  0.00  0.00    +0.000 A 
ATOM      7  C   UNL     1      24.446   4.339  50.319  0.00  0.00    +0.000 A 
ATOM      8  C   UNL     1      24.855   3.242  51.090  0.00  0.00    +0.000 A 
BRANCH   7   9
ATOM      9  O   UNL     1      24.942   4.439  49.031  0.00  0.00    +0.000 OA
BRANCH   9  10
ATOM     10  C   UNL     1      26.048   5.245  48.821  0.00  0.00    +0.000 A 
ATOM     11  C   UNL     1      25.979   6.625  48.597  0.00  0.00    +0.000 A 
ATOM     12  C   UNL     1      27.115   7.345  48.219  0.00  0.00    +0.000 A 
ATOM     13  C   UNL     1      28.352   6.707  48.150  0.00  0.00    +0.000 A 
ATOM     14  C   UNL     1      28.439   5.355  48.496  0.00  0.00    +0.000 A 
ATOM     15  C   UNL     1      27.295   4.621  48.827  0.00  0.00    +0.000 A 
BRANCH  13  16
ATOM     16  O   UNL     1      29.529   7.286  47.762  0.00  0.00    +0.000 OA
ATOM     17  C   UNL     1      29.974   8.405  48.520  0.00  0.00    +0.000 C 
ENDBRANCH  13  16
ENDBRANCH   9  10
ENDBRANCH   7   9
ENDBRANCH   1   3
BRANCH   1  18
ATOM     18  C   UNL     1      23.876   0.692  53.092  0.00  0.00    +0.000 C 
BRANCH  18  19
ATOM     19  C   UNL     1      22.391   0.945  52.785  0.00  0.00    +0.000 C 
BRANCH  19  21
ATOM     20  C   UNL     1      21.730   1.433  50.367  0.00  0.00    +0.000 C 
ATOM     21  C   UNL     1      21.891   0.384  51.455  0.00  0.00    +0.000 C 
ENDBRANCH  19  21
ENDBRANCH  18  19
ENDBRANCH   1  18
BRANCH   2  22
ATOM     22  C   UNL     1      26.584   0.733  54.673  0.00  0.00    +0.000 C 
BRANCH  22  23
ATOM     23  N   UNL     1      27.699   0.304  53.846  0.00  0.00    +0.000 N 
ATOM     24  O   UNL     1      27.729  -1.096  53.554  0.00  0.00    +0.000 OA
ATOM     25  C   UNL     1      29.053  -1.429  53.364  0.00  0.00    +0.000 A 
ATOM     26  O   UNL     1      29.455  -2.541  53.102  0.00  0.00    +0.000 OA
ATOM     27  N   UNL     1      29.806  -0.335  53.578  0.00  0.00    +0.000 N 
ATOM     28  C   UNL     1      29.026   0.653  54.070  0.00  0.00    +0.000 A 
ATOM     29  O   UNL     1      29.434   1.646  54.647  0.00  0.00    +0.000 OA
ATOM     30  H   UNL     1      30.773  -0.266  53.404  0.00  0.00    +0.000 HD
ENDBRANCH  22  23
ENDBRANCH   2  22
TORSDOF 9
ENDMDL
MODEL 4
REMARK VINA RESULT:    -7.887      2.723      6.433
REMARK INTER + INTRA:         -13.739
REMARK INTER:                 -11.877
REMARK INTRA:                  -1.861
REMARK UNBOUND:                -1.702
REMARK  Name = 
REMARK  11 active torsions:
REMARK  status: ('A' for Active; 'I' for Inactive)
REMARK    1  A    between atoms: C_1  and  C_2
REMARK    2  A    between atoms: C_2  and  C_3
REMARK    3  A    between atoms: C_3  and  C_4
REMARK    4  A    between atoms: C_4  and  C_5
REMARK    5  A    between atoms: C_5  and  C_15
REMARK    6  A    between atoms: C_6  and  C_7
REMARK    7  A    between atoms: C_7  and  N_8
REMARK    8  A    between atoms: C_19  and  O_20
REMARK    9  A    between atoms: O_20  and  C_21
REMARK   10  A    between atoms: C_24  and  O_25
REMARK   11  A    between atoms: O_25  and  C_26
REMARK                            x       y       z     vdW  Elec       q    Type
REMARK                         _______ _______ _______ _____ _____    ______ ____
ROOT
ATOM      1  C   UNL     1      21.493   2.621  51.787  0.00  0.00    +0.000 C 
ATOM      2  C   UNL     1      22.422   3.585  51.979  0.00  0.00    +0.000 C 
ENDROOT
BRANCH   1   3
ATOM      3  C   UNL     1      21.638   1.361  52.588  0.00  0.00    +0.000 A 
ATOM      4  C   UNL     1      20.614   0.954  53.457  0.00  0.00    +0.000 A 
ATOM      5  C   UNL     1      20.810  -0.069  54.386  0.00  0.00    +0.000 A 
ATOM      6  C   UNL     1      22.024  -0.741  54.429  0.00  0.00    +0.000 A 
ATOM      7  C   UNL     1      22.977  -0.503  53.441  0.00  0.00    +0.000 A 
ATOM      8  C   UNL     1      22.818   0.581  52.568  0.00  0.00    +0.000 A 
BRANCH   7   9
ATOM      9  O   UNL     1      24.099  -1.297  53.280  0.00  0.00    +0.000 OA
BRANCH   9  10
ATOM     10  C   UNL     1      25.339  -0.725  53.508  0.00  0.00    +0.000 A 
ATOM     11  C   UNL     1      26.316  -0.556  52.519  0.00  0.00    +0.000 A 
ATOM     12  C   UNL     1      27.605  -0.134  52.853  0.00  0.00    +0.000 A 
ATOM     13  C   UNL     1      27.905   0.214  54.169  0.00  0.00    +0.000 A 
ATOM     14  C   UNL     1      26.892   0.164  55.132  0.00  0.00    +0.000 A 
ATOM     15  C   UNL     1      25.613  -0.306  54.809  0.00  0.00    +0.000 A 
BRANCH  13  16
ATOM     16  O   UNL     1      29.129   0.608  54.633  0.00  0.00    +0.000 OA
ATOM     17  C   UNL     1      29.505   1.958  54.386  0.00  0.00    +0.000 C 
ENDBRANCH  13  16
ENDBRANCH   9  10
ENDBRANCH   7   9
ENDBRANCH   1   3
BRANCH   1  18
ATOM     18  C   UNL     1      20.211   2.845  50.996  0.00  0.00    +0.000 C 
BRANCH  18  19
ATOM     19  C   UNL     1      20.156   2.281  49.567  0.00  0.00    +0.000 C 
BRANCH  19  21
ATOM     20  C   UNL     1      22.253   1.915  48.156  0.00  0.00    +0.000 C 
ATOM     21  C   UNL     1      21.298   1.339  49.189  0.00  0.00    +0.000 C 
ENDBRANCH  19  21
ENDBRANCH  18  19
ENDBRANCH   1  18
BRANCH   2  22
ATOM     22  C   UNL     1      22.422   5.010  51.505  0.00  0.00    +0.000 C 
BRANCH  22  23
ATOM     23  N   UNL     1      23.579   5.166  50.639  0.00  0.00    +0.000 N 
ATOM     24  O   UNL     1      24.367   3.985  50.469  0.00  0.00    +0.000 OA
ATOM     25  C   UNL     1      25.654   4.405  50.212  0.00  0.00    +0.000 A 
ATOM     26  O   UNL     1      26.597   3.670  50.019  0.00  0.00    +0.000 OA
ATOM     27  N   UNL     1      25.687   5.749  50.274  0.00  0.00    +0.000 N 
ATOM     28  C   UNL     1      24.500   6.202  50.734  0.00  0.00    +0.000 A 
ATOM     29  O   UNL     1      24.305   7.315  51.191  0.00  0.00    +0.000 OA
ATOM     30  H   UNL     1      26.455   6.312  50.025  0.00  0.00    +0.000 HD
ENDBRANCH  22  23
ENDBRANCH   2  22
TORSDOF 9
ENDMDL
MODEL 5
REMARK VINA RESULT:    -7.783      3.197      5.908
REMARK INTER + INTRA:         -13.581
REMARK INTER:                 -11.642
REMARK INTRA:                  -1.939
REMARK UNBOUND:                -1.702
REMARK  Name = 
REMARK  11 active torsions:
REMARK  status: ('A' for Active; 'I' for Inactive)
REMARK    1  A    between atoms: C_1  and  C_2
REMARK    2  A    between atoms: C_2  and  C_3
REMARK    3  A    between atoms: C_3  and  C_4
REMARK    4  A    between atoms: C_4  and  C_5
REMARK    5  A    between atoms: C_5  and  C_15
REMARK    6  A    between atoms: C_6  and  C_7
REMARK    7  A    between atoms: C_7  and  N_8
REMARK    8  A    between atoms: C_19  and  O_20
REMARK    9  A    between atoms: O_20  and  C_21
REMARK   10  A    between atoms: C_24  and  O_25
REMARK   11  A    between atoms: O_25  and  C_26
REMARK                            x       y       z     vdW  Elec       q    Type
REMARK                         _______ _______ _______ _____ _____    ______ ____
ROOT
ATOM      1  C   UNL     1      24.149   0.426  52.988  0.00  0.00    +0.000 C 
ATOM      2  C   UNL     1      25.495   0.283  53.000  0.00  0.00    +0.000 C 
ENDROOT
BRANCH   1   3
ATOM      3  C   UNL     1      23.604   1.729  52.483  0.00  0.00    +0.000 A 
ATOM      4  C   UNL     1      24.146   2.943  52.934  0.00  0.00    +0.000 A 
ATOM      5  C   UNL     1      23.516   4.162  52.676  0.00  0.00    +0.000 A 
ATOM      6  C   UNL     1      22.356   4.193  51.914  0.00  0.00    +0.000 A 
ATOM      7  C   UNL     1      21.919   3.033  51.277  0.00  0.00    +0.000 A 
ATOM      8  C   UNL     1      22.495   1.799  51.609  0.00  0.00    +0.000 A 
BRANCH   7   9
ATOM      9  O   UNL     1      20.919   3.038  50.321  0.00  0.00    +0.000 OA
BRANCH   9  10
ATOM     10  C   UNL     1      19.740   2.372  50.608  0.00  0.00    +0.000 A 
ATOM     11  C   UNL     1      19.400   1.121  50.077  0.00  0.00    +0.000 A 
ATOM     12  C   UNL     1      18.123   0.588  50.269  0.00  0.00    +0.000 A 
ATOM     13  C   UNL     1      17.202   1.257  51.072  0.00  0.00    +0.000 A 
ATOM     14  C   UNL     1      17.588   2.445  51.703  0.00  0.00    +0.000 A 
ATOM     15  C   UNL     1      18.849   3.006  51.472  0.00  0.00    +0.000 A 
BRANCH  13  16
ATOM     16  O   UNL     1      15.916   0.863  51.312  0.00  0.00    +0.000 OA
ATOM     17  C   UNL     1      15.707  -0.006  52.421  0.00  0.00    +0.000 C 
ENDBRANCH  13  16
ENDBRANCH   9  10
ENDBRANCH   7   9
ENDBRANCH   1   3
BRANCH   1  18
ATOM     18  C   UNL     1      23.187  -0.729  53.230  0.00  0.00    +0.000 C 
BRANCH  18  19
ATOM     19  C   UNL     1      22.411  -0.734  54.558  0.00  0.00    +0.000 C 
BRANCH  19  21
ATOM     20  C   UNL     1      20.109  -0.403  53.504  0.00  0.00    +0.000 C 
ATOM     21  C   UNL     1      21.104   0.057  54.557  0.00  0.00    +0.000 C 
ENDBRANCH  19  21
ENDBRANCH  18  19
ENDBRANCH   1  18
BRANCH   2  22
ATOM     22  C   UNL     1      26.315  -0.954  53.229  0.00  0.00    +0.000 C 
BRANCH  22  23
ATOM     23  N   UNL     1      27.506  -0.542  53.952  0.00  0.00    +0.000 N 
ATOM     24  O   UNL     1      27.629   0.869  54.155  0.00  0.00    +0.000 OA
ATOM     25  C   UNL     1      28.978   1.137  54.236  0.00  0.00    +0.000 A 
ATOM     26  O   UNL     1      29.456   2.238  54.402  0.00  0.00    +0.000 OA
ATOM     27  N   UNL     1      29.657  -0.008  54.040  0.00  0.00    +0.000 N 
ATOM     28  C   UNL     1      28.793  -0.977  53.663  0.00  0.00    +0.000 A 
ATOM     29  O   UNL     1      29.108  -2.023  53.122  0.00  0.00    +0.000 OA
ATOM     30  H   UNL     1      30.628  -0.121  54.153  0.00  0.00    +0.000 HD
ENDBRANCH  22  23
ENDBRANCH   2  22
TORSDOF 9
ENDMDL
MODEL 6
REMARK VINA RESULT:    -7.671      2.867      4.762
REMARK INTER + INTRA:         -13.410
REMARK INTER:                 -11.933
REMARK INTRA:                  -1.477
REMARK UNBOUND:                -1.702
REMARK  Name = 
REMARK  11 active torsions:
REMARK  status: ('A' for Active; 'I' for Inactive)
REMARK    1  A    between atoms: C_1  and  C_2
REMARK    2  A    between atoms: C_2  and  C_3
REMARK    3  A    between atoms: C_3  and  C_4
REMARK    4  A    between atoms: C_4  and  C_5
REMARK    5  A    between atoms: C_5  and  C_15
REMARK    6  A    between atoms: C_6  and  C_7
REMARK    7  A    between atoms: C_7  and  N_8
REMARK    8  A    between atoms: C_19  and  O_20
REMARK    9  A    between atoms: O_20  and  C_21
REMARK   10  A    between atoms: C_24  and  O_25
REMARK   11  A    between atoms: O_25  and  C_26
REMARK                            x       y       z     vdW  Elec       q    Type
REMARK                         _______ _______ _______ _____ _____    ______ ____
ROOT
ATOM      1  C   UNL     1      25.065   1.634  52.163  0.00  0.00    +0.000 C 
ATOM      2  C   UNL     1      24.142   0.795  52.688  0.00  0.00    +0.000 C 
ENDROOT
BRANCH   1   3
ATOM      3  C   UNL     1      24.628   3.040  51.878  0.00  0.00    +0.000 A 
ATOM      4  C   UNL     1      23.853   3.743  52.814  0.00  0.00    +0.000 A 
ATOM      5  C   UNL     1      23.232   4.950  52.488  0.00  0.00    +0.000 A 
ATOM      6  C   UNL     1      23.418   5.504  51.229  0.00  0.00    +0.000 A 
ATOM      7  C   UNL     1      24.350   4.941  50.359  0.00  0.00    +0.000 A 
ATOM      8  C   UNL     1      24.902   3.686  50.650  0.00  0.00    +0.000 A 
BRANCH   7   9
ATOM      9  O   UNL     1      24.760   5.569  49.197  0.00  0.00    +0.000 OA
BRANCH   9  10
ATOM     10  C   UNL     1      25.856   6.412  49.264  0.00  0.00    +0.000 A 
ATOM     11  C   UNL     1      25.900   7.577  50.038  0.00  0.00    +0.000 A 
ATOM     12  C   UNL     1      26.967   8.471  49.925  0.00  0.00    +0.000 A 
ATOM     13  C   UNL     1      28.049   8.163  49.101  0.00  0.00    +0.000 A 
ATOM     14  C   UNL     1      28.060   6.939  48.425  0.00  0.00    +0.000 A 
ATOM     15  C   UNL     1      26.969   6.065  48.499  0.00  0.00    +0.000 A 
BRANCH  13  16
ATOM     16  O   UNL     1      29.135   8.962  48.876  0.00  0.00    +0.000 OA
ATOM     17  C   UNL     1      29.741   8.874  47.591  0.00  0.00    +0.000 C 
ENDBRANCH  13  16
ENDBRANCH   9  10
ENDBRANCH   7   9
ENDBRANCH   1   3
BRANCH   1  18
ATOM     18  C   UNL     1      26.547   1.293  52.076  0.00  0.00    +0.000 C 
BRANCH  18  19
ATOM     19  C   UNL     1      27.453   1.792  53.213  0.00  0.00    +0.000 C 
BRANCH  19  21
ATOM     20  C   UNL     1      28.313  -0.593  53.518  0.00  0.00    +0.000 C 
ATOM     21  C   UNL     1      27.935   0.719  54.187  0.00  0.00    +0.000 C 
ENDBRANCH  19  21
ENDBRANCH  18  19
ENDBRANCH   1  18
BRANCH   2  22
ATOM     22  C   UNL     1      24.331  -0.573  53.277  0.00  0.00    +0.000 C 
BRANCH  22  23
ATOM     23  N   UNL     1      23.007  -1.084  53.587  0.00  0.00    +0.000 N 
ATOM     24  O   UNL     1      21.939  -0.474  52.857  0.00  0.00    +0.000 OA
ATOM     25  C   UNL     1      20.818  -0.562  53.653  0.00  0.00    +0.000 A 
ATOM     26  O   UNL     1      19.723  -0.141  53.355  0.00  0.00    +0.000 OA
ATOM     27  N   UNL     1      21.165  -1.131  54.822  0.00  0.00    +0.000 N 
ATOM     28  C   UNL     1      22.510  -1.256  54.874  0.00  0.00    +0.000 A 
ATOM     29  O   UNL     1      23.158  -1.441  55.890  0.00  0.00    +0.000 OA
ATOM     30  H   UNL     1      20.539  -1.411  55.528  0.00  0.00    +0.000 HD
ENDBRANCH  22  23
ENDBRANCH   2  22
TORSDOF 9
ENDMDL
MODEL 7
REMARK VINA RESULT:    -7.668      2.915      6.730
REMARK INTER + INTRA:         -13.404
REMARK INTER:                 -11.638
REMARK INTRA:                  -1.767
REMARK UNBOUND:                -1.702
REMARK  Name = 
REMARK  11 active torsions:
REMARK  status: ('A' for Active; 'I' for Inactive)
REMARK    1  A    between atoms: C_1  and  C_2
REMARK    2  A    between atoms: C_2  and  C_3
REMARK    3  A    between atoms: C_3  and  C_4
REMARK    4  A    between atoms: C_4  and  C_5
REMARK    5  A    between atoms: C_5  and  C_15
REMARK    6  A    between atoms: C_6  and  C_7
REMARK    7  A    between atoms: C_7  and  N_8
REMARK    8  A    between atoms: C_19  and  O_20
REMARK    9  A    between atoms: O_20  and  C_21
REMARK   10  A    between atoms: C_24  and  O_25
REMARK   11  A    between atoms: O_25  and  C_26
REMARK                            x       y       z     vdW  Elec       q    Type
REMARK                         _______ _______ _______ _____ _____    ______ ____
ROOT
ATOM      1  C   UNL     1      25.666   0.244  52.634  0.00  0.00    +0.000 C 
ATOM      2  C   UNL     1      25.670   1.529  52.209  0.00  0.00    +0.000 C 
ENDROOT
BRANCH   1   3
ATOM      3  C   UNL     1      24.506  -0.195  53.477  0.00  0.00    +0.000 A 
ATOM      4  C   UNL     1      24.715  -0.638  54.792  0.00  0.00    +0.000 A 
ATOM      5  C   UNL     1      23.705  -1.273  55.517  0.00  0.00    +0.000 A 
ATOM      6  C   UNL     1      22.445  -1.429  54.955  0.00  0.00    +0.000 A 
ATOM      7  C   UNL     1      22.150  -0.810  53.742  0.00  0.00    +0.000 A 
ATOM      8  C   UNL     1      23.184  -0.254  52.976  0.00  0.00    +0.000 A 
BRANCH   7   9
ATOM      9  O   UNL     1      20.863  -0.722  53.243  0.00  0.00    +0.000 OA
BRANCH   9  10
ATOM     10  C   UNL     1      20.525   0.404  52.512  0.00  0.00    +0.000 A 
ATOM     11  C   UNL     1      20.225   0.388  51.144  0.00  0.00    +0.000 A 
ATOM     12  C   UNL     1      20.064   1.579  50.434  0.00  0.00    +0.000 A 
ATOM     13  C   UNL     1      20.110   2.801  51.103  0.00  0.00    +0.000 A 
ATOM     14  C   UNL     1      20.284   2.808  52.491  0.00  0.00    +0.000 A 
ATOM     15  C   UNL     1      20.495   1.618  53.197  0.00  0.00    +0.000 A 
BRANCH  13  16
ATOM     16  O   UNL     1      20.002   4.034  50.524  0.00  0.00    +0.000 OA
ATOM     17  C   UNL     1      19.181   4.130  49.365  0.00  0.00    +0.000 C 
ENDBRANCH  13  16
ENDBRANCH   9  10
ENDBRANCH   7   9
ENDBRANCH   1   3
BRANCH   1  18
ATOM     18  C   UNL     1      26.634  -0.809  52.111  0.00  0.00    +0.000 C 
BRANCH  18  19
ATOM     19  C   UNL     1      27.777  -1.241  53.043  0.00  0.00    +0.000 C 
BRANCH  19  21
ATOM     20  C   UNL     1      28.575   0.316  54.903  0.00  0.00    +0.000 C 
ATOM     21  C   UNL     1      28.740  -0.131  53.459  0.00  0.00    +0.000 C 
ENDBRANCH  19  21
ENDBRANCH  18  19
ENDBRANCH   1  18
BRANCH   2  22
ATOM     22  C   UNL     1      26.554   2.188  51.191  0.00  0.00    +0.000 C 
BRANCH  22  23
ATOM     23  N   UNL     1      25.837   3.353  50.701  0.00  0.00    +0.000 N 
ATOM     24  O   UNL     1      24.424   3.179  50.568  0.00  0.00    +0.000 OA
ATOM     25  C   UNL     1      24.016   4.031  49.564  0.00  0.00    +0.000 A 
ATOM     26  O   UNL     1      22.875   4.146  49.176  0.00  0.00    +0.000 OA
ATOM     27  N   UNL     1      25.099   4.652  49.062  0.00  0.00    +0.000 N 
ATOM     28  C   UNL     1      26.213   4.101  49.592  0.00  0.00    +0.000 A 
ATOM     29  O   UNL     1      27.337   4.215  49.132  0.00  0.00    +0.000 OA
ATOM     30  H   UNL     1      25.081   5.391  48.412  0.00  0.00    +0.000 HD
ENDBRANCH  22  23
ENDBRANCH   2  22
TORSDOF 9
ENDMDL
MODEL 8
REMARK VINA RESULT:    -7.615      2.502      6.300
REMARK INTER + INTRA:         -13.324
REMARK INTER:                 -11.716
REMARK INTRA:                  -1.608
REMARK UNBOUND:                -1.702
REMARK  Name = 
REMARK  11 active torsions:
REMARK  status: ('A' for Active; 'I' for Inactive)
REMARK    1  A    between atoms: C_1  and  C_2
REMARK    2  A    between atoms: C_2  and  C_3
REMARK    3  A    between atoms: C_3  and  C_4
REMARK    4  A    between atoms: C_4  and  C_5
REMARK    5  A    between atoms: C_5  and  C_15
REMARK    6  A    between atoms: C_6  and  C_7
REMARK    7  A    between atoms: C_7  and  N_8
REMARK    8  A    between atoms: C_19  and  O_20
REMARK    9  A    between atoms: O_20  and  C_21
REMARK   10  A    between atoms: C_24  and  O_25
REMARK   11  A    between atoms: O_25  and  C_26
REMARK                            x       y       z     vdW  Elec       q    Type
REMARK                         _______ _______ _______ _____ _____    ______ ____
ROOT
ATOM      1  C   UNL     1      22.438   2.682  51.457  0.00  0.00    +0.000 C 
ATOM      2  C   UNL     1      22.797   2.365  50.191  0.00  0.00    +0.000 C 
ENDROOT
BRANCH   1   3
ATOM      3  C   UNL     1      22.172   1.544  52.397  0.00  0.00    +0.000 A 
ATOM      4  C   UNL     1      20.880   1.331  52.902  0.00  0.00    +0.000 A 
ATOM      5  C   UNL     1      20.644   0.443  53.952  0.00  0.00    +0.000 A 
ATOM      6  C   UNL     1      21.695  -0.292  54.484  0.00  0.00    +0.000 A 
ATOM      7  C   UNL     1      22.942  -0.260  53.862  0.00  0.00    +0.000 A 
ATOM      8  C   UNL     1      23.200   0.696  52.871  0.00  0.00    +0.000 A 
BRANCH   7   9
ATOM      9  O   UNL     1      23.960  -1.139  54.187  0.00  0.00    +0.000 OA
BRANCH   9  10
ATOM     10  C   UNL     1      25.267  -0.716  54.006  0.00  0.00    +0.000 A 
ATOM     11  C   UNL     1      26.051  -1.054  52.896  0.00  0.00    +0.000 A 
ATOM     12  C   UNL     1      27.412  -0.741  52.861  0.00  0.00    +0.000 A 
ATOM     13  C   UNL     1      27.983  -0.003  53.896  0.00  0.00    +0.000 A 
ATOM     14  C   UNL     1      27.169   0.441  54.943  0.00  0.00    +0.000 A 
ATOM     15  C   UNL     1      25.817   0.086  55.005  0.00  0.00    +0.000 A 
BRANCH  13  16
ATOM     16  O   UNL     1      29.302   0.339  53.999  0.00  0.00    +0.000 OA
ATOM     17  C   UNL     1      30.255  -0.657  53.643  0.00  0.00    +0.000 C 
ENDBRANCH  13  16
ENDBRANCH   9  10
ENDBRANCH   7   9
ENDBRANCH   1   3
BRANCH   1  18
ATOM     18  C   UNL     1      22.522   4.095  52.018  0.00  0.00    +0.000 C 
BRANCH  18  19
ATOM     19  C   UNL     1      21.427   5.088  51.596  0.00  0.00    +0.000 C 
BRANCH  19  21
ATOM     20  C   UNL     1      21.632   6.590  49.541  0.00  0.00    +0.000 C 
ATOM     21  C   UNL     1      21.926   6.412  51.022  0.00  0.00    +0.000 C 
ENDBRANCH  19  21
ENDBRANCH  18  19
ENDBRANCH   1  18
BRANCH   2  22
ATOM     22  C   UNL     1      23.334   3.255  49.108  0.00  0.00    +0.000 C 
BRANCH  22  23
ATOM     23  N   UNL     1      24.766   3.370  49.327  0.00  0.00    +0.000 N 
ATOM     24  O   UNL     1      25.305   2.450  50.280  0.00  0.00    +0.000 OA
ATOM     25  C   UNL     1      26.412   3.058  50.830  0.00  0.00    +0.000 A 
ATOM     26  O   UNL     1      27.119   2.567  51.683  0.00  0.00    +0.000 OA
ATOM     27  N   UNL     1      26.529   4.292  50.308  0.00  0.00    +0.000 N 
ATOM     28  C   UNL     1      25.433   4.566  49.566  0.00  0.00    +0.000 A 
ATOM     29  O   UNL     1      25.084   5.681  49.217  0.00  0.00    +0.000 OA
ATOM     30  H   UNL     1      27.291   4.900  50.445  0.00  0.00    +0.000 HD
ENDBRANCH  22  23
ENDBRANCH   2  22
TORSDOF 9
ENDMDL
MODEL 9
REMARK VINA RESULT:    -7.326      1.943      3.073
REMARK INTER + INTRA:         -12.883
REMARK INTER:                 -11.477
REMARK INTRA:                  -1.407
REMARK UNBOUND:                -1.702
REMARK  Name = 
REMARK  11 active torsions:
REMARK  status: ('A' for Active; 'I' for Inactive)
REMARK    1  A    between atoms: C_1  and  C_2
REMARK    2  A    between atoms: C_2  and  C_3
REMARK    3  A    between atoms: C_3  and  C_4
REMARK    4  A    between atoms: C_4  and  C_5
REMARK    5  A    between atoms: C_5  and  C_15
REMARK    6  A    between atoms: C_6  and  C_7
REMARK    7  A    between atoms: C_7  and  N_8
REMARK    8  A    between atoms: C_19  and  O_20
REMARK    9  A    between atoms: O_20  and  C_21
REMARK   10  A    between atoms: C_24  and  O_25
REMARK   11  A    between atoms: O_25  and  C_26
REMARK                            x       y       z     vdW  Elec       q    Type
REMARK                         _______ _______ _______ _____ _____    ______ ____
ROOT
ATOM      1  C   UNL     1      24.311   2.167  51.767  0.00  0.00    +0.000 C 
ATOM      2  C   UNL     1      25.110   1.320  52.456  0.00  0.00    +0.000 C 
ENDROOT
BRANCH   1   3
ATOM      3  C   UNL     1      24.968   3.053  50.750  0.00  0.00    +0.000 A 
ATOM      4  C   UNL     1      26.144   2.638  50.106  0.00  0.00    +0.000 A 
ATOM      5  C   UNL     1      26.907   3.521  49.342  0.00  0.00    +0.000 A 
ATOM      6  C   UNL     1      26.479   4.830  49.164  0.00  0.00    +0.000 A 
ATOM      7  C   UNL     1      25.214   5.207  49.611  0.00  0.00    +0.000 A 
ATOM      8  C   UNL     1      24.490   4.351  50.453  0.00  0.00    +0.000 A 
BRANCH   7   9
ATOM      9  O   UNL     1      24.628   6.411  49.264  0.00  0.00    +0.000 OA
BRANCH   9  10
ATOM     10  C   UNL     1      25.450   7.514  49.108  0.00  0.00    +0.000 A 
ATOM     11  C   UNL     1      25.761   8.089  47.870  0.00  0.00    +0.000 A 
ATOM     12  C   UNL     1      26.732   9.088  47.770  0.00  0.00    +0.000 A 
ATOM     13  C   UNL     1      27.339   9.587  48.921  0.00  0.00    +0.000 A 
ATOM     14  C   UNL     1      26.936   9.097  50.168  0.00  0.00    +0.000 A 
ATOM     15  C   UNL     1      25.999   8.063  50.267  0.00  0.00    +0.000 A 
BRANCH  13  16
ATOM     16  O   UNL     1      28.323  10.535  48.959  0.00  0.00    +0.000 OA
ATOM     17  C   UNL     1      29.279  10.510  47.904  0.00  0.00    +0.000 C 
ENDBRANCH  13  16
ENDBRANCH   9  10
ENDBRANCH   7   9
ENDBRANCH   1   3
BRANCH   1  18
ATOM     18  C   UNL     1      22.790   2.095  51.806  0.00  0.00    +0.000 C 
BRANCH  18  19
ATOM     19  C   UNL     1      22.089   1.372  50.644  0.00  0.00    +0.000 C 
BRANCH  19  21
ATOM     20  C   UNL     1      21.059  -0.014  52.525  0.00  0.00    +0.000 C 
ATOM     21  C   UNL     1      21.025   0.354  51.051  0.00  0.00    +0.000 C 
ENDBRANCH  19  21
ENDBRANCH  18  19
ENDBRANCH   1  18
BRANCH   2  22
ATOM     22  C   UNL     1      24.731   0.180  53.356  0.00  0.00    +0.000 C 
BRANCH  22  23
ATOM     23  N   UNL     1      25.966  -0.357  53.900  0.00  0.00    +0.000 N 
ATOM     24  O   UNL     1      26.795   0.598  54.567  0.00  0.00    +0.000 OA
ATOM     25  C   UNL     1      28.092   0.147  54.443  0.00  0.00    +0.000 A 
ATOM     26  O   UNL     1      29.066   0.713  54.888  0.00  0.00    +0.000 OA
ATOM     27  N   UNL     1      28.087  -0.976  53.703  0.00  0.00    +0.000 N 
ATOM     28  C   UNL     1      26.848  -1.171  53.199  0.00  0.00    +0.000 A 
ATOM     29  O   UNL     1      26.581  -1.903  52.261  0.00  0.00    +0.000 OA
ATOM     30  H   UNL     1      28.863  -1.562  53.552  0.00  0.00    +0.000 HD
ENDBRANCH  22  23
ENDBRANCH   2  22
TORSDOF 9
ENDMDL
