MODEL 1
REMARK VINA RESULT:    -9.024      0.000      0.000
REMARK INTER + INTRA:         -12.699
REMARK INTER:                 -11.661
REMARK INTRA:                  -1.038
REMARK UNBOUND:                -1.038
REMARK  Name = 
REMARK  8 active torsions:
REMARK  status: ('A' for Active; 'I' for Inactive)
REMARK    1  A    between atoms: C_1  and  C_2
REMARK    2  A    between atoms: C_2  and  C_3
REMARK    3  A    between atoms: C_6  and  C_7
REMARK    4  A    between atoms: C_9  and  C_10
REMARK    5  A    between atoms: N_13  and  C_14
REMARK    6  A    between atoms: C_14  and  C_15
REMARK    7  A    between atoms: C_18  and  C_19
REMARK    8  A    between atoms: C_24  and  C_25
REMARK                            x       y       z     vdW  Elec       q    Type
REMARK                         _______ _______ _______ _____ _____    ______ ____
ROOT
ATOM      1  C   UNL     1      23.931   2.997  49.979  0.00  0.00    +0.000 A 
ATOM      2  C   UNL     1      24.761   3.028  51.104  0.00  0.00    +0.000 A 
ATOM      3  C   UNL     1      24.533   2.172  52.190  0.00  0.00    +0.000 A 
ATOM      4  C   UNL     1      23.447   1.277  52.217  0.00  0.00    +0.000 A 
ATOM      5  C   UNL     1      22.568   1.338  51.122  0.00  0.00    +0.000 A 
ATOM      6  C   UNL     1      22.826   2.143  50.002  0.00  0.00    +0.000 A 
ENDROOT
BRANCH   4   7
ATOM      7  C   UNL     1      23.263   0.321  53.350  0.00  0.00    +0.000 A 
ATOM      8  C   UNL     1      21.948   0.073  53.821  0.00  0.00    +0.000 A 
ATOM      9  C   UNL     1      21.676  -0.804  54.879  0.00  0.00    +0.000 A 
ATOM     10  C   UNL     1      22.712  -1.489  55.491  0.00  0.00    +0.000 A 
ATOM     11  C   UNL     1      24.019  -1.280  55.054  0.00  0.00    +0.000 A 
ATOM     12  C   UNL     1      24.316  -0.375  54.012  0.00  0.00    +0.000 A 
BRANCH  12  13
ATOM     13  C   UNL     1      25.729  -0.209  53.679  0.00  0.00    +0.000 C 
ATOM     14  N   UNL     1      26.608   0.558  54.407  0.00  0.00    +0.000 NA
ATOM     15  N   UNL     1      27.768   0.531  53.764  0.00  0.00    +0.000 NA
ATOM     16  N   UNL     1      27.553  -0.274  52.722  0.00  0.00    +0.000 N 
ATOM     17  N   UNL     1      26.317  -0.782  52.611  0.00  0.00    +0.000 NA
ATOM     18  H   UNL     1      28.263  -0.485  52.072  0.00  0.00    +0.000 HD
ENDBRANCH  12  13
ENDBRANCH   4   7
BRANCH   1  19
ATOM     19  C   UNL     1      24.235   3.854  48.775  0.00  0.00    +0.000 C 
BRANCH  19  30
ATOM     20  C   UNL     1      23.610   6.151  49.701  0.00  0.00    +0.000 A 
ATOM     21  N   UNL     1      24.219   7.301  49.936  0.00  0.00    +0.000 NA
ATOM     22  C   UNL     1      25.513   7.137  49.515  0.00  0.00    +0.000 A 
ATOM     23  C   UNL     1      26.600   8.025  49.518  0.00  0.00    +0.000 A 
ATOM     24  C   UNL     1      26.488   9.433  50.010  0.00  0.00    +0.000 C 
ATOM     25  C   UNL     1      27.810   7.514  49.020  0.00  0.00    +0.000 A 
ATOM     26  C   UNL     1      27.890   6.191  48.567  0.00  0.00    +0.000 A 
ATOM     27  C   UNL     1      29.188   5.669  48.021  0.00  0.00    +0.000 C 
ATOM     28  N   UNL     1      26.854   5.316  48.563  0.00  0.00    +0.000 NA
ATOM     29  C   UNL     1      25.709   5.853  49.031  0.00  0.00    +0.000 A 
ATOM     30  N   UNL     1      24.482   5.242  49.128  0.00  0.00    +0.000 N 
BRANCH  20  32
ATOM     31  C   UNL     1      22.017   5.596  51.538  0.00  0.00    +0.000 C 
ATOM     32  C   UNL     1      22.182   5.885  50.053  0.00  0.00    +0.000 C 
ENDBRANCH  20  32
ENDBRANCH  19  30
ENDBRANCH   1  19
TORSDOF 5
ENDMDL
MODEL 2
REMARK VINA RESULT:    -8.862      1.332      2.643
REMARK INTER + INTRA:         -12.490
REMARK INTER:                 -11.088
REMARK INTRA:                  -1.403
REMARK UNBOUND:                -1.038
REMARK  Name = 
REMARK  8 active torsions:
REMARK  status: ('A' for Active; 'I' for Inactive)
REMARK    1  A    between atoms: C_1  and  C_2
REMARK    2  A    between atoms: C_2  and  C_3
REMARK    3  A    between atoms: C_6  and  C_7
REMARK    4  A    between atoms: C_9  and  C_10
REMARK    5  A    between atoms: N_13  and  C_14
REMARK    6  A    between atoms: C_14  and  C_15
REMARK    7  A    between atoms: C_18  and  C_19
REMARK    8  A    between atoms: C_24  and  C_25
REMARK                            x       y       z     vdW  Elec       q    Type
REMARK                         _______ _______ _______ _____ _____    ______ ____
ROOT
ATOM      1  C   UNL     1      23.077   3.382  49.863  0.00  0.00    +0.000 A 
ATOM      2  C   UNL     1      23.195   3.775  51.200  0.00  0.00    +0.000 A 
ATOM      3  C   UNL     1      23.062   2.843  52.237  0.00  0.00    +0.000 A 
ATOM      4  C   UNL     1      22.768   1.490  51.989  0.00  0.00    +0.000 A 
ATOM      5  C   UNL     1      22.551   1.140  50.645  0.00  0.00    +0.000 A 
ATOM      6  C   UNL     1      22.748   2.052  49.596  0.00  0.00    +0.000 A 
ENDROOT
BRANCH   4   7
ATOM      7  C   UNL     1      22.702   0.496  53.103  0.00  0.00    +0.000 A 
ATOM      8  C   UNL     1      21.428   0.069  53.557  0.00  0.00    +0.000 A 
ATOM      9  C   UNL     1      21.266  -0.856  54.596  0.00  0.00    +0.000 A 
ATOM     10  C   UNL     1      22.379  -1.411  55.206  0.00  0.00    +0.000 A 
ATOM     11  C   UNL     1      23.650  -1.024  54.786  0.00  0.00    +0.000 A 
ATOM     12  C   UNL     1      23.833  -0.069  53.762  0.00  0.00    +0.000 A 
BRANCH  12  13
ATOM     13  C   UNL     1      25.214   0.287  53.446  0.00  0.00    +0.000 C 
ATOM     14  N   UNL     1      25.981  -0.358  52.504  0.00  0.00    +0.000 NA
ATOM     15  N   UNL     1      27.190   0.186  52.551  0.00  0.00    +0.000 NA
ATOM     16  N   UNL     1      27.086   1.150  53.468  0.00  0.00    +0.000 N 
ATOM     17  N   UNL     1      25.888   1.282  54.056  0.00  0.00    +0.000 NA
ATOM     18  H   UNL     1      27.846   1.732  53.699  0.00  0.00    +0.000 HD
ENDBRANCH  12  13
ENDBRANCH   4   7
BRANCH   1  19
ATOM     19  C   UNL     1      23.313   4.372  48.747  0.00  0.00    +0.000 C 
BRANCH  19  30
ATOM     20  C   UNL     1      25.752   4.948  49.241  0.00  0.00    +0.000 A 
ATOM     21  N   UNL     1      26.479   6.043  49.393  0.00  0.00    +0.000 NA
ATOM     22  C   UNL     1      25.609   7.094  49.268  0.00  0.00    +0.000 A 
ATOM     23  C   UNL     1      25.826   8.479  49.344  0.00  0.00    +0.000 A 
ATOM     24  C   UNL     1      27.170   9.070  49.626  0.00  0.00    +0.000 C 
ATOM     25  C   UNL     1      24.694   9.287  49.147  0.00  0.00    +0.000 A 
ATOM     26  C   UNL     1      23.445   8.710  48.882  0.00  0.00    +0.000 A 
ATOM     27  C   UNL     1      22.243   9.591  48.692  0.00  0.00    +0.000 C 
ATOM     28  N   UNL     1      23.218   7.376  48.797  0.00  0.00    +0.000 NA
ATOM     29  C   UNL     1      24.325   6.638  49.011  0.00  0.00    +0.000 A 
ATOM     30  N   UNL     1      24.424   5.267  49.024  0.00  0.00    +0.000 N 
BRANCH  20  32
ATOM     31  C   UNL     1      26.614   3.106  50.685  0.00  0.00    +0.000 C 
ATOM     32  C   UNL     1      26.323   3.567  49.264  0.00  0.00    +0.000 C 
ENDBRANCH  20  32
ENDBRANCH  19  30
ENDBRANCH   1  19
TORSDOF 5
ENDMDL
MODEL 3
REMARK VINA RESULT:    -8.596      1.728      3.939
REMARK INTER + INTRA:         -12.147
REMARK INTER:                 -10.936
REMARK INTRA:                  -1.211
REMARK UNBOUND:                -1.038
REMARK  Name = 
REMARK  8 active torsions:
REMARK  status: ('A' for Active; 'I' for Inactive)
REMARK    1  A    between atoms: C_1  and  C_2
REMARK    2  A    between atoms: C_2  and  C_3
REMARK    3  A    between atoms: C_6  and  C_7
REMARK    4  A    between atoms: C_9  and  C_10
REMARK    5  A    between atoms: N_13  and  C_14
REMARK    6  A    between atoms: C_14  and  C_15
REMARK    7  A    between atoms: C_18  and  C_19
REMARK    8  A    between atoms: C_24  and  C_25
REMARK                            x       y       z     vdW  Elec       q    Type
REMARK                         _______ _______ _______ _____ _____    ______ ____
ROOT
ATOM      1  C   UNL     1      23.888   3.799  50.344  0.00  0.00    +0.000 A 
ATOM      2  C   UNL     1      23.392   2.552  49.949  0.00  0.00    +0.000 A 
ATOM      3  C   UNL     1      23.160   1.540  50.890  0.00  0.00    +0.000 A 
ATOM      4  C   UNL     1      23.449   1.713  52.256  0.00  0.00    +0.000 A 
ATOM      5  C   UNL     1      24.044   2.936  52.613  0.00  0.00    +0.000 A 
ATOM      6  C   UNL     1      24.216   3.978  51.689  0.00  0.00    +0.000 A 
ENDROOT
BRANCH   4   7
ATOM      7  C   UNL     1      23.127   0.649  53.255  0.00  0.00    +0.000 A 
ATOM      8  C   UNL     1      21.771   0.448  53.618  0.00  0.00    +0.000 A 
ATOM      9  C   UNL     1      21.371  -0.521  54.546  0.00  0.00    +0.000 A 
ATOM     10  C   UNL     1      22.317  -1.350  55.128  0.00  0.00    +0.000 A 
ATOM     11  C   UNL     1      23.660  -1.192  54.793  0.00  0.00    +0.000 A 
ATOM     12  C   UNL     1      24.085  -0.198  53.885  0.00  0.00    +0.000 A 
BRANCH  12  13
ATOM     13  C   UNL     1      25.524  -0.102  53.653  0.00  0.00    +0.000 C 
ATOM     14  N   UNL     1      26.147  -0.501  52.493  0.00  0.00    +0.000 NA
ATOM     15  N   UNL     1      27.450  -0.336  52.678  0.00  0.00    +0.000 NA
ATOM     16  N   UNL     1      27.549   0.191  53.901  0.00  0.00    +0.000 N 
ATOM     17  N   UNL     1      26.397   0.378  54.560  0.00  0.00    +0.000 NA
ATOM     18  H   UNL     1      28.419   0.430  54.295  0.00  0.00    +0.000 HD
ENDBRANCH  12  13
ENDBRANCH   4   7
BRANCH   1  19
ATOM     19  C   UNL     1      24.047   4.915  49.341  0.00  0.00    +0.000 C 
BRANCH  19  30
ATOM     20  C   UNL     1      23.625   7.279  50.211  0.00  0.00    +0.000 A 
ATOM     21  N   UNL     1      22.602   8.115  50.294  0.00  0.00    +0.000 NA
ATOM     22  C   UNL     1      21.523   7.442  49.783  0.00  0.00    +0.000 A 
ATOM     23  C   UNL     1      20.185   7.837  49.628  0.00  0.00    +0.000 A 
ATOM     24  C   UNL     1      19.684   9.178  50.063  0.00  0.00    +0.000 C 
ATOM     25  C   UNL     1      19.331   6.889  49.041  0.00  0.00    +0.000 A 
ATOM     26  C   UNL     1      19.824   5.641  48.639  0.00  0.00    +0.000 A 
ATOM     27  C   UNL     1      18.890   4.633  48.031  0.00  0.00    +0.000 C 
ATOM     28  N   UNL     1      21.114   5.244  48.774  0.00  0.00    +0.000 NA
ATOM     29  C   UNL     1      21.893   6.176  49.358  0.00  0.00    +0.000 A 
ATOM     30  N   UNL     1      23.229   6.073  49.662  0.00  0.00    +0.000 N 
BRANCH  20  32
ATOM     31  C   UNL     1      25.545   8.830  49.852  0.00  0.00    +0.000 C 
ATOM     32  C   UNL     1      25.016   7.632  50.627  0.00  0.00    +0.000 C 
ENDBRANCH  20  32
ENDBRANCH  19  30
ENDBRANCH   1  19
TORSDOF 5
ENDMDL
MODEL 4
REMARK VINA RESULT:    -8.526      2.707      5.548
REMARK INTER + INTRA:         -12.057
REMARK INTER:                 -11.150
REMARK INTRA:                  -0.907
REMARK UNBOUND:                -1.038
REMARK  Name = 
REMARK  8 active torsions:
REMARK  status: ('A' for Active; 'I' for Inactive)
REMARK    1  A    between atoms: C_1  and  C_2
REMARK    2  A    between atoms: C_2  and  C_3
REMARK    3  A    between atoms: C_6  and  C_7
REMARK    4  A    between atoms: C_9  and  C_10
REMARK    5  A    between atoms: N_13  and  C_14
REMARK    6  A    between atoms: C_14  and  C_15
REMARK    7  A    between atoms: C_18  and  C_19
REMARK    8  A    between atoms: C_24  and  C_25
REMARK                            x       y       z     vdW  Elec       q    Type
REMARK                         _______ _______ _______ _____ _____    ______ ____
ROOT
ATOM      1  C   UNL     1      24.112   2.687  52.256  0.00  0.00    +0.000 A 
ATOM      2  C   UNL     1      23.947   1.716  53.249  0.00  0.00    +0.000 A 
ATOM      3  C   UNL     1      24.867   0.667  53.389  0.00  0.00    +0.000 A 
ATOM      4  C   UNL     1      25.965   0.521  52.523  0.00  0.00    +0.000 A 
ATOM      5  C   UNL     1      26.052   1.449  51.470  0.00  0.00    +0.000 A 
ATOM      6  C   UNL     1      25.175   2.539  51.363  0.00  0.00    +0.000 A 
ENDROOT
BRANCH   4   7
ATOM      7  C   UNL     1      26.975  -0.560  52.733  0.00  0.00    +0.000 A 
ATOM      8  C   UNL     1      26.632  -1.888  52.371  0.00  0.00    +0.000 A 
ATOM      9  C   UNL     1      27.509  -2.968  52.533  0.00  0.00    +0.000 A 
ATOM     10  C   UNL     1      28.781  -2.753  53.039  0.00  0.00    +0.000 A 
ATOM     11  C   UNL     1      29.161  -1.462  53.400  0.00  0.00    +0.000 A 
ATOM     12  C   UNL     1      28.279  -0.367  53.276  0.00  0.00    +0.000 A 
BRANCH  12  13
ATOM     13  C   UNL     1      28.780   0.927  53.733  0.00  0.00    +0.000 C 
ATOM     14  N   UNL     1      28.747   2.077  52.979  0.00  0.00    +0.000 NA
ATOM     15  N   UNL     1      29.354   3.020  53.687  0.00  0.00    +0.000 NA
ATOM     16  N   UNL     1      29.678   2.420  54.834  0.00  0.00    +0.000 N 
ATOM     17  N   UNL     1      29.342   1.126  54.941  0.00  0.00    +0.000 NA
ATOM     18  H   UNL     1      30.137   2.900  55.561  0.00  0.00    +0.000 HD
ENDBRANCH  12  13
ENDBRANCH   4   7
BRANCH   1  19
ATOM     19  C   UNL     1      23.171   3.865  52.170  0.00  0.00    +0.000 C 
BRANCH  19  30
ATOM     20  C   UNL     1      22.717   4.741  49.814  0.00  0.00    +0.000 A 
ATOM     21  N   UNL     1      21.903   4.453  48.811  0.00  0.00    +0.000 NA
ATOM     22  C   UNL     1      21.113   3.423  49.250  0.00  0.00    +0.000 A 
ATOM     23  C   UNL     1      20.077   2.724  48.611  0.00  0.00    +0.000 A 
ATOM     24  C   UNL     1      19.620   3.050  47.224  0.00  0.00    +0.000 C 
ATOM     25  C   UNL     1      19.481   1.695  49.359  0.00  0.00    +0.000 A 
ATOM     26  C   UNL     1      19.928   1.406  50.654  0.00  0.00    +0.000 A 
ATOM     27  C   UNL     1      19.265   0.314  51.445  0.00  0.00    +0.000 C 
ATOM     28  N   UNL     1      20.932   2.065  51.285  0.00  0.00    +0.000 NA
ATOM     29  C   UNL     1      21.462   3.055  50.540  0.00  0.00    +0.000 A 
ATOM     30  N   UNL     1      22.467   3.921  50.900  0.00  0.00    +0.000 N 
BRANCH  20  32
ATOM     31  C   UNL     1      25.003   5.294  48.984  0.00  0.00    +0.000 C 
ATOM     32  C   UNL     1      23.779   5.789  49.740  0.00  0.00    +0.000 C 
ENDBRANCH  20  32
ENDBRANCH  19  30
ENDBRANCH   1  19
TORSDOF 5
ENDMDL
MODEL 5
REMARK VINA RESULT:    -8.516      2.680      4.545
REMARK INTER + INTRA:         -12.043
REMARK INTER:                 -11.572
REMARK INTRA:                  -0.471
REMARK UNBOUND:                -1.038
REMARK  Name = 
REMARK  8 active torsions:
REMARK  status: ('A' for Active; 'I' for Inactive)
REMARK    1  A    between atoms: C_1  and  C_2
REMARK    2  A    between atoms: C_2  and  C_3
REMARK    3  A    between atoms: C_6  and  C_7
REMARK    4  A    between atoms: C_9  and  C_10
REMARK    5  A    between atoms: N_13  and  C_14
REMARK    6  A    between atoms: C_14  and  C_15
REMARK    7  A    between atoms: C_18  and  C_19
REMARK    8  A    between atoms: C_24  and  C_25
REMARK                            x       y       z     vdW  Elec       q    Type
REMARK                         _______ _______ _______ _____ _____    ______ ____
ROOT
ATOM      1  C   UNL     1      23.758   1.919  52.421  0.00  0.00    +0.000 A 
ATOM      2  C   UNL     1      23.665   0.821  53.282  0.00  0.00    +0.000 A 
ATOM      3  C   UNL     1      24.728  -0.084  53.410  0.00  0.00    +0.000 A 
ATOM      4  C   UNL     1      25.910   0.046  52.658  0.00  0.00    +0.000 A 
ATOM      5  C   UNL     1      25.938   1.096  51.725  0.00  0.00    +0.000 A 
ATOM      6  C   UNL     1      24.907   2.044  51.639  0.00  0.00    +0.000 A 
ENDROOT
BRANCH   4   7
ATOM      7  C   UNL     1      27.060  -0.886  52.862  0.00  0.00    +0.000 A 
ATOM      8  C   UNL     1      26.880  -2.261  52.565  0.00  0.00    +0.000 A 
ATOM      9  C   UNL     1      27.897  -3.211  52.726  0.00  0.00    +0.000 A 
ATOM     10  C   UNL     1      29.148  -2.812  53.167  0.00  0.00    +0.000 A 
ATOM     11  C   UNL     1      29.371  -1.469  53.463  0.00  0.00    +0.000 A 
ATOM     12  C   UNL     1      28.348  -0.503  53.338  0.00  0.00    +0.000 A 
BRANCH  12  13
ATOM     13  C   UNL     1      28.693   0.863  53.725  0.00  0.00    +0.000 C 
ATOM     14  N   UNL     1      28.476   1.967  52.934  0.00  0.00    +0.000 NA
ATOM     15  N   UNL     1      28.983   3.009  53.578  0.00  0.00    +0.000 NA
ATOM     16  N   UNL     1      29.432   2.504  54.729  0.00  0.00    +0.000 N 
ATOM     17  N   UNL     1      29.275   1.183  54.897  0.00  0.00    +0.000 NA
ATOM     18  H   UNL     1      29.854   3.070  55.416  0.00  0.00    +0.000 HD
ENDBRANCH  12  13
ENDBRANCH   4   7
BRANCH   1  19
ATOM     19  C   UNL     1      22.648   2.941  52.357  0.00  0.00    +0.000 C 
BRANCH  19  30
ATOM     20  C   UNL     1      21.626   2.576  50.045  0.00  0.00    +0.000 A 
ATOM     21  N   UNL     1      21.457   3.279  48.937  0.00  0.00    +0.000 NA
ATOM     22  C   UNL     1      22.039   4.497  49.169  0.00  0.00    +0.000 A 
ATOM     23  C   UNL     1      22.162   5.628  48.347  0.00  0.00    +0.000 A 
ATOM     24  C   UNL     1      21.644   5.664  46.944  0.00  0.00    +0.000 C 
ATOM     25  C   UNL     1      22.813   6.733  48.919  0.00  0.00    +0.000 A 
ATOM     26  C   UNL     1      23.287   6.676  50.236  0.00  0.00    +0.000 A 
ATOM     27  C   UNL     1      23.997   7.862  50.824  0.00  0.00    +0.000 C 
ATOM     28  N   UNL     1      23.170   5.596  51.048  0.00  0.00    +0.000 NA
ATOM     29  C   UNL     1      22.557   4.554  50.454  0.00  0.00    +0.000 A 
ATOM     30  N   UNL     1      22.313   3.313  50.993  0.00  0.00    +0.000 N 
BRANCH  20  32
ATOM     31  C   UNL     1      19.625   1.097  49.872  0.00  0.00    +0.000 C 
ATOM     32  C   UNL     1      21.101   1.190  50.232  0.00  0.00    +0.000 C 
ENDBRANCH  20  32
ENDBRANCH  19  30
ENDBRANCH   1  19
TORSDOF 5
ENDMDL
MODEL 6
REMARK VINA RESULT:    -8.284      2.225      7.320
REMARK INTER + INTRA:         -11.744
REMARK INTER:                 -10.922
REMARK INTRA:                  -0.822
REMARK UNBOUND:                -1.038
REMARK  Name = 
REMARK  8 active torsions:
REMARK  status: ('A' for Active; 'I' for Inactive)
REMARK    1  A    between atoms: C_1  and  C_2
REMARK    2  A    between atoms: C_2  and  C_3
REMARK    3  A    between atoms: C_6  and  C_7
REMARK    4  A    between atoms: C_9  and  C_10
REMARK    5  A    between atoms: N_13  and  C_14
REMARK    6  A    between atoms: C_14  and  C_15
REMARK    7  A    between atoms: C_18  and  C_19
REMARK    8  A    between atoms: C_24  and  C_25
REMARK                            x       y       z     vdW  Elec       q    Type
REMARK                         _______ _______ _______ _____ _____    ______ ____
ROOT
ATOM      1  C   UNL     1      21.980   2.242  51.097  0.00  0.00    +0.000 A 
ATOM      2  C   UNL     1      21.702   3.216  52.061  0.00  0.00    +0.000 A 
ATOM      3  C   UNL     1      21.484   4.551  51.692  0.00  0.00    +0.000 A 
ATOM      4  C   UNL     1      21.571   4.977  50.355  0.00  0.00    +0.000 A 
ATOM      5  C   UNL     1      21.953   4.001  49.418  0.00  0.00    +0.000 A 
ATOM      6  C   UNL     1      22.108   2.651  49.769  0.00  0.00    +0.000 A 
ENDROOT
BRANCH   4   7
ATOM      7  C   UNL     1      21.263   6.388  49.972  0.00  0.00    +0.000 A 
ATOM      8  C   UNL     1      19.920   6.732  49.673  0.00  0.00    +0.000 A 
ATOM      9  C   UNL     1      19.535   8.027  49.303  0.00  0.00    +0.000 A 
ATOM     10  C   UNL     1      20.480   9.038  49.244  0.00  0.00    +0.000 A 
ATOM     11  C   UNL     1      21.810   8.744  49.537  0.00  0.00    +0.000 A 
ATOM     12  C   UNL     1      22.223   7.438  49.880  0.00  0.00    +0.000 A 
BRANCH  12  13
ATOM     13  C   UNL     1      23.652   7.250  50.119  0.00  0.00    +0.000 C 
ATOM     14  N   UNL     1      24.576   7.020  49.126  0.00  0.00    +0.000 NA
ATOM     15  N   UNL     1      25.744   6.824  49.724  0.00  0.00    +0.000 NA
ATOM     16  N   UNL     1      25.486   6.989  51.023  0.00  0.00    +0.000 N 
ATOM     17  N   UNL     1      24.214   7.268  51.343  0.00  0.00    +0.000 NA
ATOM     18  H   UNL     1      26.190   6.910  51.707  0.00  0.00    +0.000 HD
ENDBRANCH  12  13
ENDBRANCH   4   7
BRANCH   1  19
ATOM     19  C   UNL     1      22.122   0.791  51.490  0.00  0.00    +0.000 C 
BRANCH  19  30
ATOM     20  C   UNL     1      23.333  -0.274  53.470  0.00  0.00    +0.000 A 
ATOM     21  N   UNL     1      24.555  -0.266  53.978  0.00  0.00    +0.000 NA
ATOM     22  C   UNL     1      25.286   0.585  53.192  0.00  0.00    +0.000 A 
ATOM     23  C   UNL     1      26.633   0.976  53.267  0.00  0.00    +0.000 A 
ATOM     24  C   UNL     1      27.554   0.490  54.340  0.00  0.00    +0.000 C 
ATOM     25  C   UNL     1      27.068   1.865  52.270  0.00  0.00    +0.000 A 
ATOM     26  C   UNL     1      26.187   2.304  51.274  0.00  0.00    +0.000 A 
ATOM     27  C   UNL     1      26.667   3.270  50.228  0.00  0.00    +0.000 C 
ATOM     28  N   UNL     1      24.886   1.931  51.181  0.00  0.00    +0.000 NA
ATOM     29  C   UNL     1      24.505   1.094  52.165  0.00  0.00    +0.000 A 
ATOM     30  N   UNL     1      23.255   0.561  52.370  0.00  0.00    +0.000 N 
BRANCH  20  32
ATOM     31  C   UNL     1      21.206  -0.272  54.771  0.00  0.00    +0.000 C 
ATOM     32  C   UNL     1      22.220  -1.112  54.008  0.00  0.00    +0.000 C 
ENDBRANCH  20  32
ENDBRANCH  19  30
ENDBRANCH   1  19
TORSDOF 5
ENDMDL
MODEL 7
REMARK VINA RESULT:    -8.263      2.316      3.519
REMARK INTER + INTRA:         -11.716
REMARK INTER:                 -10.287
REMARK INTRA:                  -1.429
REMARK UNBOUND:                -1.038
REMARK  Name = 
REMARK  8 active torsions:
REMARK  status: ('A' for Active; 'I' for Inactive)
REMARK    1  A    between atoms: C_1  and  C_2
REMARK    2  A    between atoms: C_2  and  C_3
REMARK    3  A    between atoms: C_6  and  C_7
REMARK    4  A    between atoms: C_9  and  C_10
REMARK    5  A    between atoms: N_13  and  C_14
REMARK    6  A    between atoms: C_14  and  C_15
REMARK    7  A    between atoms: C_18  and  C_19
REMARK    8  A    between atoms: C_24  and  C_25
REMARK                            x       y       z     vdW  Elec       q    Type
REMARK                         _______ _______ _______ _____ _____    ______ ____
ROOT
ATOM      1  C   UNL     1      22.286   3.041  49.703  0.00  0.00    +0.000 A 
ATOM      2  C   UNL     1      21.990   1.678  49.596  0.00  0.00    +0.000 A 
ATOM      3  C   UNL     1      22.156   0.818  50.689  0.00  0.00    +0.000 A 
ATOM      4  C   UNL     1      22.660   1.270  51.922  0.00  0.00    +0.000 A 
ATOM      5  C   UNL     1      23.049   2.620  51.974  0.00  0.00    +0.000 A 
ATOM      6  C   UNL     1      22.823   3.502  50.906  0.00  0.00    +0.000 A 
ENDROOT
BRANCH   4   7
ATOM      7  C   UNL     1      22.762   0.354  53.098  0.00  0.00    +0.000 A 
ATOM      8  C   UNL     1      21.565  -0.148  53.672  0.00  0.00    +0.000 A 
ATOM      9  C   UNL     1      21.558  -1.009  54.776  0.00  0.00    +0.000 A 
ATOM     10  C   UNL     1      22.756  -1.425  55.334  0.00  0.00    +0.000 A 
ATOM     11  C   UNL     1      23.955  -0.962  54.796  0.00  0.00    +0.000 A 
ATOM     12  C   UNL     1      23.982  -0.067  53.704  0.00  0.00    +0.000 A 
BRANCH  12  13
ATOM     13  C   UNL     1      25.300   0.382  53.263  0.00  0.00    +0.000 C 
ATOM     14  N   UNL     1      25.894   1.552  53.676  0.00  0.00    +0.000 NA
ATOM     15  N   UNL     1      27.038   1.659  53.012  0.00  0.00    +0.000 NA
ATOM     16  N   UNL     1      27.102   0.546  52.278  0.00  0.00    +0.000 N 
ATOM     17  N   UNL     1      26.068  -0.299  52.391  0.00  0.00    +0.000 NA
ATOM     18  H   UNL     1      27.868   0.356  51.687  0.00  0.00    +0.000 HD
ENDBRANCH  12  13
ENDBRANCH   4   7
BRANCH   1  19
ATOM     19  C   UNL     1      22.018   3.979  48.552  0.00  0.00    +0.000 C 
BRANCH  19  30
ATOM     20  C   UNL     1      19.794   5.005  49.277  0.00  0.00    +0.000 A 
ATOM     21  N   UNL     1      19.340   6.203  49.608  0.00  0.00    +0.000 NA
ATOM     22  C   UNL     1      20.400   7.061  49.467  0.00  0.00    +0.000 A 
ATOM     23  C   UNL     1      20.494   8.446  49.676  0.00  0.00    +0.000 A 
ATOM     24  C   UNL     1      19.327   9.278  50.103  0.00  0.00    +0.000 C 
ATOM     25  C   UNL     1      21.759   9.014  49.451  0.00  0.00    +0.000 A 
ATOM     26  C   UNL     1      22.838   8.214  49.054  0.00  0.00    +0.000 A 
ATOM     27  C   UNL     1      24.178   8.843  48.801  0.00  0.00    +0.000 C 
ATOM     28  N   UNL     1      22.768   6.874  48.855  0.00  0.00    +0.000 NA
ATOM     29  C   UNL     1      21.534   6.374  49.063  0.00  0.00    +0.000 A 
ATOM     30  N   UNL     1      21.129   5.069  48.918  0.00  0.00    +0.000 N 
BRANCH  20  32
ATOM     31  C   UNL     1      18.762   3.288  50.763  0.00  0.00    +0.000 C 
ATOM     32  C   UNL     1      18.965   3.764  49.331  0.00  0.00    +0.000 C 
ENDBRANCH  20  32
ENDBRANCH  19  30
ENDBRANCH   1  19
TORSDOF 5
ENDMDL
MODEL 8
REMARK VINA RESULT:    -8.111      1.563      2.091
REMARK INTER + INTRA:         -11.520
REMARK INTER:                 -10.675
REMARK INTRA:                  -0.845
REMARK UNBOUND:                -1.038
REMARK  Name = 
REMARK  8 active torsions:
REMARK  status: ('A' for Active; 'I' for Inactive)
REMARK    1  A    between atoms: C_1  and  C_2
REMARK    2  A    between atoms: C_2  and  C_3
REMARK    3  A    between atoms: C_6  and  C_7
REMARK    4  A    between atoms: C_9  and  C_10
REMARK    5  A    between atoms: N_13  and  C_14
REMARK    6  A    between atoms: C_14  and  C_15
REMARK    7  A    between atoms: C_18  and  C_19
REMARK    8  A    between atoms: C_24  and  C_25
REMARK                            x       y       z     vdW  Elec       q    Type
REMARK                         _______ _______ _______ _____ _____    ______ ____
ROOT
ATOM      1  C   UNL     1      24.661   3.514  50.213  0.00  0.00    +0.000 A 
ATOM      2  C   UNL     1      24.634   3.813  51.579  0.00  0.00    +0.000 A 
ATOM      3  C   UNL     1      24.033   2.938  52.494  0.00  0.00    +0.000 A 
ATOM      4  C   UNL     1      23.401   1.751  52.084  0.00  0.00    +0.000 A 
ATOM      5  C   UNL     1      23.350   1.524  50.697  0.00  0.00    +0.000 A 
ATOM      6  C   UNL     1      24.006   2.359  49.781  0.00  0.00    +0.000 A 
ENDROOT
BRANCH   4   7
ATOM      7  C   UNL     1      22.831   0.795  53.081  0.00  0.00    +0.000 A 
ATOM      8  C   UNL     1      21.434   0.822  53.324  0.00  0.00    +0.000 A 
ATOM      9  C   UNL     1      20.808  -0.032  54.241  0.00  0.00    +0.000 A 
ATOM     10  C   UNL     1      21.558  -0.969  54.933  0.00  0.00    +0.000 A 
ATOM     11  C   UNL     1      22.933  -1.034  54.719  0.00  0.00    +0.000 A 
ATOM     12  C   UNL     1      23.586  -0.159  53.824  0.00  0.00    +0.000 A 
BRANCH  12  13
ATOM     13  C   UNL     1      25.037  -0.296  53.723  0.00  0.00    +0.000 C 
ATOM     14  N   UNL     1      25.693  -0.753  52.604  0.00  0.00    +0.000 NA
ATOM     15  N   UNL     1      26.982  -0.814  52.910  0.00  0.00    +0.000 NA
ATOM     16  N   UNL     1      27.050  -0.353  54.161  0.00  0.00    +0.000 N 
ATOM     17  N   UNL     1      25.887  -0.000  54.726  0.00  0.00    +0.000 NA
ATOM     18  H   UNL     1      27.907  -0.276  54.641  0.00  0.00    +0.000 HD
ENDBRANCH  12  13
ENDBRANCH   4   7
BRANCH   1  19
ATOM     19  C   UNL     1      25.390   4.413  49.244  0.00  0.00    +0.000 C 
BRANCH  19  30
ATOM     20  C   UNL     1      23.338   5.580  48.269  0.00  0.00    +0.000 A 
ATOM     21  N   UNL     1      22.911   6.823  48.113  0.00  0.00    +0.000 NA
ATOM     22  C   UNL     1      23.905   7.629  48.603  0.00  0.00    +0.000 A 
ATOM     23  C   UNL     1      23.995   9.027  48.687  0.00  0.00    +0.000 A 
ATOM     24  C   UNL     1      22.920   9.936  48.182  0.00  0.00    +0.000 C 
ATOM     25  C   UNL     1      25.169   9.530  49.273  0.00  0.00    +0.000 A 
ATOM     26  C   UNL     1      26.160   8.658  49.741  0.00  0.00    +0.000 A 
ATOM     27  C   UNL     1      27.416   9.216  50.348  0.00  0.00    +0.000 C 
ATOM     28  N   UNL     1      26.087   7.305  49.676  0.00  0.00    +0.000 NA
ATOM     29  C   UNL     1      24.955   6.867  49.090  0.00  0.00    +0.000 A 
ATOM     30  N   UNL     1      24.595   5.563  48.846  0.00  0.00    +0.000 N 
BRANCH  20  32
ATOM     31  C   UNL     1      21.199   4.350  48.630  0.00  0.00    +0.000 C 
ATOM     32  C   UNL     1      22.533   4.377  47.898  0.00  0.00    +0.000 C 
ENDBRANCH  20  32
ENDBRANCH  19  30
ENDBRANCH   1  19
TORSDOF 5
ENDMDL
MODEL 9
REMARK VINA RESULT:    -7.977      4.403      7.194
REMARK INTER + INTRA:         -11.346
REMARK INTER:                 -10.831
REMARK INTRA:                  -0.515
REMARK UNBOUND:                -1.038
REMARK  Name = 
REMARK  8 active torsions:
REMARK  status: ('A' for Active; 'I' for Inactive)
REMARK    1  A    between atoms: C_1  and  C_2
REMARK    2  A    between atoms: C_2  and  C_3
REMARK    3  A    between atoms: C_6  and  C_7
REMARK    4  A    between atoms: C_9  and  C_10
REMARK    5  A    between atoms: N_13  and  C_14
REMARK    6  A    between atoms: C_14  and  C_15
REMARK    7  A    between atoms: C_18  and  C_19
REMARK    8  A    between atoms: C_24  and  C_25
REMARK                            x       y       z     vdW  Elec       q    Type
REMARK                         _______ _______ _______ _____ _____    ______ ____
ROOT
ATOM      1  C   UNL     1      21.594   2.914  51.591  0.00  0.00    +0.000 A 
ATOM      2  C   UNL     1      20.378   3.227  52.207  0.00  0.00    +0.000 A 
ATOM      3  C   UNL     1      19.189   2.599  51.812  0.00  0.00    +0.000 A 
ATOM      4  C   UNL     1      19.155   1.665  50.761  0.00  0.00    +0.000 A 
ATOM      5  C   UNL     1      20.370   1.444  50.089  0.00  0.00    +0.000 A 
ATOM      6  C   UNL     1      21.576   2.017  50.521  0.00  0.00    +0.000 A 
ENDROOT
BRANCH   4   7
ATOM      7  C   UNL     1      17.891   0.952  50.402  0.00  0.00    +0.000 A 
ATOM      8  C   UNL     1      17.149   1.410  49.284  0.00  0.00    +0.000 A 
ATOM      9  C   UNL     1      15.952   0.809  48.872  0.00  0.00    +0.000 A 
ATOM     10  C   UNL     1      15.465  -0.295  49.552  0.00  0.00    +0.000 A 
ATOM     11  C   UNL     1      16.168  -0.781  50.653  0.00  0.00    +0.000 A 
ATOM     12  C   UNL     1      17.358  -0.169  51.103  0.00  0.00    +0.000 A 
BRANCH  12  13
ATOM     13  C   UNL     1      17.974  -0.744  52.296  0.00  0.00    +0.000 C 
ATOM     14  N   UNL     1      19.320  -0.683  52.575  0.00  0.00    +0.000 NA
ATOM     15  N   UNL     1      19.514  -1.374  53.690  0.00  0.00    +0.000 NA
ATOM     16  N   UNL     1      18.293  -1.774  54.052  0.00  0.00    +0.000 N 
ATOM     17  N   UNL     1      17.287  -1.410  53.245  0.00  0.00    +0.000 NA
ATOM     18  H   UNL     1      18.141  -2.305  54.867  0.00  0.00    +0.000 HD
ENDBRANCH  12  13
ENDBRANCH   4   7
BRANCH   1  19
ATOM     19  C   UNL     1      22.885   3.523  52.083  0.00  0.00    +0.000 C 
BRANCH  19  30
ATOM     20  C   UNL     1      25.167   2.830  51.167  0.00  0.00    +0.000 A 
ATOM     21  N   UNL     1      26.005   1.818  51.317  0.00  0.00    +0.000 NA
ATOM     22  C   UNL     1      25.397   0.947  52.182  0.00  0.00    +0.000 A 
ATOM     23  C   UNL     1      25.823  -0.290  52.691  0.00  0.00    +0.000 A 
ATOM     24  C   UNL     1      27.126  -0.914  52.305  0.00  0.00    +0.000 C 
ATOM     25  C   UNL     1      24.943  -0.919  53.587  0.00  0.00    +0.000 A 
ATOM     26  C   UNL     1      23.729  -0.313  53.935  0.00  0.00    +0.000 A 
ATOM     27  C   UNL     1      22.793  -1.011  54.881  0.00  0.00    +0.000 C 
ATOM     28  N   UNL     1      23.304   0.884  53.461  0.00  0.00    +0.000 NA
ATOM     29  C   UNL     1      24.169   1.443  52.591  0.00  0.00    +0.000 A 
ATOM     30  N   UNL     1      24.020   2.631  51.916  0.00  0.00    +0.000 N 
BRANCH  20  32
ATOM     31  C   UNL     1      26.669   3.803  49.431  0.00  0.00    +0.000 C 
ATOM     32  C   UNL     1      25.461   4.031  50.328  0.00  0.00    +0.000 C 
ENDBRANCH  20  32
ENDBRANCH  19  30
ENDBRANCH   1  19
TORSDOF 5
ENDMDL
