MODEL 1
REMARK VINA RESULT:    -7.768      0.000      0.000
REMARK INTER + INTRA:          -9.958
REMARK INTER:                  -9.585
REMARK INTRA:                  -0.373
REMARK UNBOUND:                -0.373
REMARK  Name = 
REMARK  6 active torsions:
REMARK  status: ('A' for Active; 'I' for Inactive)
REMARK    1  A    between atoms: C_1  and  N_2
REMARK    2  A    between atoms: N_2  and  C_3
REMARK    3  A    between atoms: N_2  and  C_4
REMARK    4  A    between atoms: C_9  and  S_10
REMARK    5  A    between atoms: S_10  and  N_13
REMARK    6  A    between atoms: N_13  and  C_14
REMARK                            x       y       z     vdW  Elec       q    Type
REMARK                         _______ _______ _______ _____ _____    ______ ____
ROOT
ATOM      1  C   UNL     1      26.088   0.084  53.284  0.00  0.00    +0.000 A 
ATOM      2  C   UNL     1      26.091   1.014  52.228  0.00  0.00    +0.000 A 
ATOM      3  C   UNL     1      24.937   1.657  51.815  0.00  0.00    +0.000 A 
ATOM      4  C   UNL     1      23.721   1.298  52.372  0.00  0.00    +0.000 A 
ATOM      5  C   UNL     1      23.606   0.276  53.332  0.00  0.00    +0.000 A 
ATOM      6  C   UNL     1      22.355  -0.214  53.806  0.00  0.00    +0.000 A 
ATOM      7  C   UNL     1      22.297  -1.051  54.931  0.00  0.00    +0.000 A 
ATOM      8  C   UNL     1      23.470  -1.436  55.564  0.00  0.00    +0.000 A 
ATOM      9  C   UNL     1      24.702  -1.065  55.026  0.00  0.00    +0.000 A 
ATOM     10  C   UNL     1      24.818  -0.256  53.872  0.00  0.00    +0.000 A 
ENDROOT
BRANCH   1  12
ATOM     11  C   UNL     1      28.317   0.508  54.223  0.00  0.00    +0.000 C 
ATOM     12  N   UNL     1      27.317  -0.459  53.755  0.00  0.00    +0.000 N 
ATOM     13  C   UNL     1      27.878  -1.531  52.921  0.00  0.00    +0.000 C 
ENDBRANCH   1  12
BRANCH   6  14
ATOM     14  S   UNL     1      20.798   0.181  52.999  0.00  0.00    +0.000 S 
ATOM     15  O   UNL     1      20.507   1.574  53.286  0.00  0.00    +0.000 OA
ATOM     16  O   UNL     1      20.794  -0.284  51.637  0.00  0.00    +0.000 OA
BRANCH  14  17
ATOM     17  N   UNL     1      19.611  -0.659  53.878  0.00  0.00    +0.000 N 
ATOM     18  H   UNL     1      19.764  -0.877  54.826  0.00  0.00    +0.000 HD
BRANCH  17  19
ATOM     19  C   UNL     1      18.394  -1.050  53.245  0.00  0.00    +0.000 A 
ATOM     20  C   UNL     1      17.836  -2.289  53.492  0.00  0.00    +0.000 A 
ATOM     21  N   UNL     1      16.671  -2.717  52.956  0.00  0.00    +0.000 NA
ATOM     22  C   UNL     1      16.039  -1.851  52.144  0.00  0.00    +0.000 A 
ATOM     23 BR   UNL     1      14.419  -2.425  51.341  0.00  0.00    +0.000 Br
ATOM     24  N   UNL     1      16.475  -0.609  51.855  0.00  0.00    +0.000 NA
ATOM     25  C   UNL     1      17.648  -0.237  52.415  0.00  0.00    +0.000 A 
ENDBRANCH  17  19
ENDBRANCH  14  17
ENDBRANCH   6  14
TORSDOF 4
ENDMDL
MODEL 2
REMARK VINA RESULT:    -7.712      6.197      8.731
REMARK INTER + INTRA:          -9.889
REMARK INTER:                  -9.487
REMARK INTRA:                  -0.402
REMARK UNBOUND:                -0.373
REMARK  Name = 
REMARK  6 active torsions:
REMARK  status: ('A' for Active; 'I' for Inactive)
REMARK    1  A    between atoms: C_1  and  N_2
REMARK    2  A    between atoms: N_2  and  C_3
REMARK    3  A    between atoms: N_2  and  C_4
REMARK    4  A    between atoms: C_9  and  S_10
REMARK    5  A    between atoms: S_10  and  N_13
REMARK    6  A    between atoms: N_13  and  C_14
REMARK                            x       y       z     vdW  Elec       q    Type
REMARK                         _______ _______ _______ _____ _____    ______ ____
ROOT
ATOM      1  C   UNL     1      26.323   6.481  49.069  0.00  0.00    +0.000 A 
ATOM      2  C   UNL     1      27.280   5.511  48.717  0.00  0.00    +0.000 A 
ATOM      3  C   UNL     1      27.119   4.174  49.037  0.00  0.00    +0.000 A 
ATOM      4  C   UNL     1      26.049   3.787  49.827  0.00  0.00    +0.000 A 
ATOM      5  C   UNL     1      25.122   4.711  50.344  0.00  0.00    +0.000 A 
ATOM      6  C   UNL     1      24.105   4.361  51.278  0.00  0.00    +0.000 A 
ATOM      7  C   UNL     1      23.065   5.256  51.569  0.00  0.00    +0.000 A 
ATOM      8  C   UNL     1      23.046   6.508  50.972  0.00  0.00    +0.000 A 
ATOM      9  C   UNL     1      24.108   6.904  50.158  0.00  0.00    +0.000 A 
ATOM     10  C   UNL     1      25.201   6.056  49.864  0.00  0.00    +0.000 A 
ENDROOT
BRANCH   1  12
ATOM     11  C   UNL     1      26.576   8.002  47.157  0.00  0.00    +0.000 C 
ATOM     12  N   UNL     1      26.471   7.820  48.610  0.00  0.00    +0.000 N 
ATOM     13  C   UNL     1      27.424   8.634  49.377  0.00  0.00    +0.000 C 
ENDBRANCH   1  12
BRANCH   6  14
ATOM     14  S   UNL     1      24.097   2.787  52.146  0.00  0.00    +0.000 S 
ATOM     15  O   UNL     1      22.860   2.718  52.900  0.00  0.00    +0.000 OA
ATOM     16  O   UNL     1      24.455   1.711  51.258  0.00  0.00    +0.000 OA
BRANCH  14  17
ATOM     17  N   UNL     1      25.287   2.932  53.351  0.00  0.00    +0.000 N 
ATOM     18  H   UNL     1      25.257   3.688  53.981  0.00  0.00    +0.000 HD
BRANCH  17  19
ATOM     19  C   UNL     1      26.327   1.962  53.451  0.00  0.00    +0.000 A 
ATOM     20  C   UNL     1      27.585   2.222  52.945  0.00  0.00    +0.000 A 
ATOM     21  N   UNL     1      28.629   1.366  53.031  0.00  0.00    +0.000 NA
ATOM     22  C   UNL     1      28.392   0.205  53.665  0.00  0.00    +0.000 A 
ATOM     23 BR   UNL     1      29.819  -1.041  53.776  0.00  0.00    +0.000 Br
ATOM     24  N   UNL     1      27.215  -0.143  54.222  0.00  0.00    +0.000 NA
ATOM     25  C   UNL     1      26.206   0.749  54.101  0.00  0.00    +0.000 A 
ENDBRANCH  17  19
ENDBRANCH  14  17
ENDBRANCH   6  14
TORSDOF 4
ENDMDL
MODEL 3
REMARK VINA RESULT:    -7.483      3.618      4.225
REMARK INTER + INTRA:          -9.606
REMARK INTER:                  -9.346
REMARK INTRA:                  -0.260
REMARK UNBOUND:                -0.373
REMARK  Name = 
REMARK  6 active torsions:
REMARK  status: ('A' for Active; 'I' for Inactive)
REMARK    1  A    between atoms: C_1  and  N_2
REMARK    2  A    between atoms: N_2  and  C_3
REMARK    3  A    between atoms: N_2  and  C_4
REMARK    4  A    between atoms: C_9  and  S_10
REMARK    5  A    between atoms: S_10  and  N_13
REMARK    6  A    between atoms: N_13  and  C_14
REMARK                            x       y       z     vdW  Elec       q    Type
REMARK                         _______ _______ _______ _____ _____    ______ ____
ROOT
ATOM      1  C   UNL     1      25.453   0.031  53.193  0.00  0.00    +0.000 A 
ATOM      2  C   UNL     1      25.671   0.981  52.178  0.00  0.00    +0.000 A 
ATOM      3  C   UNL     1      24.650   1.780  51.691  0.00  0.00    +0.000 A 
ATOM      4  C   UNL     1      23.352   1.566  52.124  0.00  0.00    +0.000 A 
ATOM      5  C   UNL     1      23.021   0.541  53.030  0.00  0.00    +0.000 A 
ATOM      6  C   UNL     1      21.680   0.204  53.374  0.00  0.00    +0.000 A 
ATOM      7  C   UNL     1      21.414  -0.648  54.456  0.00  0.00    +0.000 A 
ATOM      8  C   UNL     1      22.465  -1.199  55.174  0.00  0.00    +0.000 A 
ATOM      9  C   UNL     1      23.779  -0.976  54.761  0.00  0.00    +0.000 A 
ATOM     10  C   UNL     1      24.102  -0.158  53.654  0.00  0.00    +0.000 A 
ENDROOT
BRANCH   1  12
ATOM     11  C   UNL     1      27.503   0.112  54.542  0.00  0.00    +0.000 C 
ATOM     12  N   UNL     1      26.555  -0.678  53.748  0.00  0.00    +0.000 N 
ATOM     13  C   UNL     1      27.201  -1.629  52.833  0.00  0.00    +0.000 C 
ENDBRANCH   1  12
BRANCH   6  14
ATOM     14  S   UNL     1      20.266   0.819  52.450  0.00  0.00    +0.000 S 
ATOM     15  O   UNL     1      20.662   0.889  51.055  0.00  0.00    +0.000 OA
ATOM     16  O   UNL     1      19.067   0.113  52.819  0.00  0.00    +0.000 OA
BRANCH  14  17
ATOM     17  N   UNL     1      20.112   2.451  52.899  0.00  0.00    +0.000 N 
ATOM     18  H   UNL     1      20.141   2.702  53.851  0.00  0.00    +0.000 HD
BRANCH  17  19
ATOM     19  C   UNL     1      19.940   3.455  51.902  0.00  0.00    +0.000 A 
ATOM     20  C   UNL     1      18.712   3.650  51.300  0.00  0.00    +0.000 A 
ATOM     21  N   UNL     1      18.464   4.602  50.373  0.00  0.00    +0.000 NA
ATOM     22  C   UNL     1      19.499   5.395  50.047  0.00  0.00    +0.000 A 
ATOM     23 BR   UNL     1      19.205   6.721  48.722  0.00  0.00    +0.000 Br
ATOM     24  N   UNL     1      20.731   5.316  50.589  0.00  0.00    +0.000 NA
ATOM     25  C   UNL     1      20.922   4.343  51.507  0.00  0.00    +0.000 A 
ENDBRANCH  17  19
ENDBRANCH  14  17
ENDBRANCH   6  14
TORSDOF 4
ENDMDL
MODEL 4
REMARK VINA RESULT:    -7.298      3.888      4.627
REMARK INTER + INTRA:          -9.377
REMARK INTER:                  -9.377
REMARK INTRA:                  -0.001
REMARK UNBOUND:                -0.373
REMARK  Name = 
REMARK  6 active torsions:
REMARK  status: ('A' for Active; 'I' for Inactive)
REMARK    1  A    between atoms: C_1  and  N_2
REMARK    2  A    between atoms: N_2  and  C_3
REMARK    3  A    between atoms: N_2  and  C_4
REMARK    4  A    between atoms: C_9  and  S_10
REMARK    5  A    between atoms: S_10  and  N_13
REMARK    6  A    between atoms: N_13  and  C_14
REMARK                            x       y       z     vdW  Elec       q    Type
REMARK                         _______ _______ _______ _____ _____    ______ ____
ROOT
ATOM      1  C   UNL     1      25.164   0.053  53.118  0.00  0.00    +0.000 A 
ATOM      2  C   UNL     1      25.477   1.012  52.137  0.00  0.00    +0.000 A 
ATOM      3  C   UNL     1      24.508   1.821  51.569  0.00  0.00    +0.000 A 
ATOM      4  C   UNL     1      23.175   1.610  51.881  0.00  0.00    +0.000 A 
ATOM      5  C   UNL     1      22.759   0.578  52.743  0.00  0.00    +0.000 A 
ATOM      6  C   UNL     1      21.391   0.245  52.960  0.00  0.00    +0.000 A 
ATOM      7  C   UNL     1      21.025  -0.617  54.005  0.00  0.00    +0.000 A 
ATOM      8  C   UNL     1      22.004  -1.180  54.809  0.00  0.00    +0.000 A 
ATOM      9  C   UNL     1      23.351  -0.961  54.518  0.00  0.00    +0.000 A 
ATOM     10  C   UNL     1      23.776  -0.133  53.454  0.00  0.00    +0.000 A 
ENDROOT
BRANCH   1  12
ATOM     11  C   UNL     1      26.996   0.076  54.753  0.00  0.00    +0.000 C 
ATOM     12  N   UNL     1      26.208  -0.668  53.763  0.00  0.00    +0.000 N 
ATOM     13  C   UNL     1      27.021  -1.506  52.871  0.00  0.00    +0.000 C 
ENDBRANCH   1  12
BRANCH   6  14
ATOM     14  S   UNL     1      20.069   0.877  51.919  0.00  0.00    +0.000 S 
ATOM     15  O   UNL     1      20.652   1.190  50.627  0.00  0.00    +0.000 OA
ATOM     16  O   UNL     1      18.908   0.029  51.994  0.00  0.00    +0.000 OA
BRANCH  14  17
ATOM     17  N   UNL     1      19.685   2.404  52.559  0.00  0.00    +0.000 N 
ATOM     18  H   UNL     1      19.257   2.471  53.444  0.00  0.00    +0.000 HD
BRANCH  17  19
ATOM     19  C   UNL     1      19.979   3.585  51.818  0.00  0.00    +0.000 A 
ATOM     20  C   UNL     1      21.146   4.289  52.044  0.00  0.00    +0.000 A 
ATOM     21  N   UNL     1      21.508   5.397  51.360  0.00  0.00    +0.000 NA
ATOM     22  C   UNL     1      20.660   5.805  50.400  0.00  0.00    +0.000 A 
ATOM     23 BR   UNL     1      21.112   7.378  49.440  0.00  0.00    +0.000 Br
ATOM     24  N   UNL     1      19.510   5.182  50.073  0.00  0.00    +0.000 NA
ATOM     25  C   UNL     1      19.196   4.082  50.794  0.00  0.00    +0.000 A 
ENDBRANCH  17  19
ENDBRANCH  14  17
ENDBRANCH   6  14
TORSDOF 4
ENDMDL
MODEL 5
REMARK VINA RESULT:    -7.213      6.230      9.051
REMARK INTER + INTRA:          -9.272
REMARK INTER:                  -9.339
REMARK INTRA:                   0.067
REMARK UNBOUND:                -0.373
REMARK  Name = 
REMARK  6 active torsions:
REMARK  status: ('A' for Active; 'I' for Inactive)
REMARK    1  A    between atoms: C_1  and  N_2
REMARK    2  A    between atoms: N_2  and  C_3
REMARK    3  A    between atoms: N_2  and  C_4
REMARK    4  A    between atoms: C_9  and  S_10
REMARK    5  A    between atoms: S_10  and  N_13
REMARK    6  A    between atoms: N_13  and  C_14
REMARK                            x       y       z     vdW  Elec       q    Type
REMARK                         _______ _______ _______ _____ _____    ______ ____
ROOT
ATOM      1  C   UNL     1      25.346   7.540  49.094  0.00  0.00    +0.000 A 
ATOM      2  C   UNL     1      24.372   8.151  49.906  0.00  0.00    +0.000 A 
ATOM      3  C   UNL     1      23.845   7.518  51.018  0.00  0.00    +0.000 A 
ATOM      4  C   UNL     1      24.191   6.203  51.282  0.00  0.00    +0.000 A 
ATOM      5  C   UNL     1      25.047   5.467  50.441  0.00  0.00    +0.000 A 
ATOM      6  C   UNL     1      25.298   4.075  50.605  0.00  0.00    +0.000 A 
ATOM      7  C   UNL     1      26.339   3.450  49.902  0.00  0.00    +0.000 A 
ATOM      8  C   UNL     1      27.106   4.184  49.010  0.00  0.00    +0.000 A 
ATOM      9  C   UNL     1      26.781   5.515  48.748  0.00  0.00    +0.000 A 
ATOM     10  C   UNL     1      25.718   6.183  49.400  0.00  0.00    +0.000 A 
ENDROOT
BRANCH   1  12
ATOM     11  C   UNL     1      26.874   9.345  48.431  0.00  0.00    +0.000 C 
ATOM     12  N   UNL     1      25.950   8.276  48.035  0.00  0.00    +0.000 N 
ATOM     13  C   UNL     1      25.036   8.659  46.950  0.00  0.00    +0.000 C 
ENDBRANCH   1  12
BRANCH   6  14
ATOM     14  S   UNL     1      24.305   3.039  51.689  0.00  0.00    +0.000 S 
ATOM     15  O   UNL     1      23.132   3.808  52.060  0.00  0.00    +0.000 OA
ATOM     16  O   UNL     1      24.149   1.720  51.134  0.00  0.00    +0.000 OA
BRANCH  14  17
ATOM     17  N   UNL     1      25.184   2.934  53.139  0.00  0.00    +0.000 N 
ATOM     18  H   UNL     1      24.978   3.545  53.883  0.00  0.00    +0.000 HD
BRANCH  17  19
ATOM     19  C   UNL     1      26.219   1.963  53.280  0.00  0.00    +0.000 A 
ATOM     20  C   UNL     1      27.529   2.279  52.976  0.00  0.00    +0.000 A 
ATOM     21  N   UNL     1      28.567   1.423  53.115  0.00  0.00    +0.000 NA
ATOM     22  C   UNL     1      28.268   0.202  53.591  0.00  0.00    +0.000 A 
ATOM     23 BR   UNL     1      29.690  -1.042  53.767  0.00  0.00    +0.000 Br
ATOM     24  N   UNL     1      27.034  -0.205  53.947  0.00  0.00    +0.000 NA
ATOM     25  C   UNL     1      26.034   0.690  53.782  0.00  0.00    +0.000 A 
ENDBRANCH  17  19
ENDBRANCH  14  17
ENDBRANCH   6  14
TORSDOF 4
ENDMDL
MODEL 6
REMARK VINA RESULT:    -7.146      4.992      6.481
REMARK INTER + INTRA:          -9.190
REMARK INTER:                  -8.744
REMARK INTRA:                  -0.446
REMARK UNBOUND:                -0.373
REMARK  Name = 
REMARK  6 active torsions:
REMARK  status: ('A' for Active; 'I' for Inactive)
REMARK    1  A    between atoms: C_1  and  N_2
REMARK    2  A    between atoms: N_2  and  C_3
REMARK    3  A    between atoms: N_2  and  C_4
REMARK    4  A    between atoms: C_9  and  S_10
REMARK    5  A    between atoms: S_10  and  N_13
REMARK    6  A    between atoms: N_13  and  C_14
REMARK                            x       y       z     vdW  Elec       q    Type
REMARK                         _______ _______ _______ _____ _____    ______ ____
ROOT
ATOM      1  C   UNL     1      26.264   0.174  53.208  0.00  0.00    +0.000 A 
ATOM      2  C   UNL     1      25.231  -0.488  53.897  0.00  0.00    +0.000 A 
ATOM      3  C   UNL     1      23.897  -0.283  53.591  0.00  0.00    +0.000 A 
ATOM      4  C   UNL     1      23.552   0.685  52.662  0.00  0.00    +0.000 A 
ATOM      5  C   UNL     1      24.513   1.497  52.030  0.00  0.00    +0.000 A 
ATOM      6  C   UNL     1      24.177   2.597  51.189  0.00  0.00    +0.000 A 
ATOM      7  C   UNL     1      25.156   3.212  50.394  0.00  0.00    +0.000 A 
ATOM      8  C   UNL     1      26.470   2.771  50.455  0.00  0.00    +0.000 A 
ATOM      9  C   UNL     1      26.828   1.782  51.372  0.00  0.00    +0.000 A 
ATOM     10  C   UNL     1      25.889   1.157  52.224  0.00  0.00    +0.000 A 
ENDROOT
BRANCH   1  12
ATOM     11  C   UNL     1      28.048  -1.508  53.074  0.00  0.00    +0.000 C 
ATOM     12  N   UNL     1      27.622  -0.161  53.473  0.00  0.00    +0.000 N 
ATOM     13  C   UNL     1      28.111   0.245  54.797  0.00  0.00    +0.000 C 
ENDBRANCH   1  12
BRANCH   6  14
ATOM     14  S   UNL     1      22.513   3.271  51.107  0.00  0.00    +0.000 S 
ATOM     15  O   UNL     1      21.641   2.209  50.642  0.00  0.00    +0.000 OA
ATOM     16  O   UNL     1      22.189   3.984  52.316  0.00  0.00    +0.000 OA
BRANCH  14  17
ATOM     17  N   UNL     1      22.535   4.364  49.806  0.00  0.00    +0.000 N 
ATOM     18  H   UNL     1      23.093   4.175  49.017  0.00  0.00    +0.000 HD
BRANCH  17  19
ATOM     19  C   UNL     1      21.748   5.551  49.854  0.00  0.00    +0.000 A 
ATOM     20  C   UNL     1      22.321   6.766  50.176  0.00  0.00    +0.000 A 
ATOM     21  N   UNL     1      21.648   7.938  50.210  0.00  0.00    +0.000 NA
ATOM     22  C   UNL     1      20.342   7.880  49.896  0.00  0.00    +0.000 A 
ATOM     23 BR   UNL     1      19.350   9.496  49.967  0.00  0.00    +0.000 Br
ATOM     24  N   UNL     1      19.685   6.758  49.539  0.00  0.00    +0.000 NA
ATOM     25  C   UNL     1      20.407   5.616  49.527  0.00  0.00    +0.000 A 
ENDBRANCH  17  19
ENDBRANCH  14  17
ENDBRANCH   6  14
TORSDOF 4
ENDMDL
MODEL 7
REMARK VINA RESULT:    -7.077      6.079      8.124
REMARK INTER + INTRA:          -9.105
REMARK INTER:                  -8.835
REMARK INTRA:                  -0.270
REMARK UNBOUND:                -0.373
REMARK  Name = 
REMARK  6 active torsions:
REMARK  status: ('A' for Active; 'I' for Inactive)
REMARK    1  A    between atoms: C_1  and  N_2
REMARK    2  A    between atoms: N_2  and  C_3
REMARK    3  A    between atoms: N_2  and  C_4
REMARK    4  A    between atoms: C_9  and  S_10
REMARK    5  A    between atoms: S_10  and  N_13
REMARK    6  A    between atoms: N_13  and  C_14
REMARK                            x       y       z     vdW  Elec       q    Type
REMARK                         _______ _______ _______ _____ _____    ______ ____
ROOT
ATOM      1  C   UNL     1      27.881   7.660  48.585  0.00  0.00    +0.000 A 
ATOM      2  C   UNL     1      28.826   6.722  48.130  0.00  0.00    +0.000 A 
ATOM      3  C   UNL     1      28.578   5.361  48.160  0.00  0.00    +0.000 A 
ATOM      4  C   UNL     1      27.421   4.892  48.759  0.00  0.00    +0.000 A 
ATOM      5  C   UNL     1      26.488   5.751  49.369  0.00  0.00    +0.000 A 
ATOM      6  C   UNL     1      25.371   5.286  50.121  0.00  0.00    +0.000 A 
ATOM      7  C   UNL     1      24.345   6.168  50.493  0.00  0.00    +0.000 A 
ATOM      8  C   UNL     1      24.438   7.512  50.161  0.00  0.00    +0.000 A 
ATOM      9  C   UNL     1      25.589   7.995  49.539  0.00  0.00    +0.000 A 
ATOM     10  C   UNL     1      26.669   7.157  49.177  0.00  0.00    +0.000 A 
ENDROOT
BRANCH   1  12
ATOM     11  C   UNL     1      28.328   9.518  47.041  0.00  0.00    +0.000 C 
ATOM     12  N   UNL     1      28.128   9.053  48.419  0.00  0.00    +0.000 N 
ATOM     13  C   UNL     1      29.078   9.630  49.380  0.00  0.00    +0.000 C 
ENDBRANCH   1  12
BRANCH   6  14
ATOM     14  S   UNL     1      25.213   3.576  50.651  0.00  0.00    +0.000 S 
ATOM     15  O   UNL     1      24.329   2.914  49.709  0.00  0.00    +0.000 OA
ATOM     16  O   UNL     1      26.504   3.008  50.940  0.00  0.00    +0.000 OA
BRANCH  14  17
ATOM     17  N   UNL     1      24.296   3.632  52.080  0.00  0.00    +0.000 N 
ATOM     18  H   UNL     1      24.191   4.483  52.563  0.00  0.00    +0.000 HD
BRANCH  17  19
ATOM     19  C   UNL     1      23.680   2.448  52.582  0.00  0.00    +0.000 A 
ATOM     20  C   UNL     1      22.313   2.273  52.496  0.00  0.00    +0.000 A 
ATOM     21  N   UNL     1      21.661   1.166  52.919  0.00  0.00    +0.000 NA
ATOM     22  C   UNL     1      22.426   0.192  53.442  0.00  0.00    +0.000 A 
ATOM     23 BR   UNL     1      21.549  -1.364  54.083  0.00  0.00    +0.000 Br
ATOM     24  N   UNL     1      23.769   0.241  53.550  0.00  0.00    +0.000 NA
ATOM     25  C   UNL     1      24.366   1.374  53.115  0.00  0.00    +0.000 A 
ENDBRANCH  17  19
ENDBRANCH  14  17
ENDBRANCH   6  14
TORSDOF 4
ENDMDL
MODEL 8
REMARK VINA RESULT:    -6.999      5.886      7.991
REMARK INTER + INTRA:          -9.009
REMARK INTER:                  -8.582
REMARK INTRA:                  -0.427
REMARK UNBOUND:                -0.373
REMARK  Name = 
REMARK  6 active torsions:
REMARK  status: ('A' for Active; 'I' for Inactive)
REMARK    1  A    between atoms: C_1  and  N_2
REMARK    2  A    between atoms: N_2  and  C_3
REMARK    3  A    between atoms: N_2  and  C_4
REMARK    4  A    between atoms: C_9  and  S_10
REMARK    5  A    between atoms: S_10  and  N_13
REMARK    6  A    between atoms: N_13  and  C_14
REMARK                            x       y       z     vdW  Elec       q    Type
REMARK                         _______ _______ _______ _____ _____    ______ ____
ROOT
ATOM      1  C   UNL     1      26.447   8.192  48.706  0.00  0.00    +0.000 A 
ATOM      2  C   UNL     1      25.466   8.981  49.334  0.00  0.00    +0.000 A 
ATOM      3  C   UNL     1      24.590   8.453  50.267  0.00  0.00    +0.000 A 
ATOM      4  C   UNL     1      24.593   7.089  50.510  0.00  0.00    +0.000 A 
ATOM      5  C   UNL     1      25.443   6.205  49.819  0.00  0.00    +0.000 A 
ATOM      6  C   UNL     1      25.361   4.787  49.940  0.00  0.00    +0.000 A 
ATOM      7  C   UNL     1      26.379   3.968  49.430  0.00  0.00    +0.000 A 
ATOM      8  C   UNL     1      27.456   4.540  48.769  0.00  0.00    +0.000 A 
ATOM      9  C   UNL     1      27.476   5.915  48.534  0.00  0.00    +0.000 A 
ATOM     10  C   UNL     1      26.457   6.781  48.992  0.00  0.00    +0.000 A 
ENDROOT
BRANCH   1  12
ATOM     11  C   UNL     1      28.653   9.248  48.480  0.00  0.00    +0.000 C 
ATOM     12  N   UNL     1      27.405   8.803  47.848  0.00  0.00    +0.000 N 
ATOM     13  C   UNL     1      26.850   9.772  46.893  0.00  0.00    +0.000 C 
ENDBRANCH   1  12
BRANCH   6  14
ATOM     14  S   UNL     1      23.964   3.967  50.720  0.00  0.00    +0.000 S 
ATOM     15  O   UNL     1      24.026   4.269  52.138  0.00  0.00    +0.000 OA
ATOM     16  O   UNL     1      22.749   4.218  49.988  0.00  0.00    +0.000 OA
BRANCH  14  17
ATOM     17  N   UNL     1      24.323   2.308  50.652  0.00  0.00    +0.000 N 
ATOM     18  H   UNL     1      24.933   1.966  49.959  0.00  0.00    +0.000 HD
BRANCH  17  19
ATOM     19  C   UNL     1      23.743   1.411  51.596  0.00  0.00    +0.000 A 
ATOM     20  C   UNL     1      24.519   0.805  52.565  0.00  0.00    +0.000 A 
ATOM     21  N   UNL     1      24.036  -0.029  53.513  0.00  0.00    +0.000 NA
ATOM     22  C   UNL     1      22.710  -0.253  53.485  0.00  0.00    +0.000 A 
ATOM     23 BR   UNL     1      21.995  -1.447  54.774  0.00  0.00    +0.000 Br
ATOM     24  N   UNL     1      21.853   0.305  52.607  0.00  0.00    +0.000 NA
ATOM     25  C   UNL     1      22.393   1.127  51.679  0.00  0.00    +0.000 A 
ENDBRANCH  17  19
ENDBRANCH  14  17
ENDBRANCH   6  14
TORSDOF 4
ENDMDL
MODEL 9
REMARK VINA RESULT:    -6.946      3.431      4.790
REMARK INTER + INTRA:          -8.944
REMARK INTER:                  -8.652
REMARK INTRA:                  -0.292
REMARK UNBOUND:                -0.373
REMARK  Name = 
REMARK  6 active torsions:
REMARK  status: ('A' for Active; 'I' for Inactive)
REMARK    1  A    between atoms: C_1  and  N_2
REMARK    2  A    between atoms: N_2  and  C_3
REMARK    3  A    between atoms: N_2  and  C_4
REMARK    4  A    between atoms: C_9  and  S_10
REMARK    5  A    between atoms: S_10  and  N_13
REMARK    6  A    between atoms: N_13  and  C_14
REMARK                            x       y       z     vdW  Elec       q    Type
REMARK                         _______ _______ _______ _____ _____    ______ ____
ROOT
ATOM      1  C   UNL     1      25.723   0.340  52.983  0.00  0.00    +0.000 A 
ATOM      2  C   UNL     1      24.553  -0.161  53.584  0.00  0.00    +0.000 A 
ATOM      3  C   UNL     1      23.298   0.320  53.254  0.00  0.00    +0.000 A 
ATOM      4  C   UNL     1      23.186   1.403  52.398  0.00  0.00    +0.000 A 
ATOM      5  C   UNL     1      24.311   2.058  51.864  0.00  0.00    +0.000 A 
ATOM      6  C   UNL     1      24.229   3.262  51.106  0.00  0.00    +0.000 A 
ATOM      7  C   UNL     1      25.342   3.733  50.393  0.00  0.00    +0.000 A 
ATOM      8  C   UNL     1      26.544   3.045  50.459  0.00  0.00    +0.000 A 
ATOM      9  C   UNL     1      26.665   1.940  51.303  0.00  0.00    +0.000 A 
ATOM     10  C   UNL     1      25.587   1.446  52.072  0.00  0.00    +0.000 A 
ENDROOT
BRANCH   1  12
ATOM     11  C   UNL     1      27.119  -1.678  52.872  0.00  0.00    +0.000 C 
ATOM     12  N   UNL     1      26.979  -0.270  53.262  0.00  0.00    +0.000 N 
ATOM     13  C   UNL     1      27.532   0.033  54.589  0.00  0.00    +0.000 C 
ENDBRANCH   1  12
BRANCH   6  14
ATOM     14  S   UNL     1      22.728   4.248  51.027  0.00  0.00    +0.000 S 
ATOM     15  O   UNL     1      22.271   4.445  52.390  0.00  0.00    +0.000 OA
ATOM     16  O   UNL     1      22.908   5.386  50.163  0.00  0.00    +0.000 OA
BRANCH  14  17
ATOM     17  N   UNL     1      21.550   3.222  50.359  0.00  0.00    +0.000 N 
ATOM     18  H   UNL     1      21.812   2.535  49.705  0.00  0.00    +0.000 HD
BRANCH  17  19
ATOM     19  C   UNL     1      20.184   3.355  50.743  0.00  0.00    +0.000 A 
ATOM     20  C   UNL     1      19.446   4.457  50.357  0.00  0.00    +0.000 A 
ATOM     21  N   UNL     1      18.139   4.637  50.654  0.00  0.00    +0.000 NA
ATOM     22  C   UNL     1      17.552   3.657  51.363  0.00  0.00    +0.000 A 
ATOM     23 BR   UNL     1      15.729   3.886  51.834  0.00  0.00    +0.000 Br
ATOM     24  N   UNL     1      18.165   2.527  51.769  0.00  0.00    +0.000 NA
ATOM     25  C   UNL     1      19.472   2.403  51.447  0.00  0.00    +0.000 A 
ENDBRANCH  17  19
ENDBRANCH  14  17
ENDBRANCH   6  14
TORSDOF 4
ENDMDL
