MODEL 1
REMARK VINA RESULT:    -9.298      0.000      0.000
REMARK INTER + INTRA:         -11.017
REMARK INTER:                 -10.657
REMARK INTRA:                  -0.360
REMARK UNBOUND:                -0.360
REMARK  Name = 
REMARK  7 active torsions:
REMARK  status: ('A' for Active; 'I' for Inactive)
REMARK    1  A    between atoms: C_1  and  C_2
REMARK    2  A    between atoms: C_2  and  C_3
REMARK    3  A    between atoms: C_3  and  C_4
REMARK    4  A    between atoms: C_16  and  C_17
REMARK    5  A    between atoms: C_16  and  C_18
REMARK    6  A    between atoms: C_23  and  C_24
REMARK    7  A    between atoms: C_25  and  O_26
REMARK                            x       y       z     vdW  Elec       q    Type
REMARK                         _______ _______ _______ _____ _____    ______ ____
ROOT
ATOM      1  C   UNL     1      22.246   0.905  53.106  0.00  0.00    +0.000 A 
ATOM      2  C   UNL     1      22.203   0.126  54.210  0.00  0.00    +0.000 A 
ATOM      3  C   UNL     1      23.112  -1.004  54.412  0.00  0.00    +0.000 A 
ATOM      4  O   UNL     1      22.846  -1.923  55.164  0.00  0.00    +0.000 OA
ATOM      5  O   UNL     1      24.254  -0.967  53.664  0.00  0.00    +0.000 OA
ATOM      6  C   UNL     1      24.520   0.253  53.048  0.00  0.00    +0.000 A 
ATOM      7  C   UNL     1      25.763   0.797  53.274  0.00  0.00    +0.000 A 
ATOM      8  C   UNL     1      26.235   1.711  52.348  0.00  0.00    +0.000 A 
ATOM      9  C   UNL     1      25.383   2.160  51.318  0.00  0.00    +0.000 A 
ATOM     10  C   UNL     1      23.995   1.883  51.382  0.00  0.00    +0.000 A 
ATOM     11  C   UNL     1      23.538   0.963  52.355  0.00  0.00    +0.000 A 
ATOM     12  O   UNL     1      23.098   2.473  50.516  0.00  0.00    +0.000 OA
ATOM     13  C   UNL     1      23.578   3.491  49.590  0.00  0.00    +0.000 C 
ATOM     14  C   UNL     1      22.956   3.243  48.203  0.00  0.00    +0.000 C 
ATOM     15  C   UNL     1      23.118   4.865  50.105  0.00  0.00    +0.000 C 
ATOM     16  C   UNL     1      25.078   3.547  49.400  0.00  0.00    +0.000 C 
ATOM     17  C   UNL     1      25.927   2.954  50.226  0.00  0.00    +0.000 C 
ATOM     18  O   UNL     1      27.531   2.158  52.394  0.00  0.00    +0.000 OA
ATOM     19  C   UNL     1      28.212   2.031  53.652  0.00  0.00    +0.000 C 
ATOM     20  C   UNL     1      27.941   0.730  54.410  0.00  0.00    +0.000 C 
ATOM     21  C   UNL     1      28.469  -0.519  53.702  0.00  0.00    +0.000 C 
ATOM     22  C   UNL     1      26.447   0.645  54.606  0.00  0.00    +0.000 C 
ENDROOT
BRANCH  22  23
ATOM     23  O   UNL     1      26.125  -0.507  55.372  0.00  0.00    +0.000 OA
ATOM     24  H   UNL     1      25.710  -1.170  54.799  0.00  0.00    +0.000 HD
ENDBRANCH  22  23
BRANCH   1  25
ATOM     25  C   UNL     1      21.109   1.863  52.917  0.00  0.00    +0.000 C 
BRANCH  25  27
ATOM     26  C   UNL     1      20.143   0.481  51.034  0.00  0.00    +0.000 C 
ATOM     27  C   UNL     1      19.868   1.135  52.383  0.00  0.00    +0.000 C 
ENDBRANCH  25  27
ENDBRANCH   1  25
TORSDOF 3
ENDMDL
MODEL 2
REMARK VINA RESULT:    -8.672      1.603      5.201
REMARK INTER + INTRA:         -10.300
REMARK INTER:                  -9.946
REMARK INTRA:                  -0.354
REMARK UNBOUND:                -0.360
REMARK  Name = 
REMARK  7 active torsions:
REMARK  status: ('A' for Active; 'I' for Inactive)
REMARK    1  A    between atoms: C_1  and  C_2
REMARK    2  A    between atoms: C_2  and  C_3
REMARK    3  A    between atoms: C_3  and  C_4
REMARK    4  A    between atoms: C_16  and  C_17
REMARK    5  A    between atoms: C_16  and  C_18
REMARK    6  A    between atoms: C_23  and  C_24
REMARK    7  A    between atoms: C_25  and  O_26
REMARK                            x       y       z     vdW  Elec       q    Type
REMARK                         _______ _______ _______ _____ _____    ______ ____
ROOT
ATOM      1  C   UNL     1      22.422   0.616  52.872  0.00  0.00    +0.000 A 
ATOM      2  C   UNL     1      21.208   1.009  52.426  0.00  0.00    +0.000 A 
ATOM      3  C   UNL     1      20.804   2.416  52.380  0.00  0.00    +0.000 A 
ATOM      4  O   UNL     1      19.636   2.756  52.367  0.00  0.00    +0.000 OA
ATOM      5  O   UNL     1      21.835   3.312  52.393  0.00  0.00    +0.000 OA
ATOM      6  C   UNL     1      23.096   2.770  52.162  0.00  0.00    +0.000 A 
ATOM      7  C   UNL     1      23.839   3.348  51.159  0.00  0.00    +0.000 A 
ATOM      8  C   UNL     1      25.212   3.181  51.208  0.00  0.00    +0.000 A 
ATOM      9  C   UNL     1      25.773   2.315  52.169  0.00  0.00    +0.000 A 
ATOM     10  C   UNL     1      24.935   1.433  52.896  0.00  0.00    +0.000 A 
ATOM     11  C   UNL     1      23.534   1.613  52.808  0.00  0.00    +0.000 A 
ATOM     12  O   UNL     1      25.453   0.431  53.689  0.00  0.00    +0.000 OA
ATOM     13  C   UNL     1      26.893   0.202  53.686  0.00  0.00    +0.000 C 
ATOM     14  C   UNL     1      27.371  -0.015  55.134  0.00  0.00    +0.000 C 
ATOM     15  C   UNL     1      27.176  -1.070  52.871  0.00  0.00    +0.000 C 
ATOM     16  C   UNL     1      27.731   1.320  53.105  0.00  0.00    +0.000 C 
ATOM     17  C   UNL     1      27.215   2.291  52.366  0.00  0.00    +0.000 C 
ATOM     18  O   UNL     1      26.040   3.875  50.361  0.00  0.00    +0.000 OA
ATOM     19  C   UNL     1      25.445   4.387  49.159  0.00  0.00    +0.000 C 
ATOM     20  C   UNL     1      24.040   4.969  49.323  0.00  0.00    +0.000 C 
ATOM     21  C   UNL     1      23.989   6.226  50.193  0.00  0.00    +0.000 C 
ATOM     22  C   UNL     1      23.184   3.874  49.911  0.00  0.00    +0.000 C 
ENDROOT
BRANCH  22  23
ATOM     23  O   UNL     1      21.839   4.319  50.023  0.00  0.00    +0.000 OA
ATOM     24  H   UNL     1      21.658   4.570  50.942  0.00  0.00    +0.000 HD
ENDBRANCH  22  23
BRANCH   1  25
ATOM     25  C   UNL     1      22.609  -0.854  53.095  0.00  0.00    +0.000 C 
BRANCH  25  27
ATOM     26  C   UNL     1      23.083  -1.453  55.505  0.00  0.00    +0.000 C 
ATOM     27  C   UNL     1      22.006  -1.280  54.441  0.00  0.00    +0.000 C 
ENDBRANCH  25  27
ENDBRANCH   1  25
TORSDOF 3
ENDMDL
MODEL 3
REMARK VINA RESULT:    -8.342      1.758      4.917
REMARK INTER + INTRA:          -9.921
REMARK INTER:                  -9.640
REMARK INTRA:                  -0.281
REMARK UNBOUND:                -0.360
REMARK  Name = 
REMARK  7 active torsions:
REMARK  status: ('A' for Active; 'I' for Inactive)
REMARK    1  A    between atoms: C_1  and  C_2
REMARK    2  A    between atoms: C_2  and  C_3
REMARK    3  A    between atoms: C_3  and  C_4
REMARK    4  A    between atoms: C_16  and  C_17
REMARK    5  A    between atoms: C_16  and  C_18
REMARK    6  A    between atoms: C_23  and  C_24
REMARK    7  A    between atoms: C_25  and  O_26
REMARK                            x       y       z     vdW  Elec       q    Type
REMARK                         _______ _______ _______ _____ _____    ______ ____
ROOT
ATOM      1  C   UNL     1      25.517   2.763  50.850  0.00  0.00    +0.000 A 
ATOM      2  C   UNL     1      26.473   1.850  51.129  0.00  0.00    +0.000 A 
ATOM      3  C   UNL     1      26.660   1.290  52.469  0.00  0.00    +0.000 A 
ATOM      4  O   UNL     1      27.714   0.797  52.825  0.00  0.00    +0.000 OA
ATOM      5  O   UNL     1      25.579   1.399  53.295  0.00  0.00    +0.000 OA
ATOM      6  C   UNL     1      24.387   1.758  52.670  0.00  0.00    +0.000 A 
ATOM      7  C   UNL     1      23.304   0.942  52.898  0.00  0.00    +0.000 A 
ATOM      8  C   UNL     1      22.046   1.488  52.711  0.00  0.00    +0.000 A 
ATOM      9  C   UNL     1      21.924   2.778  52.155  0.00  0.00    +0.000 A 
ATOM     10  C   UNL     1      23.051   3.397  51.559  0.00  0.00    +0.000 A 
ATOM     11  C   UNL     1      24.321   2.803  51.747  0.00  0.00    +0.000 A 
ATOM     12  O   UNL     1      22.935   4.559  50.824  0.00  0.00    +0.000 OA
ATOM     13  C   UNL     1      21.606   5.097  50.561  0.00  0.00    +0.000 C 
ATOM     14  C   UNL     1      21.629   6.622  50.774  0.00  0.00    +0.000 C 
ATOM     15  C   UNL     1      21.249   4.803  49.095  0.00  0.00    +0.000 C 
ATOM     16  C   UNL     1      20.494   4.546  51.427  0.00  0.00    +0.000 C 
ATOM     17  C   UNL     1      20.628   3.442  52.147  0.00  0.00    +0.000 C 
ATOM     18  O   UNL     1      20.916   0.809  53.093  0.00  0.00    +0.000 OA
ATOM     19  C   UNL     1      21.040  -0.614  53.239  0.00  0.00    +0.000 C 
ATOM     20  C   UNL     1      22.341  -1.092  53.887  0.00  0.00    +0.000 C 
ATOM     21  C   UNL     1      22.497  -0.667  55.348  0.00  0.00    +0.000 C 
ATOM     22  C   UNL     1      23.469  -0.546  53.046  0.00  0.00    +0.000 C 
ENDROOT
BRANCH  22  23
ATOM     23  O   UNL     1      24.714  -1.014  53.545  0.00  0.00    +0.000 OA
ATOM     24  H   UNL     1      25.343  -0.276  53.585  0.00  0.00    +0.000 HD
ENDBRANCH  22  23
BRANCH   1  25
ATOM     25  C   UNL     1      25.597   3.428  49.509  0.00  0.00    +0.000 C 
BRANCH  25  27
ATOM     26  C   UNL     1      27.505   4.886  48.720  0.00  0.00    +0.000 C 
ATOM     27  C   UNL     1      26.280   4.798  49.622  0.00  0.00    +0.000 C 
ENDBRANCH  25  27
ENDBRANCH   1  25
TORSDOF 3
ENDMDL
MODEL 4
REMARK VINA RESULT:    -8.208      1.657      6.437
REMARK INTER + INTRA:          -9.768
REMARK INTER:                  -9.500
REMARK INTRA:                  -0.268
REMARK UNBOUND:                -0.360
REMARK  Name = 
REMARK  7 active torsions:
REMARK  status: ('A' for Active; 'I' for Inactive)
REMARK    1  A    between atoms: C_1  and  C_2
REMARK    2  A    between atoms: C_2  and  C_3
REMARK    3  A    between atoms: C_3  and  C_4
REMARK    4  A    between atoms: C_16  and  C_17
REMARK    5  A    between atoms: C_16  and  C_18
REMARK    6  A    between atoms: C_23  and  C_24
REMARK    7  A    between atoms: C_25  and  O_26
REMARK                            x       y       z     vdW  Elec       q    Type
REMARK                         _______ _______ _______ _____ _____    ______ ____
ROOT
ATOM      1  C   UNL     1      24.461   3.228  49.951  0.00  0.00    +0.000 A 
ATOM      2  C   UNL     1      23.584   3.879  49.153  0.00  0.00    +0.000 A 
ATOM      3  C   UNL     1      22.444   3.208  48.524  0.00  0.00    +0.000 A 
ATOM      4  O   UNL     1      21.900   3.650  47.530  0.00  0.00    +0.000 OA
ATOM      5  O   UNL     1      22.069   2.035  49.113  0.00  0.00    +0.000 OA
ATOM      6  C   UNL     1      22.624   1.796  50.368  0.00  0.00    +0.000 A 
ATOM      7  C   UNL     1      21.743   1.505  51.383  0.00  0.00    +0.000 A 
ATOM      8  C   UNL     1      22.239   0.817  52.477  0.00  0.00    +0.000 A 
ATOM      9  C   UNL     1      23.626   0.584  52.581  0.00  0.00    +0.000 A 
ATOM     10  C   UNL     1      24.520   1.266  51.720  0.00  0.00    +0.000 A 
ATOM     11  C   UNL     1      23.983   1.982  50.624  0.00  0.00    +0.000 A 
ATOM     12  O   UNL     1      25.885   1.231  51.919  0.00  0.00    +0.000 OA
ATOM     13  C   UNL     1      26.408   0.572  53.109  0.00  0.00    +0.000 C 
ATOM     14  C   UNL     1      27.625  -0.286  52.716  0.00  0.00    +0.000 C 
ATOM     15  C   UNL     1      26.859   1.656  54.101  0.00  0.00    +0.000 C 
ATOM     16  C   UNL     1      25.438  -0.339  53.831  0.00  0.00    +0.000 C 
ATOM     17  C   UNL     1      24.132  -0.312  53.611  0.00  0.00    +0.000 C 
ATOM     18  O   UNL     1      21.398   0.323  53.443  0.00  0.00    +0.000 OA
ATOM     19  C   UNL     1      20.099   0.928  53.534  0.00  0.00    +0.000 C 
ATOM     20  C   UNL     1      19.436   1.256  52.195  0.00  0.00    +0.000 C 
ATOM     21  C   UNL     1      19.089   0.022  51.359  0.00  0.00    +0.000 C 
ATOM     22  C   UNL     1      20.389   2.158  51.449  0.00  0.00    +0.000 C 
ENDROOT
BRANCH  22  23
ATOM     23  O   UNL     1      19.806   2.567  50.220  0.00  0.00    +0.000 OA
ATOM     24  H   UNL     1      20.270   3.352  49.888  0.00  0.00    +0.000 HD
ENDBRANCH  22  23
BRANCH   1  25
ATOM     25  C   UNL     1      25.706   3.973  50.324  0.00  0.00    +0.000 C 
BRANCH  25  27
ATOM     26  C   UNL     1      27.444   4.940  48.764  0.00  0.00    +0.000 C 
ATOM     27  C   UNL     1      26.841   3.664  49.338  0.00  0.00    +0.000 C 
ENDBRANCH  25  27
ENDBRANCH   1  25
TORSDOF 3
ENDMDL
MODEL 5
REMARK VINA RESULT:    -8.074      2.203      5.783
REMARK INTER + INTRA:          -9.614
REMARK INTER:                  -9.312
REMARK INTRA:                  -0.301
REMARK UNBOUND:                -0.360
REMARK  Name = 
REMARK  7 active torsions:
REMARK  status: ('A' for Active; 'I' for Inactive)
REMARK    1  A    between atoms: C_1  and  C_2
REMARK    2  A    between atoms: C_2  and  C_3
REMARK    3  A    between atoms: C_3  and  C_4
REMARK    4  A    between atoms: C_16  and  C_17
REMARK    5  A    between atoms: C_16  and  C_18
REMARK    6  A    between atoms: C_23  and  C_24
REMARK    7  A    between atoms: C_25  and  O_26
REMARK                            x       y       z     vdW  Elec       q    Type
REMARK                         _______ _______ _______ _____ _____    ______ ____
ROOT
ATOM      1  C   UNL     1      21.256   0.049  52.617  0.00  0.00    +0.000 A 
ATOM      2  C   UNL     1      19.955  -0.184  52.335  0.00  0.00    +0.000 A 
ATOM      3  C   UNL     1      19.043   0.875  51.898  0.00  0.00    +0.000 A 
ATOM      4  O   UNL     1      17.836   0.783  52.021  0.00  0.00    +0.000 OA
ATOM      5  O   UNL     1      19.651   1.983  51.382  0.00  0.00    +0.000 OA
ATOM      6  C   UNL     1      21.004   1.835  51.085  0.00  0.00    +0.000 A 
ATOM      7  C   UNL     1      21.393   2.173  49.811  0.00  0.00    +0.000 A 
ATOM      8  C   UNL     1      22.726   2.494  49.618  0.00  0.00    +0.000 A 
ATOM      9  C   UNL     1      23.644   2.313  50.673  0.00  0.00    +0.000 A 
ATOM     10  C   UNL     1      23.262   1.574  51.819  0.00  0.00    +0.000 A 
ATOM     11  C   UNL     1      21.896   1.239  51.978  0.00  0.00    +0.000 A 
ATOM     12  O   UNL     1      24.180   1.196  52.776  0.00  0.00    +0.000 OA
ATOM     13  C   UNL     1      25.594   1.465  52.543  0.00  0.00    +0.000 C 
ATOM     14  C   UNL     1      26.224   2.008  53.839  0.00  0.00    +0.000 C 
ATOM     15  C   UNL     1      26.280   0.140  52.171  0.00  0.00    +0.000 C 
ATOM     16  C   UNL     1      25.896   2.465  51.448  0.00  0.00    +0.000 C 
ATOM     17  C   UNL     1      24.997   2.838  50.551  0.00  0.00    +0.000 C 
ATOM     18  O   UNL     1      23.161   3.021  48.428  0.00  0.00    +0.000 OA
ATOM     19  C   UNL     1      22.330   2.791  47.280  0.00  0.00    +0.000 C 
ATOM     20  C   UNL     1      20.825   2.901  47.533  0.00  0.00    +0.000 C 
ATOM     21  C   UNL     1      20.363   4.309  47.909  0.00  0.00    +0.000 C 
ATOM     22  C   UNL     1      20.497   1.917  48.630  0.00  0.00    +0.000 C 
ENDROOT
BRANCH  22  23
ATOM     23  O   UNL     1      19.097   1.908  48.868  0.00  0.00    +0.000 OA
ATOM     24  H   UNL     1      18.731   1.047  48.612  0.00  0.00    +0.000 HD
ENDBRANCH  22  23
BRANCH   1  25
ATOM     25  C   UNL     1      22.006  -1.064  53.284  0.00  0.00    +0.000 C 
BRANCH  25  27
ATOM     26  C   UNL     1      23.242  -1.374  55.467  0.00  0.00    +0.000 C 
ATOM     27  C   UNL     1      21.942  -0.924  54.811  0.00  0.00    +0.000 C 
ENDBRANCH  25  27
ENDBRANCH   1  25
TORSDOF 3
ENDMDL
MODEL 6
REMARK VINA RESULT:    -8.056      1.632      2.003
REMARK INTER + INTRA:          -9.593
REMARK INTER:                  -9.313
REMARK INTRA:                  -0.280
REMARK UNBOUND:                -0.360
REMARK  Name = 
REMARK  7 active torsions:
REMARK  status: ('A' for Active; 'I' for Inactive)
REMARK    1  A    between atoms: C_1  and  C_2
REMARK    2  A    between atoms: C_2  and  C_3
REMARK    3  A    between atoms: C_3  and  C_4
REMARK    4  A    between atoms: C_16  and  C_17
REMARK    5  A    between atoms: C_16  and  C_18
REMARK    6  A    between atoms: C_23  and  C_24
REMARK    7  A    between atoms: C_25  and  O_26
REMARK                            x       y       z     vdW  Elec       q    Type
REMARK                         _______ _______ _______ _____ _____    ______ ____
ROOT
ATOM      1  C   UNL     1      21.366   2.410  52.090  0.00  0.00    +0.000 A 
ATOM      2  C   UNL     1      20.980   1.467  52.978  0.00  0.00    +0.000 A 
ATOM      3  C   UNL     1      21.464   0.086  52.919  0.00  0.00    +0.000 A 
ATOM      4  O   UNL     1      20.856  -0.837  53.429  0.00  0.00    +0.000 OA
ATOM      5  O   UNL     1      22.622  -0.090  52.217  0.00  0.00    +0.000 OA
ATOM      6  C   UNL     1      23.314   1.079  51.910  0.00  0.00    +0.000 A 
ATOM      7  C   UNL     1      24.639   1.121  52.276  0.00  0.00    +0.000 A 
ATOM      8  C   UNL     1      25.456   2.009  51.599  0.00  0.00    +0.000 A 
ATOM      9  C   UNL     1      24.886   2.927  50.694  0.00  0.00    +0.000 A 
ATOM     10  C   UNL     1      23.482   3.114  50.671  0.00  0.00    +0.000 A 
ATOM     11  C   UNL     1      22.672   2.205  51.393  0.00  0.00    +0.000 A 
ATOM     12  O   UNL     1      22.899   4.140  49.958  0.00  0.00    +0.000 OA
ATOM     13  C   UNL     1      23.756   5.121  49.305  0.00  0.00    +0.000 C 
ATOM     14  C   UNL     1      23.215   5.402  47.890  0.00  0.00    +0.000 C 
ATOM     15  C   UNL     1      23.709   6.421  50.124  0.00  0.00    +0.000 C 
ATOM     16  C   UNL     1      25.208   4.723  49.154  0.00  0.00    +0.000 C 
ATOM     17  C   UNL     1      25.748   3.719  49.828  0.00  0.00    +0.000 C 
ATOM     18  O   UNL     1      26.818   1.986  51.767  0.00  0.00    +0.000 OA
ATOM     19  C   UNL     1      27.307   1.370  52.968  0.00  0.00    +0.000 C 
ATOM     20  C   UNL     1      26.573   0.097  53.393  0.00  0.00    +0.000 C 
ATOM     21  C   UNL     1      26.742  -1.069  52.417  0.00  0.00    +0.000 C 
ATOM     22  C   UNL     1      25.118   0.465  53.543  0.00  0.00    +0.000 C 
ENDROOT
BRANCH  22  23
ATOM     23  O   UNL     1      24.381  -0.655  54.011  0.00  0.00    +0.000 OA
ATOM     24  H   UNL     1      24.994  -1.363  54.262  0.00  0.00    +0.000 HD
ENDBRANCH  22  23
BRANCH   1  25
ATOM     25  C   UNL     1      20.611   3.704  52.118  0.00  0.00    +0.000 C 
BRANCH  25  27
ATOM     26  C   UNL     1      18.196   3.628  51.374  0.00  0.00    +0.000 C 
ATOM     27  C   UNL     1      19.644   3.795  50.930  0.00  0.00    +0.000 C 
ENDBRANCH  25  27
ENDBRANCH   1  25
TORSDOF 3
ENDMDL
MODEL 7
REMARK VINA RESULT:    -7.925      1.810      5.104
REMARK INTER + INTRA:          -9.444
REMARK INTER:                  -8.985
REMARK INTRA:                  -0.459
REMARK UNBOUND:                -0.360
REMARK  Name = 
REMARK  7 active torsions:
REMARK  status: ('A' for Active; 'I' for Inactive)
REMARK    1  A    between atoms: C_1  and  C_2
REMARK    2  A    between atoms: C_2  and  C_3
REMARK    3  A    between atoms: C_3  and  C_4
REMARK    4  A    between atoms: C_16  and  C_17
REMARK    5  A    between atoms: C_16  and  C_18
REMARK    6  A    between atoms: C_23  and  C_24
REMARK    7  A    between atoms: C_25  and  O_26
REMARK                            x       y       z     vdW  Elec       q    Type
REMARK                         _______ _______ _______ _____ _____    ______ ____
ROOT
ATOM      1  C   UNL     1      22.986   4.472  49.265  0.00  0.00    +0.000 A 
ATOM      2  C   UNL     1      24.108   5.099  48.847  0.00  0.00    +0.000 A 
ATOM      3  C   UNL     1      25.167   5.516  49.769  0.00  0.00    +0.000 A 
ATOM      4  O   UNL     1      25.959   6.397  49.491  0.00  0.00    +0.000 OA
ATOM      5  O   UNL     1      25.170   4.872  50.973  0.00  0.00    +0.000 OA
ATOM      6  C   UNL     1      24.367   3.737  51.041  0.00  0.00    +0.000 A 
ATOM      7  C   UNL     1      24.972   2.581  51.476  0.00  0.00    +0.000 A 
ATOM      8  C   UNL     1      24.156   1.595  52.001  0.00  0.00    +0.000 A 
ATOM      9  C   UNL     1      22.755   1.740  51.928  0.00  0.00    +0.000 A 
ATOM     10  C   UNL     1      22.194   2.745  51.103  0.00  0.00    +0.000 A 
ATOM     11  C   UNL     1      23.057   3.727  50.559  0.00  0.00    +0.000 A 
ATOM     12  O   UNL     1      20.842   2.793  50.837  0.00  0.00    +0.000 OA
ATOM     13  C   UNL     1      19.989   1.717  51.326  0.00  0.00    +0.000 C 
ATOM     14  C   UNL     1      18.702   2.322  51.917  0.00  0.00    +0.000 C 
ATOM     15  C   UNL     1      19.617   0.819  50.133  0.00  0.00    +0.000 C 
ATOM     16  C   UNL     1      20.596   0.835  52.395  0.00  0.00    +0.000 C 
ATOM     17  C   UNL     1      21.895   0.818  52.656  0.00  0.00    +0.000 C 
ATOM     18  O   UNL     1      24.688   0.495  52.627  0.00  0.00    +0.000 OA
ATOM     19  C   UNL     1      26.051   0.173  52.311  0.00  0.00    +0.000 C 
ATOM     20  C   UNL     1      26.992   1.372  52.182  0.00  0.00    +0.000 C 
ATOM     21  C   UNL     1      27.204   2.134  53.491  0.00  0.00    +0.000 C 
ATOM     22  C   UNL     1      26.403   2.274  51.125  0.00  0.00    +0.000 C 
ENDROOT
BRANCH  22  23
ATOM     23  O   UNL     1      27.266   3.378  50.896  0.00  0.00    +0.000 OA
ATOM     24  H   UNL     1      28.189   3.083  50.950  0.00  0.00    +0.000 HD
ENDBRANCH  22  23
BRANCH   1  25
ATOM     25  C   UNL     1      21.886   4.325  48.258  0.00  0.00    +0.000 C 
BRANCH  25  27
ATOM     26  C   UNL     1      22.293   1.904  47.655  0.00  0.00    +0.000 C 
ATOM     27  C   UNL     1      22.291   3.342  47.151  0.00  0.00    +0.000 C 
ENDBRANCH  25  27
ENDBRANCH   1  25
TORSDOF 3
ENDMDL
MODEL 8
REMARK VINA RESULT:    -7.685      2.007      5.608
REMARK INTER + INTRA:          -9.168
REMARK INTER:                  -8.922
REMARK INTRA:                  -0.246
REMARK UNBOUND:                -0.360
REMARK  Name = 
REMARK  7 active torsions:
REMARK  status: ('A' for Active; 'I' for Inactive)
REMARK    1  A    between atoms: C_1  and  C_2
REMARK    2  A    between atoms: C_2  and  C_3
REMARK    3  A    between atoms: C_3  and  C_4
REMARK    4  A    between atoms: C_16  and  C_17
REMARK    5  A    between atoms: C_16  and  C_18
REMARK    6  A    between atoms: C_23  and  C_24
REMARK    7  A    between atoms: C_25  and  O_26
REMARK                            x       y       z     vdW  Elec       q    Type
REMARK                         _______ _______ _______ _____ _____    ______ ____
ROOT
ATOM      1  C   UNL     1      25.379   2.201  51.975  0.00  0.00    +0.000 A 
ATOM      2  C   UNL     1      25.024   1.012  52.512  0.00  0.00    +0.000 A 
ATOM      3  C   UNL     1      23.671   0.745  53.007  0.00  0.00    +0.000 A 
ATOM      4  O   UNL     1      23.440  -0.128  53.823  0.00  0.00    +0.000 OA
ATOM      5  O   UNL     1      22.704   1.573  52.515  0.00  0.00    +0.000 OA
ATOM      6  C   UNL     1      23.083   2.347  51.421  0.00  0.00    +0.000 A 
ATOM      7  C   UNL     1      22.276   2.277  50.310  0.00  0.00    +0.000 A 
ATOM      8  C   UNL     1      22.326   3.336  49.421  0.00  0.00    +0.000 A 
ATOM      9  C   UNL     1      23.293   4.347  49.597  0.00  0.00    +0.000 A 
ATOM     10  C   UNL     1      24.358   4.150  50.510  0.00  0.00    +0.000 A 
ATOM     11  C   UNL     1      24.291   3.045  51.392  0.00  0.00    +0.000 A 
ATOM     12  O   UNL     1      25.433   5.012  50.566  0.00  0.00    +0.000 OA
ATOM     13  C   UNL     1      25.529   6.084  49.583  0.00  0.00    +0.000 C 
ATOM     14  C   UNL     1      25.951   7.384  50.295  0.00  0.00    +0.000 C 
ATOM     15  C   UNL     1      26.610   5.703  48.558  0.00  0.00    +0.000 C 
ATOM     16  C   UNL     1      24.257   6.388  48.822  0.00  0.00    +0.000 C 
ATOM     17  C   UNL     1      23.222   5.562  48.798  0.00  0.00    +0.000 C 
ATOM     18  O   UNL     1      21.425   3.438  48.391  0.00  0.00    +0.000 OA
ATOM     19  C   UNL     1      20.766   2.226  47.991  0.00  0.00    +0.000 C 
ATOM     20  C   UNL     1      20.349   1.302  49.136  0.00  0.00    +0.000 C 
ATOM     21  C   UNL     1      19.272   1.894  50.047  0.00  0.00    +0.000 C 
ATOM     22  C   UNL     1      21.601   0.990  49.919  0.00  0.00    +0.000 C 
ENDROOT
BRANCH  22  23
ATOM     23  O   UNL     1      21.303   0.072  50.961  0.00  0.00    +0.000 OA
ATOM     24  H   UNL     1      20.484  -0.403  50.748  0.00  0.00    +0.000 HD
ENDBRANCH  22  23
BRANCH   1  25
ATOM     25  C   UNL     1      26.843   2.418  51.739  0.00  0.00    +0.000 C 
BRANCH  25  27
ATOM     26  C   UNL     1      28.467   2.371  53.675  0.00  0.00    +0.000 C 
ATOM     27  C   UNL     1      27.681   1.535  52.673  0.00  0.00    +0.000 C 
ENDBRANCH  25  27
ENDBRANCH   1  25
TORSDOF 3
ENDMDL
MODEL 9
REMARK VINA RESULT:    -7.454      2.222      5.901
REMARK INTER + INTRA:          -8.904
REMARK INTER:                  -8.675
REMARK INTRA:                  -0.229
REMARK UNBOUND:                -0.360
REMARK  Name = 
REMARK  7 active torsions:
REMARK  status: ('A' for Active; 'I' for Inactive)
REMARK    1  A    between atoms: C_1  and  C_2
REMARK    2  A    between atoms: C_2  and  C_3
REMARK    3  A    between atoms: C_3  and  C_4
REMARK    4  A    between atoms: C_16  and  C_17
REMARK    5  A    between atoms: C_16  and  C_18
REMARK    6  A    between atoms: C_23  and  C_24
REMARK    7  A    between atoms: C_25  and  O_26
REMARK                            x       y       z     vdW  Elec       q    Type
REMARK                         _______ _______ _______ _____ _____    ______ ____
ROOT
ATOM      1  C   UNL     1      23.129   0.965  52.808  0.00  0.00    +0.000 A 
ATOM      2  C   UNL     1      22.729  -0.218  53.325  0.00  0.00    +0.000 A 
ATOM      3  C   UNL     1      21.438  -0.388  53.995  0.00  0.00    +0.000 A 
ATOM      4  O   UNL     1      21.231  -1.288  54.787  0.00  0.00    +0.000 OA
ATOM      5  O   UNL     1      20.503   0.562  53.695  0.00  0.00    +0.000 OA
ATOM      6  C   UNL     1      20.807   1.369  52.602  0.00  0.00    +0.000 A 
ATOM      7  C   UNL     1      19.851   1.454  51.617  0.00  0.00    +0.000 A 
ATOM      8  C   UNL     1      19.888   2.562  50.789  0.00  0.00    +0.000 A 
ATOM      9  C   UNL     1      20.972   3.461  50.879  0.00  0.00    +0.000 A 
ATOM     10  C   UNL     1      22.126   3.100  51.616  0.00  0.00    +0.000 A 
ATOM     11  C   UNL     1      22.066   1.948  52.435  0.00  0.00    +0.000 A 
ATOM     12  O   UNL     1      23.283   3.848  51.562  0.00  0.00    +0.000 OA
ATOM     13  C   UNL     1      23.354   4.972  50.636  0.00  0.00    +0.000 C 
ATOM     14  C   UNL     1      24.005   6.172  51.349  0.00  0.00    +0.000 C 
ATOM     15  C   UNL     1      24.236   4.559  49.446  0.00  0.00    +0.000 C 
ATOM     16  C   UNL     1      22.028   5.449  50.085  0.00  0.00    +0.000 C 
ATOM     17  C   UNL     1      20.919   4.729  50.166  0.00  0.00    +0.000 C 
ATOM     18  O   UNL     1      18.869   2.822  49.907  0.00  0.00    +0.000 OA
ATOM     19  C   UNL     1      18.037   1.710  49.542  0.00  0.00    +0.000 C 
ATOM     20  C   UNL     1      17.688   0.753  50.683  0.00  0.00    +0.000 C 
ATOM     21  C   UNL     1      16.816   1.382  51.771  0.00  0.00    +0.000 C 
ATOM     22  C   UNL     1      18.996   0.269  51.258  0.00  0.00    +0.000 C 
ENDROOT
BRANCH  22  23
ATOM     23  O   UNL     1      18.751  -0.687  52.280  0.00  0.00    +0.000 OA
ATOM     24  H   UNL     1      19.531  -1.255  52.385  0.00  0.00    +0.000 HD
ENDBRANCH  22  23
BRANCH   1  25
ATOM     25  C   UNL     1      24.561   1.055  52.374  0.00  0.00    +0.000 C 
BRANCH  25  27
ATOM     26  C   UNL     1      26.671  -0.321  52.170  0.00  0.00    +0.000 C 
ATOM     27  C   UNL     1      25.377  -0.112  52.946  0.00  0.00    +0.000 C 
ENDBRANCH  25  27
ENDBRANCH   1  25
TORSDOF 3
ENDMDL
