MODEL 1
REMARK VINA RESULT:    -9.696      0.000      0.000
REMARK INTER + INTRA:         -12.805
REMARK INTER:                 -11.963
REMARK INTRA:                  -0.842
REMARK UNBOUND:                -0.842
REMARK  Name = 
REMARK  4 active torsions:
REMARK  status: ('A' for Active; 'I' for Inactive)
REMARK    1  A    between atoms: C_2  and  C_3
REMARK    2  A    between atoms: C_6  and  C_7
REMARK    3  A    between atoms: C_9  and  C_10
REMARK    4  A    between atoms: C_19  and  C_20
REMARK                            x       y       z     vdW  Elec       q    Type
REMARK                         _______ _______ _______ _____ _____    ______ ____
ROOT
ATOM      1  C   UNL     1      22.498   1.080  51.847  0.00  0.00    +0.000 A 
ATOM      2  N   UNL     1      23.561   0.571  52.447  0.00  0.00    +0.000 NA
ATOM      3  C   UNL     1      24.634   1.356  52.080  0.00  0.00    +0.000 A 
ATOM      4  C   UNL     1      24.245   2.311  51.154  0.00  0.00    +0.000 A 
ATOM      5  N   UNL     1      22.877   2.172  51.098  0.00  0.00    +0.000 N 
ATOM      6  H   UNL     1      22.266   2.761  50.600  0.00  0.00    +0.000 HD
ENDROOT
BRANCH   3   7
ATOM      7  C   UNL     1      25.975   1.159  52.621  0.00  0.00    +0.000 A 
ATOM      8  C   UNL     1      26.694   2.238  53.197  0.00  0.00    +0.000 A 
ATOM      9  C   UNL     1      28.015   2.095  53.621  0.00  0.00    +0.000 A 
ATOM     10  C   UNL     1      28.573   0.844  53.532  0.00  0.00    +0.000 A 
ATOM     11  C   UNL     1      27.871  -0.229  53.033  0.00  0.00    +0.000 A 
ATOM     12  C   UNL     1      26.576  -0.105  52.565  0.00  0.00    +0.000 A 
ATOM     13  O   UNL     1      28.606  -1.374  53.056  0.00  0.00    +0.000 OA
ATOM     14  C   UNL     1      29.850  -0.891  53.604  0.00  0.00    +0.000 C 
ATOM     15  O   UNL     1      29.832   0.515  53.920  0.00  0.00    +0.000 OA
ENDBRANCH   3   7
BRANCH   1  19
ATOM     16  C   UNL     1      18.476  -0.392  52.267  0.00  0.00    +0.000 A 
ATOM     17  C   UNL     1      19.426  -0.619  53.263  0.00  0.00    +0.000 A 
ATOM     18  C   UNL     1      20.734  -0.135  53.110  0.00  0.00    +0.000 A 
ATOM     19  C   UNL     1      21.116   0.583  51.965  0.00  0.00    +0.000 A 
ATOM     20  C   UNL     1      20.152   0.796  50.969  0.00  0.00    +0.000 A 
ATOM     21  C   UNL     1      18.842   0.314  51.118  0.00  0.00    +0.000 A 
BRANCH  16  23
ATOM     22  N   UNL     1      16.053  -1.276  52.539  0.00  0.00    +0.000 NA
ATOM     23  C   UNL     1      17.132  -0.878  52.419  0.00  0.00    +0.000 C 
ENDBRANCH  16  23
ENDBRANCH   1  19
BRANCH   4  24
ATOM     24  C   UNL     1      24.961   3.324  50.392  0.00  0.00    +0.000 A 
ATOM     25  C   UNL     1      26.117   3.027  49.675  0.00  0.00    +0.000 A 
ATOM     26  C   UNL     1      26.875   4.069  49.157  0.00  0.00    +0.000 A 
ATOM     27  C   UNL     1      26.424   5.371  49.315  0.00  0.00    +0.000 A 
ATOM     28  C   UNL     1      25.222   5.573  49.979  0.00  0.00    +0.000 A 
ATOM     29  N   UNL     1      24.475   4.580  50.521  0.00  0.00    +0.000 NA
ENDBRANCH   4  24
TORSDOF 4
ENDMDL
MODEL 2
REMARK VINA RESULT:    -9.244      3.116      7.725
REMARK INTER + INTRA:         -12.248
REMARK INTER:                 -11.885
REMARK INTRA:                  -0.363
REMARK UNBOUND:                -0.842
REMARK  Name = 
REMARK  4 active torsions:
REMARK  status: ('A' for Active; 'I' for Inactive)
REMARK    1  A    between atoms: C_2  and  C_3
REMARK    2  A    between atoms: C_6  and  C_7
REMARK    3  A    between atoms: C_9  and  C_10
REMARK    4  A    between atoms: C_19  and  C_20
REMARK                            x       y       z     vdW  Elec       q    Type
REMARK                         _______ _______ _______ _____ _____    ______ ____
ROOT
ATOM      1  C   UNL     1      25.851   3.887  50.388  0.00  0.00    +0.000 A 
ATOM      2  N   UNL     1      24.681   3.304  50.591  0.00  0.00    +0.000 NA
ATOM      3  C   UNL     1      24.924   2.191  51.369  0.00  0.00    +0.000 A 
ATOM      4  C   UNL     1      26.286   2.024  51.569  0.00  0.00    +0.000 A 
ATOM      5  N   UNL     1      26.836   3.159  51.019  0.00  0.00    +0.000 N 
ATOM      6  H   UNL     1      27.786   3.412  51.067  0.00  0.00    +0.000 HD
ENDROOT
BRANCH   3   7
ATOM      7  C   UNL     1      23.856   1.337  51.878  0.00  0.00    +0.000 A 
ATOM      8  C   UNL     1      22.657   1.153  51.142  0.00  0.00    +0.000 A 
ATOM      9  C   UNL     1      21.583   0.428  51.660  0.00  0.00    +0.000 A 
ATOM     10  C   UNL     1      21.758  -0.168  52.884  0.00  0.00    +0.000 A 
ATOM     11  C   UNL     1      22.936  -0.052  53.586  0.00  0.00    +0.000 A 
ATOM     12  C   UNL     1      23.999   0.696  53.116  0.00  0.00    +0.000 A 
ATOM     13  O   UNL     1      22.901  -0.740  54.760  0.00  0.00    +0.000 OA
ATOM     14  C   UNL     1      21.563  -1.278  54.722  0.00  0.00    +0.000 C 
ATOM     15  O   UNL     1      20.836  -0.930  53.527  0.00  0.00    +0.000 OA
ENDBRANCH   3   7
BRANCH   1  19
ATOM     16  C   UNL     1      26.460   7.548  48.210  0.00  0.00    +0.000 A 
ATOM     17  C   UNL     1      25.344   7.383  49.031  0.00  0.00    +0.000 A 
ATOM     18  C   UNL     1      25.158   6.183  49.733  0.00  0.00    +0.000 A 
ATOM     19  C   UNL     1      26.080   5.129  49.630  0.00  0.00    +0.000 A 
ATOM     20  C   UNL     1      27.193   5.305  48.795  0.00  0.00    +0.000 A 
ATOM     21  C   UNL     1      27.383   6.505  48.091  0.00  0.00    +0.000 A 
BRANCH  16  23
ATOM     22  N   UNL     1      26.823   9.771  46.925  0.00  0.00    +0.000 NA
ATOM     23  C   UNL     1      26.662   8.777  47.494  0.00  0.00    +0.000 C 
ENDBRANCH  16  23
ENDBRANCH   1  19
BRANCH   4  24
ATOM     24  C   UNL     1      27.089   1.005  52.229  0.00  0.00    +0.000 A 
ATOM     25  C   UNL     1      26.856  -0.354  52.037  0.00  0.00    +0.000 A 
ATOM     26  C   UNL     1      27.500  -1.270  52.858  0.00  0.00    +0.000 A 
ATOM     27  C   UNL     1      28.404  -0.806  53.803  0.00  0.00    +0.000 A 
ATOM     28  C   UNL     1      28.632   0.561  53.877  0.00  0.00    +0.000 A 
ATOM     29  N   UNL     1      27.998   1.481  53.111  0.00  0.00    +0.000 NA
ENDBRANCH   4  24
TORSDOF 4
ENDMDL
MODEL 3
REMARK VINA RESULT:    -9.135      3.248      7.761
REMARK INTER + INTRA:         -12.113
REMARK INTER:                 -11.807
REMARK INTRA:                  -0.306
REMARK UNBOUND:                -0.842
REMARK  Name = 
REMARK  4 active torsions:
REMARK  status: ('A' for Active; 'I' for Inactive)
REMARK    1  A    between atoms: C_2  and  C_3
REMARK    2  A    between atoms: C_6  and  C_7
REMARK    3  A    between atoms: C_9  and  C_10
REMARK    4  A    between atoms: C_19  and  C_20
REMARK                            x       y       z     vdW  Elec       q    Type
REMARK                         _______ _______ _______ _____ _____    ______ ____
ROOT
ATOM      1  C   UNL     1      25.837   3.101  50.761  0.00  0.00    +0.000 A 
ATOM      2  N   UNL     1      24.653   2.644  51.133  0.00  0.00    +0.000 NA
ATOM      3  C   UNL     1      24.888   1.531  51.915  0.00  0.00    +0.000 A 
ATOM      4  C   UNL     1      26.242   1.234  51.945  0.00  0.00    +0.000 A 
ATOM      5  N   UNL     1      26.822   2.295  51.287  0.00  0.00    +0.000 N 
ATOM      6  H   UNL     1      27.790   2.451  51.204  0.00  0.00    +0.000 HD
ENDROOT
BRANCH   3   7
ATOM      7  C   UNL     1      23.818   0.802  52.588  0.00  0.00    +0.000 A 
ATOM      8  C   UNL     1      24.094  -0.024  53.708  0.00  0.00    +0.000 A 
ATOM      9  C   UNL     1      23.105  -0.812  54.299  0.00  0.00    +0.000 A 
ATOM     10  C   UNL     1      21.831  -0.699  53.802  0.00  0.00    +0.000 A 
ATOM     11  C   UNL     1      21.532   0.144  52.757  0.00  0.00    +0.000 A 
ATOM     12  C   UNL     1      22.500   0.902  52.125  0.00  0.00    +0.000 A 
ATOM     13  O   UNL     1      20.208   0.118  52.442  0.00  0.00    +0.000 OA
ATOM     14  C   UNL     1      19.720  -0.852  53.393  0.00  0.00    +0.000 C 
ATOM     15  O   UNL     1      20.743  -1.365  54.268  0.00  0.00    +0.000 OA
ENDBRANCH   3   7
BRANCH   1  19
ATOM     16  C   UNL     1      26.494   6.622  48.376  0.00  0.00    +0.000 A 
ATOM     17  C   UNL     1      25.338   6.488  49.148  0.00  0.00    +0.000 A 
ATOM     18  C   UNL     1      25.138   5.333  49.918  0.00  0.00    +0.000 A 
ATOM     19  C   UNL     1      26.083   4.295  49.933  0.00  0.00    +0.000 A 
ATOM     20  C   UNL     1      27.235   4.440  49.148  0.00  0.00    +0.000 A 
ATOM     21  C   UNL     1      27.440   5.595  48.375  0.00  0.00    +0.000 A 
BRANCH  16  23
ATOM     22  N   UNL     1      26.893   8.757  46.957  0.00  0.00    +0.000 NA
ATOM     23  C   UNL     1      26.710   7.806  47.591  0.00  0.00    +0.000 C 
ENDBRANCH  16  23
ENDBRANCH   1  19
BRANCH   4  24
ATOM     24  C   UNL     1      27.022   0.156  52.535  0.00  0.00    +0.000 A 
ATOM     25  C   UNL     1      28.110   0.405  53.367  0.00  0.00    +0.000 A 
ATOM     26  C   UNL     1      28.946  -0.648  53.715  0.00  0.00    +0.000 A 
ATOM     27  C   UNL     1      28.636  -1.926  53.274  0.00  0.00    +0.000 A 
ATOM     28  C   UNL     1      27.491  -2.096  52.510  0.00  0.00    +0.000 A 
ATOM     29  N   UNL     1      26.672  -1.086  52.129  0.00  0.00    +0.000 NA
ENDBRANCH   4  24
TORSDOF 4
ENDMDL
MODEL 4
REMARK VINA RESULT:    -9.064      2.554      4.831
REMARK INTER + INTRA:         -12.025
REMARK INTER:                 -11.372
REMARK INTRA:                  -0.654
REMARK UNBOUND:                -0.842
REMARK  Name = 
REMARK  4 active torsions:
REMARK  status: ('A' for Active; 'I' for Inactive)
REMARK    1  A    between atoms: C_2  and  C_3
REMARK    2  A    between atoms: C_6  and  C_7
REMARK    3  A    between atoms: C_9  and  C_10
REMARK    4  A    between atoms: C_19  and  C_20
REMARK                            x       y       z     vdW  Elec       q    Type
REMARK                         _______ _______ _______ _____ _____    ______ ____
ROOT
ATOM      1  C   UNL     1      23.047   1.150  52.007  0.00  0.00    +0.000 A 
ATOM      2  N   UNL     1      23.300   2.226  51.281  0.00  0.00    +0.000 NA
ATOM      3  C   UNL     1      24.668   2.399  51.294  0.00  0.00    +0.000 A 
ATOM      4  C   UNL     1      25.269   1.468  52.128  0.00  0.00    +0.000 A 
ATOM      5  N   UNL     1      24.232   0.638  52.488  0.00  0.00    +0.000 N 
ATOM      6  H   UNL     1      24.324  -0.192  53.009  0.00  0.00    +0.000 HD
ENDROOT
BRANCH   3   7
ATOM      7  C   UNL     1      25.338   3.439  50.521  0.00  0.00    +0.000 A 
ATOM      8  C   UNL     1      26.439   3.128  49.682  0.00  0.00    +0.000 A 
ATOM      9  C   UNL     1      27.160   4.122  49.019  0.00  0.00    +0.000 A 
ATOM     10  C   UNL     1      26.713   5.414  49.147  0.00  0.00    +0.000 A 
ATOM     11  C   UNL     1      25.609   5.728  49.906  0.00  0.00    +0.000 A 
ATOM     12  C   UNL     1      24.905   4.769  50.609  0.00  0.00    +0.000 A 
ATOM     13  O   UNL     1      25.331   7.060  49.876  0.00  0.00    +0.000 OA
ATOM     14  C   UNL     1      26.396   7.543  49.031  0.00  0.00    +0.000 C 
ATOM     15  O   UNL     1      27.270   6.502  48.555  0.00  0.00    +0.000 OA
ENDBRANCH   3   7
BRANCH   1  19
ATOM     16  C   UNL     1      19.146  -0.544  52.659  0.00  0.00    +0.000 A 
ATOM     17  C   UNL     1      19.442   0.131  51.474  0.00  0.00    +0.000 A 
ATOM     18  C   UNL     1      20.717   0.680  51.278  0.00  0.00    +0.000 A 
ATOM     19  C   UNL     1      21.718   0.565  52.256  0.00  0.00    +0.000 A 
ATOM     20  C   UNL     1      21.404  -0.110  53.445  0.00  0.00    +0.000 A 
ATOM     21  C   UNL     1      20.128  -0.661  53.645  0.00  0.00    +0.000 A 
BRANCH  16  23
ATOM     22  N   UNL     1      16.798  -1.584  53.029  0.00  0.00    +0.000 NA
ATOM     23  C   UNL     1      17.843  -1.116  52.865  0.00  0.00    +0.000 C 
ENDBRANCH  16  23
ENDBRANCH   1  19
BRANCH   4  24
ATOM     24  C   UNL     1      26.640   1.244  52.563  0.00  0.00    +0.000 A 
ATOM     25  C   UNL     1      27.211  -0.025  52.572  0.00  0.00    +0.000 A 
ATOM     26  C   UNL     1      28.434  -0.209  53.204  0.00  0.00    +0.000 A 
ATOM     27  C   UNL     1      29.079   0.891  53.751  0.00  0.00    +0.000 A 
ATOM     28  C   UNL     1      28.474   2.133  53.631  0.00  0.00    +0.000 A 
ATOM     29  N   UNL     1      27.268   2.340  53.047  0.00  0.00    +0.000 NA
ENDBRANCH   4  24
TORSDOF 4
ENDMDL
MODEL 5
REMARK VINA RESULT:    -8.407      4.069      8.939
REMARK INTER + INTRA:         -11.214
REMARK INTER:                 -10.405
REMARK INTRA:                  -0.809
REMARK UNBOUND:                -0.842
REMARK  Name = 
REMARK  4 active torsions:
REMARK  status: ('A' for Active; 'I' for Inactive)
REMARK    1  A    between atoms: C_2  and  C_3
REMARK    2  A    between atoms: C_6  and  C_7
REMARK    3  A    between atoms: C_9  and  C_10
REMARK    4  A    between atoms: C_19  and  C_20
REMARK                            x       y       z     vdW  Elec       q    Type
REMARK                         _______ _______ _______ _____ _____    ______ ____
ROOT
ATOM      1  C   UNL     1      25.847   4.231  49.743  0.00  0.00    +0.000 A 
ATOM      2  N   UNL     1      24.557   4.071  49.497  0.00  0.00    +0.000 NA
ATOM      3  C   UNL     1      24.132   3.024  50.289  0.00  0.00    +0.000 A 
ATOM      4  C   UNL     1      25.201   2.459  50.966  0.00  0.00    +0.000 A 
ATOM      5  N   UNL     1      26.251   3.299  50.674  0.00  0.00    +0.000 N 
ATOM      6  H   UNL     1      27.152   3.242  51.068  0.00  0.00    +0.000 HD
ENDROOT
BRANCH   3   7
ATOM      7  C   UNL     1      22.735   2.609  50.361  0.00  0.00    +0.000 A 
ATOM      8  C   UNL     1      22.265   1.501  49.609  0.00  0.00    +0.000 A 
ATOM      9  C   UNL     1      20.913   1.154  49.581  0.00  0.00    +0.000 A 
ATOM     10  C   UNL     1      20.061   1.881  50.375  0.00  0.00    +0.000 A 
ATOM     11  C   UNL     1      20.508   2.920  51.159  0.00  0.00    +0.000 A 
ATOM     12  C   UNL     1      21.834   3.312  51.171  0.00  0.00    +0.000 A 
ATOM     13  O   UNL     1      19.502   3.485  51.880  0.00  0.00    +0.000 OA
ATOM     14  C   UNL     1      18.375   2.698  51.441  0.00  0.00    +0.000 C 
ATOM     15  O   UNL     1      18.725   1.669  50.495  0.00  0.00    +0.000 OA
ENDBRANCH   3   7
BRANCH   1  19
ATOM     16  C   UNL     1      28.357   7.269  48.015  0.00  0.00    +0.000 A 
ATOM     17  C   UNL     1      27.112   7.594  48.554  0.00  0.00    +0.000 A 
ATOM     18  C   UNL     1      26.304   6.591  49.112  0.00  0.00    +0.000 A 
ATOM     19  C   UNL     1      26.723   5.252  49.142  0.00  0.00    +0.000 A 
ATOM     20  C   UNL     1      27.973   4.939  48.590  0.00  0.00    +0.000 A 
ATOM     21  C   UNL     1      28.785   5.939  48.031  0.00  0.00    +0.000 A 
BRANCH  16  23
ATOM     22  N   UNL     1      29.865   9.111  46.986  0.00  0.00    +0.000 NA
ATOM     23  C   UNL     1      29.194   8.290  47.449  0.00  0.00    +0.000 C 
ENDBRANCH  16  23
ENDBRANCH   1  19
BRANCH   4  24
ATOM     24  C   UNL     1      25.339   1.312  51.852  0.00  0.00    +0.000 A 
ATOM     25  C   UNL     1      24.337   0.950  52.748  0.00  0.00    +0.000 A 
ATOM     26  C   UNL     1      24.614  -0.007  53.716  0.00  0.00    +0.000 A 
ATOM     27  C   UNL     1      25.859  -0.618  53.721  0.00  0.00    +0.000 A 
ATOM     28  C   UNL     1      26.773  -0.251  52.744  0.00  0.00    +0.000 A 
ATOM     29  N   UNL     1      26.545   0.700  51.805  0.00  0.00    +0.000 NA
ENDBRANCH   4  24
TORSDOF 4
ENDMDL
MODEL 6
REMARK VINA RESULT:    -8.388      2.426      6.202
REMARK INTER + INTRA:         -11.191
REMARK INTER:                 -10.697
REMARK INTRA:                  -0.494
REMARK UNBOUND:                -0.842
REMARK  Name = 
REMARK  4 active torsions:
REMARK  status: ('A' for Active; 'I' for Inactive)
REMARK    1  A    between atoms: C_2  and  C_3
REMARK    2  A    between atoms: C_6  and  C_7
REMARK    3  A    between atoms: C_9  and  C_10
REMARK    4  A    between atoms: C_19  and  C_20
REMARK                            x       y       z     vdW  Elec       q    Type
REMARK                         _______ _______ _______ _____ _____    ______ ____
ROOT
ATOM      1  C   UNL     1      24.499   2.992  51.357  0.00  0.00    +0.000 A 
ATOM      2  N   UNL     1      25.669   2.399  51.533  0.00  0.00    +0.000 NA
ATOM      3  C   UNL     1      25.411   1.192  52.148  0.00  0.00    +0.000 A 
ATOM      4  C   UNL     1      24.063   1.077  52.451  0.00  0.00    +0.000 A 
ATOM      5  N   UNL     1      23.501   2.184  51.857  0.00  0.00    +0.000 N 
ATOM      6  H   UNL     1      22.536   2.370  51.799  0.00  0.00    +0.000 HD
ENDROOT
BRANCH   3   7
ATOM      7  C   UNL     1      26.455   0.210  52.424  0.00  0.00    +0.000 A 
ATOM      8  C   UNL     1      26.262  -1.162  52.118  0.00  0.00    +0.000 A 
ATOM      9  C   UNL     1      27.203  -2.131  52.471  0.00  0.00    +0.000 A 
ATOM     10  C   UNL     1      28.364  -1.695  53.059  0.00  0.00    +0.000 A 
ATOM     11  C   UNL     1      28.595  -0.361  53.308  0.00  0.00    +0.000 A 
ATOM     12  C   UNL     1      27.662   0.613  53.009  0.00  0.00    +0.000 A 
ATOM     13  O   UNL     1      29.815  -0.152  53.874  0.00  0.00    +0.000 OA
ATOM     14  C   UNL     1      30.308  -1.505  53.971  0.00  0.00    +0.000 C 
ATOM     15  O   UNL     1      29.397  -2.489  53.444  0.00  0.00    +0.000 OA
ENDBRANCH   3   7
BRANCH   1  19
ATOM     16  C   UNL     1      23.843   6.839  49.545  0.00  0.00    +0.000 A 
ATOM     17  C   UNL     1      23.617   6.644  50.908  0.00  0.00    +0.000 A 
ATOM     18  C   UNL     1      23.833   5.384  51.484  0.00  0.00    +0.000 A 
ATOM     19  C   UNL     1      24.278   4.298  50.713  0.00  0.00    +0.000 A 
ATOM     20  C   UNL     1      24.493   4.506  49.343  0.00  0.00    +0.000 A 
ATOM     21  C   UNL     1      24.278   5.767  48.763  0.00  0.00    +0.000 A 
BRANCH  16  23
ATOM     22  N   UNL     1      23.453   9.166  48.468  0.00  0.00    +0.000 NA
ATOM     23  C   UNL     1      23.631   8.129  48.949  0.00  0.00    +0.000 C 
ENDBRANCH  16  23
ENDBRANCH   1  19
BRANCH   4  24
ATOM     24  C   UNL     1      23.270   0.076  53.150  0.00  0.00    +0.000 A 
ATOM     25  C   UNL     1      22.007  -0.305  52.706  0.00  0.00    +0.000 A 
ATOM     26  C   UNL     1      21.212  -1.090  53.530  0.00  0.00    +0.000 A 
ATOM     27  C   UNL     1      21.725  -1.523  54.744  0.00  0.00    +0.000 A 
ATOM     28  C   UNL     1      23.022  -1.159  55.076  0.00  0.00    +0.000 A 
ATOM     29  N   UNL     1      23.812  -0.370  54.307  0.00  0.00    +0.000 NA
ENDBRANCH   4  24
TORSDOF 4
ENDMDL
MODEL 7
REMARK VINA RESULT:    -8.308      3.269      7.850
REMARK INTER + INTRA:         -11.092
REMARK INTER:                 -10.467
REMARK INTRA:                  -0.625
REMARK UNBOUND:                -0.842
REMARK  Name = 
REMARK  4 active torsions:
REMARK  status: ('A' for Active; 'I' for Inactive)
REMARK    1  A    between atoms: C_2  and  C_3
REMARK    2  A    between atoms: C_6  and  C_7
REMARK    3  A    between atoms: C_9  and  C_10
REMARK    4  A    between atoms: C_19  and  C_20
REMARK                            x       y       z     vdW  Elec       q    Type
REMARK                         _______ _______ _______ _____ _____    ______ ____
ROOT
ATOM      1  C   UNL     1      25.610   4.313  49.646  0.00  0.00    +0.000 A 
ATOM      2  N   UNL     1      25.794   3.526  50.694  0.00  0.00    +0.000 NA
ATOM      3  C   UNL     1      24.632   2.799  50.849  0.00  0.00    +0.000 A 
ATOM      4  C   UNL     1      23.671   3.216  49.941  0.00  0.00    +0.000 A 
ATOM      5  N   UNL     1      24.348   4.104  49.136  0.00  0.00    +0.000 N 
ATOM      6  H   UNL     1      23.986   4.526  48.324  0.00  0.00    +0.000 HD
ENDROOT
BRANCH   3   7
ATOM      7  C   UNL     1      24.487   1.750  51.853  0.00  0.00    +0.000 A 
ATOM      8  C   UNL     1      25.578   0.910  52.191  0.00  0.00    +0.000 A 
ATOM      9  C   UNL     1      25.432  -0.165  53.068  0.00  0.00    +0.000 A 
ATOM     10  C   UNL     1      24.203  -0.334  53.657  0.00  0.00    +0.000 A 
ATOM     11  C   UNL     1      23.149   0.509  53.389  0.00  0.00    +0.000 A 
ATOM     12  C   UNL     1      23.254   1.554  52.491  0.00  0.00    +0.000 A 
ATOM     13  O   UNL     1      22.035   0.174  54.096  0.00  0.00    +0.000 OA
ATOM     14  C   UNL     1      22.506  -0.984  54.817  0.00  0.00    +0.000 C 
ATOM     15  O   UNL     1      23.886  -1.305  54.552  0.00  0.00    +0.000 OA
ENDBRANCH   3   7
BRANCH   1  19
ATOM     16  C   UNL     1      28.442   7.121  48.031  0.00  0.00    +0.000 A 
ATOM     17  C   UNL     1      27.163   7.534  48.406  0.00  0.00    +0.000 A 
ATOM     18  C   UNL     1      26.250   6.606  48.928  0.00  0.00    +0.000 A 
ATOM     19  C   UNL     1      26.596   5.254  49.087  0.00  0.00    +0.000 A 
ATOM     20  C   UNL     1      27.882   4.852  48.699  0.00  0.00    +0.000 A 
ATOM     21  C   UNL     1      28.799   5.778  48.175  0.00  0.00    +0.000 A 
BRANCH  16  23
ATOM     22  N   UNL     1      30.152   8.824  47.078  0.00  0.00    +0.000 NA
ATOM     23  C   UNL     1      29.386   8.067  47.502  0.00  0.00    +0.000 C 
ENDBRANCH  16  23
ENDBRANCH   1  19
BRANCH   4  24
ATOM     24  C   UNL     1      22.277   2.859  49.714  0.00  0.00    +0.000 A 
ATOM     25  C   UNL     1      21.911   1.630  49.174  0.00  0.00    +0.000 A 
ATOM     26  C   UNL     1      20.595   1.436  48.775  0.00  0.00    +0.000 A 
ATOM     27  C   UNL     1      19.672   2.450  48.985  0.00  0.00    +0.000 A 
ATOM     28  C   UNL     1      20.107   3.615  49.599  0.00  0.00    +0.000 A 
ATOM     29  N   UNL     1      21.390   3.847  49.973  0.00  0.00    +0.000 NA
ENDBRANCH   4  24
TORSDOF 4
ENDMDL
MODEL 8
REMARK VINA RESULT:    -8.145      4.502      8.993
REMARK INTER + INTRA:         -10.892
REMARK INTER:                 -10.160
REMARK INTRA:                  -0.732
REMARK UNBOUND:                -0.842
REMARK  Name = 
REMARK  4 active torsions:
REMARK  status: ('A' for Active; 'I' for Inactive)
REMARK    1  A    between atoms: C_2  and  C_3
REMARK    2  A    between atoms: C_6  and  C_7
REMARK    3  A    between atoms: C_9  and  C_10
REMARK    4  A    between atoms: C_19  and  C_20
REMARK                            x       y       z     vdW  Elec       q    Type
REMARK                         _______ _______ _______ _____ _____    ______ ____
ROOT
ATOM      1  C   UNL     1      23.818   3.146  50.563  0.00  0.00    +0.000 A 
ATOM      2  N   UNL     1      22.545   3.133  50.203  0.00  0.00    +0.000 NA
ATOM      3  C   UNL     1      21.901   2.265  51.061  0.00  0.00    +0.000 A 
ATOM      4  C   UNL     1      22.812   1.650  51.906  0.00  0.00    +0.000 A 
ATOM      5  N   UNL     1      23.996   2.295  51.632  0.00  0.00    +0.000 N 
ATOM      6  H   UNL     1      24.840   2.167  52.122  0.00  0.00    +0.000 HD
ENDROOT
BRANCH   3   7
ATOM      7  C   UNL     1      20.457   2.056  51.033  0.00  0.00    +0.000 A 
ATOM      8  C   UNL     1      19.903   0.875  50.477  0.00  0.00    +0.000 A 
ATOM      9  C   UNL     1      18.524   0.704  50.344  0.00  0.00    +0.000 A 
ATOM     10  C   UNL     1      17.717   1.694  50.845  0.00  0.00    +0.000 A 
ATOM     11  C   UNL     1      18.235   2.820  51.444  0.00  0.00    +0.000 A 
ATOM     12  C   UNL     1      19.596   3.034  51.548  0.00  0.00    +0.000 A 
ATOM     13  O   UNL     1      17.258   3.657  51.888  0.00  0.00    +0.000 OA
ATOM     14  C   UNL     1      16.076   2.940  51.480  0.00  0.00    +0.000 C 
ATOM     15  O   UNL     1      16.359   1.686  50.828  0.00  0.00    +0.000 OA
ENDBRANCH   3   7
BRANCH   1  19
ATOM     16  C   UNL     1      26.977   5.437  48.751  0.00  0.00    +0.000 A 
ATOM     17  C   UNL     1      27.182   4.107  49.120  0.00  0.00    +0.000 A 
ATOM     18  C   UNL     1      26.142   3.374  49.712  0.00  0.00    +0.000 A 
ATOM     19  C   UNL     1      24.884   3.952  49.945  0.00  0.00    +0.000 A 
ATOM     20  C   UNL     1      24.696   5.292  49.576  0.00  0.00    +0.000 A 
ATOM     21  C   UNL     1      25.733   6.029  48.983  0.00  0.00    +0.000 A 
BRANCH  16  23
ATOM     22  N   UNL     1      28.889   6.793  47.640  0.00  0.00    +0.000 NA
ATOM     23  C   UNL     1      28.034   6.192  48.137  0.00  0.00    +0.000 C 
ENDBRANCH  16  23
ENDBRANCH   1  19
BRANCH   4  24
ATOM     24  C   UNL     1      22.700   0.618  52.927  0.00  0.00    +0.000 A 
ATOM     25  C   UNL     1      21.528   0.425  53.653  0.00  0.00    +0.000 A 
ATOM     26  C   UNL     1      21.551  -0.415  54.759  0.00  0.00    +0.000 A 
ATOM     27  C   UNL     1      22.726  -1.085  55.068  0.00  0.00    +0.000 A 
ATOM     28  C   UNL     1      23.827  -0.892  54.247  0.00  0.00    +0.000 A 
ATOM     29  N   UNL     1      23.845  -0.057  53.180  0.00  0.00    +0.000 NA
ENDBRANCH   4  24
TORSDOF 4
ENDMDL
MODEL 9
REMARK VINA RESULT:    -8.023      3.415      7.540
REMARK INTER + INTRA:         -10.740
REMARK INTER:                 -10.235
REMARK INTRA:                  -0.505
REMARK UNBOUND:                -0.842
REMARK  Name = 
REMARK  4 active torsions:
REMARK  status: ('A' for Active; 'I' for Inactive)
REMARK    1  A    between atoms: C_2  and  C_3
REMARK    2  A    between atoms: C_6  and  C_7
REMARK    3  A    between atoms: C_9  and  C_10
REMARK    4  A    between atoms: C_19  and  C_20
REMARK                            x       y       z     vdW  Elec       q    Type
REMARK                         _______ _______ _______ _____ _____    ______ ____
ROOT
ATOM      1  C   UNL     1      24.048   3.898  51.391  0.00  0.00    +0.000 A 
ATOM      2  N   UNL     1      22.961   3.181  51.626  0.00  0.00    +0.000 NA
ATOM      3  C   UNL     1      23.370   2.058  52.315  0.00  0.00    +0.000 A 
ATOM      4  C   UNL     1      24.752   2.028  52.422  0.00  0.00    +0.000 A 
ATOM      5  N   UNL     1      25.143   3.246  51.913  0.00  0.00    +0.000 N 
ATOM      6  H   UNL     1      26.063   3.595  51.920  0.00  0.00    +0.000 HD
ENDROOT
BRANCH   3   7
ATOM      7  C   UNL     1      22.432   1.067  52.833  0.00  0.00    +0.000 A 
ATOM      8  C   UNL     1      22.858   0.071  53.749  0.00  0.00    +0.000 A 
ATOM      9  C   UNL     1      22.005  -0.949  54.173  0.00  0.00    +0.000 A 
ATOM     10  C   UNL     1      20.708  -0.908  53.727  0.00  0.00    +0.000 A 
ATOM     11  C   UNL     1      20.259   0.085  52.886  0.00  0.00    +0.000 A 
ATOM     12  C   UNL     1      21.095   1.081  52.417  0.00  0.00    +0.000 A 
ATOM     13  O   UNL     1      18.939  -0.056  52.589  0.00  0.00    +0.000 OA
ATOM     14  C   UNL     1      18.620  -1.258  53.320  0.00  0.00    +0.000 C 
ATOM     15  O   UNL     1      19.735  -1.798  54.055  0.00  0.00    +0.000 OA
ENDBRANCH   3   7
BRANCH   1  19
ATOM     16  C   UNL     1      24.182   7.660  49.308  0.00  0.00    +0.000 A 
ATOM     17  C   UNL     1      24.263   6.454  48.609  0.00  0.00    +0.000 A 
ATOM     18  C   UNL     1      24.220   5.236  49.303  0.00  0.00    +0.000 A 
ATOM     19  C   UNL     1      24.095   5.198  50.701  0.00  0.00    +0.000 A 
ATOM     20  C   UNL     1      24.023   6.418  51.390  0.00  0.00    +0.000 A 
ATOM     21  C   UNL     1      24.064   7.640  50.699  0.00  0.00    +0.000 A 
BRANCH  16  23
ATOM     22  N   UNL     1      24.237   9.922  48.038  0.00  0.00    +0.000 NA
ATOM     23  C   UNL     1      24.216   8.912  48.603  0.00  0.00    +0.000 C 
ENDBRANCH  16  23
ENDBRANCH   1  19
BRANCH   4  24
ATOM     24  C   UNL     1      25.699   1.065  52.965  0.00  0.00    +0.000 A 
ATOM     25  C   UNL     1      26.275   1.228  54.222  0.00  0.00    +0.000 A 
ATOM     26  C   UNL     1      27.331   0.404  54.590  0.00  0.00    +0.000 A 
ATOM     27  C   UNL     1      27.737  -0.597  53.719  0.00  0.00    +0.000 A 
ATOM     28  C   UNL     1      27.059  -0.736  52.518  0.00  0.00    +0.000 A 
ATOM     29  N   UNL     1      26.045   0.069  52.117  0.00  0.00    +0.000 NA
ENDBRANCH   4  24
TORSDOF 4
ENDMDL
