MODEL 1
REMARK VINA RESULT:    -9.419      0.000      0.000
REMARK INTER + INTRA:         -11.549
REMARK INTER:                 -11.071
REMARK INTRA:                  -0.477
REMARK UNBOUND:                -0.477
REMARK  Name = 
REMARK  4 active torsions:
REMARK  status: ('A' for Active; 'I' for Inactive)
REMARK    1  A    between atoms: C_4  and  C_5
REMARK    2  A    between atoms: C_14  and  C_15
REMARK    3  A    between atoms: C_21  and  O_22
REMARK    4  A    between atoms: C_24  and  O_25
REMARK                            x       y       z     vdW  Elec       q    Type
REMARK                         _______ _______ _______ _____ _____    ______ ____
ROOT
ATOM      1  O   UNL     1      20.551   1.758  52.404  0.00  0.00    +0.000 OA
ATOM      2  C   UNL     1      21.768   1.663  52.477  0.00  0.00    +0.000 A 
ATOM      3  C   UNL     1      22.591   2.529  51.620  0.00  0.00    +0.000 A 
ATOM      4  C   UNL     1      23.921   2.429  51.689  0.00  0.00    +0.000 A 
ATOM      5  O   UNL     1      24.603   1.568  52.516  0.00  0.00    +0.000 OA
ATOM      6  C   UNL     1      23.902   0.689  53.315  0.00  0.00    +0.000 A 
ATOM      7  C   UNL     1      24.664  -0.217  54.100  0.00  0.00    +0.000 A 
ATOM      8  C   UNL     1      23.930  -1.070  54.956  0.00  0.00    +0.000 A 
ATOM      9  C   UNL     1      22.534  -1.038  55.027  0.00  0.00    +0.000 A 
ATOM     10  C   UNL     1      21.818  -0.154  54.226  0.00  0.00    +0.000 A 
ATOM     11  C   UNL     1      22.492   0.716  53.362  0.00  0.00    +0.000 A 
ENDROOT
BRANCH   4  12
ATOM     12  C   UNL     1      24.786   3.271  50.855  0.00  0.00    +0.000 A 
ATOM     13  C   UNL     1      25.865   2.672  50.185  0.00  0.00    +0.000 A 
ATOM     14  C   UNL     1      26.712   3.436  49.380  0.00  0.00    +0.000 A 
ATOM     15  C   UNL     1      26.490   4.805  49.233  0.00  0.00    +0.000 A 
ATOM     16  C   UNL     1      25.425   5.412  49.896  0.00  0.00    +0.000 A 
ATOM     17  C   UNL     1      24.574   4.650  50.705  0.00  0.00    +0.000 A 
ATOM     18 CL   UNL     1      23.274   5.465  51.500  0.00  0.00    +0.000 Cl
ENDBRANCH   4  12
BRANCH   7  19
ATOM     19  C   UNL     1      26.152  -0.272  54.028  0.00  0.00    +0.000 A 
ATOM     20  C   UNL     1      26.856  -1.029  53.102  0.00  0.00    +0.000 A 
ATOM     21  N   UNL     1      28.207  -1.104  53.010  0.00  0.00    +0.000 NA
ATOM     22  C   UNL     1      28.888  -0.380  53.904  0.00  0.00    +0.000 A 
ATOM     23  N   UNL     1      28.350   0.398  54.849  0.00  0.00    +0.000 NA
ATOM     24  C   UNL     1      26.997   0.434  54.877  0.00  0.00    +0.000 A 
ENDBRANCH   7  19
BRANCH   8  25
ATOM     25  O   UNL     1      24.591  -1.981  55.741  0.00  0.00    +0.000 OA
ATOM     26  H   UNL     1      25.417  -2.324  55.465  0.00  0.00    +0.000 HD
ENDBRANCH   8  25
BRANCH  10  27
ATOM     27  O   UNL     1      20.457  -0.155  54.305  0.00  0.00    +0.000 OA
ATOM     28  H   UNL     1      19.970  -0.893  53.997  0.00  0.00    +0.000 HD
ENDBRANCH  10  27
TORSDOF 4
ENDMDL
MODEL 2
REMARK VINA RESULT:    -9.362      2.889      4.742
REMARK INTER + INTRA:         -11.481
REMARK INTER:                 -10.724
REMARK INTRA:                  -0.756
REMARK UNBOUND:                -0.477
REMARK  Name = 
REMARK  4 active torsions:
REMARK  status: ('A' for Active; 'I' for Inactive)
REMARK    1  A    between atoms: C_4  and  C_5
REMARK    2  A    between atoms: C_14  and  C_15
REMARK    3  A    between atoms: C_21  and  O_22
REMARK    4  A    between atoms: C_24  and  O_25
REMARK                            x       y       z     vdW  Elec       q    Type
REMARK                         _______ _______ _______ _____ _____    ______ ____
ROOT
ATOM      1  O   UNL     1      26.787  -0.064  54.758  0.00  0.00    +0.000 OA
ATOM      2  C   UNL     1      25.869   0.349  54.063  0.00  0.00    +0.000 A 
ATOM      3  C   UNL     1      26.159   1.386  53.062  0.00  0.00    +0.000 A 
ATOM      4  C   UNL     1      25.163   1.847  52.302  0.00  0.00    +0.000 A 
ATOM      5  O   UNL     1      23.857   1.421  52.375  0.00  0.00    +0.000 OA
ATOM      6  C   UNL     1      23.495   0.486  53.321  0.00  0.00    +0.000 A 
ATOM      7  C   UNL     1      22.121   0.133  53.387  0.00  0.00    +0.000 A 
ATOM      8  C   UNL     1      21.778  -0.870  54.322  0.00  0.00    +0.000 A 
ATOM      9  C   UNL     1      22.728  -1.479  55.148  0.00  0.00    +0.000 A 
ATOM     10  C   UNL     1      24.063  -1.092  55.074  0.00  0.00    +0.000 A 
ATOM     11  C   UNL     1      24.460  -0.107  54.164  0.00  0.00    +0.000 A 
ENDROOT
BRANCH   4  12
ATOM     12  C   UNL     1      25.401   2.881  51.290  0.00  0.00    +0.000 A 
ATOM     13  C   UNL     1      26.455   2.702  50.378  0.00  0.00    +0.000 A 
ATOM     14  C   UNL     1      26.716   3.661  49.398  0.00  0.00    +0.000 A 
ATOM     15  C   UNL     1      25.927   4.808  49.314  0.00  0.00    +0.000 A 
ATOM     16  C   UNL     1      24.880   4.999  50.216  0.00  0.00    +0.000 A 
ATOM     17  C   UNL     1      24.616   4.041  51.201  0.00  0.00    +0.000 A 
ATOM     18 CL   UNL     1      23.305   4.341  52.286  0.00  0.00    +0.000 Cl
ENDBRANCH   4  12
BRANCH   7  19
ATOM     19  C   UNL     1      21.093   0.781  52.522  0.00  0.00    +0.000 A 
ATOM     20  C   UNL     1      20.430   1.954  52.853  0.00  0.00    +0.000 A 
ATOM     21  N   UNL     1      19.489   2.569  52.094  0.00  0.00    +0.000 NA
ATOM     22  C   UNL     1      19.197   1.965  50.936  0.00  0.00    +0.000 A 
ATOM     23  N   UNL     1      19.755   0.839  50.482  0.00  0.00    +0.000 NA
ATOM     24  C   UNL     1      20.693   0.285  51.287  0.00  0.00    +0.000 A 
ENDBRANCH   7  19
BRANCH   8  25
ATOM     25  O   UNL     1      20.470  -1.261  54.454  0.00  0.00    +0.000 OA
ATOM     26  H   UNL     1      19.923  -0.857  55.098  0.00  0.00    +0.000 HD
ENDBRANCH   8  25
BRANCH  10  27
ATOM     27  O   UNL     1      24.965  -1.693  55.901  0.00  0.00    +0.000 OA
ATOM     28  H   UNL     1      25.430  -2.454  55.614  0.00  0.00    +0.000 HD
ENDBRANCH  10  27
TORSDOF 4
ENDMDL
MODEL 3
REMARK VINA RESULT:    -9.161      2.691      5.341
REMARK INTER + INTRA:         -11.245
REMARK INTER:                 -10.442
REMARK INTRA:                  -0.804
REMARK UNBOUND:                -0.477
REMARK  Name = 
REMARK  4 active torsions:
REMARK  status: ('A' for Active; 'I' for Inactive)
REMARK    1  A    between atoms: C_4  and  C_5
REMARK    2  A    between atoms: C_14  and  C_15
REMARK    3  A    between atoms: C_21  and  O_22
REMARK    4  A    between atoms: C_24  and  O_25
REMARK                            x       y       z     vdW  Elec       q    Type
REMARK                         _______ _______ _______ _____ _____    ______ ____
ROOT
ATOM      1  O   UNL     1      22.485  -1.847  55.452  0.00  0.00    +0.000 OA
ATOM      2  C   UNL     1      23.082  -1.059  54.731  0.00  0.00    +0.000 A 
ATOM      3  C   UNL     1      24.552  -1.094  54.720  0.00  0.00    +0.000 A 
ATOM      4  C   UNL     1      25.212  -0.235  53.940  0.00  0.00    +0.000 A 
ATOM      5  O   UNL     1      24.620   0.700  53.123  0.00  0.00    +0.000 OA
ATOM      6  C   UNL     1      23.247   0.828  53.114  0.00  0.00    +0.000 A 
ATOM      7  C   UNL     1      22.701   1.854  52.297  0.00  0.00    +0.000 A 
ATOM      8  C   UNL     1      21.290   1.932  52.255  0.00  0.00    +0.000 A 
ATOM      9  C   UNL     1      20.470   1.062  52.979  0.00  0.00    +0.000 A 
ATOM     10  C   UNL     1      21.041   0.084  53.789  0.00  0.00    +0.000 A 
ATOM     11  C   UNL     1      22.431  -0.042  53.867  0.00  0.00    +0.000 A 
ENDROOT
BRANCH   4  12
ATOM     12  C   UNL     1      26.678  -0.230  53.893  0.00  0.00    +0.000 A 
ATOM     13  C   UNL     1      27.374   0.715  54.666  0.00  0.00    +0.000 A 
ATOM     14  C   UNL     1      28.769   0.754  54.652  0.00  0.00    +0.000 A 
ATOM     15  C   UNL     1      29.486  -0.151  53.869  0.00  0.00    +0.000 A 
ATOM     16  C   UNL     1      28.807  -1.091  53.095  0.00  0.00    +0.000 A 
ATOM     17  C   UNL     1      27.408  -1.133  53.105  0.00  0.00    +0.000 A 
ATOM     18 CL   UNL     1      26.630  -2.321  52.121  0.00  0.00    +0.000 Cl
ENDBRANCH   4  12
BRANCH   7  19
ATOM     19  C   UNL     1      23.561   2.797  51.527  0.00  0.00    +0.000 A 
ATOM     20  C   UNL     1      24.152   2.489  50.310  0.00  0.00    +0.000 A 
ATOM     21  N   UNL     1      24.940   3.321  49.584  0.00  0.00    +0.000 NA
ATOM     22  C   UNL     1      25.149   4.530  50.117  0.00  0.00    +0.000 A 
ATOM     23  N   UNL     1      24.644   4.969  51.274  0.00  0.00    +0.000 NA
ATOM     24  C   UNL     1      23.858   4.090  51.940  0.00  0.00    +0.000 A 
ENDBRANCH   7  19
BRANCH   8  25
ATOM     25  O   UNL     1      20.683   2.900  51.496  0.00  0.00    +0.000 OA
ATOM     26  H   UNL     1      20.648   2.811  50.564  0.00  0.00    +0.000 HD
ENDBRANCH   8  25
BRANCH  10  27
ATOM     27  O   UNL     1      20.217  -0.742  54.497  0.00  0.00    +0.000 OA
ATOM     28  H   UNL     1      20.286  -0.786  55.430  0.00  0.00    +0.000 HD
ENDBRANCH  10  27
TORSDOF 4
ENDMDL
MODEL 4
REMARK VINA RESULT:    -8.969      3.396      5.573
REMARK INTER + INTRA:         -11.019
REMARK INTER:                 -10.186
REMARK INTRA:                  -0.833
REMARK UNBOUND:                -0.477
REMARK  Name = 
REMARK  4 active torsions:
REMARK  status: ('A' for Active; 'I' for Inactive)
REMARK    1  A    between atoms: C_4  and  C_5
REMARK    2  A    between atoms: C_14  and  C_15
REMARK    3  A    between atoms: C_21  and  O_22
REMARK    4  A    between atoms: C_24  and  O_25
REMARK                            x       y       z     vdW  Elec       q    Type
REMARK                         _______ _______ _______ _____ _____    ______ ____
ROOT
ATOM      1  O   UNL     1      21.229  -1.660  55.119  0.00  0.00    +0.000 OA
ATOM      2  C   UNL     1      21.656  -1.010  54.175  0.00  0.00    +0.000 A 
ATOM      3  C   UNL     1      23.095  -0.715  54.122  0.00  0.00    +0.000 A 
ATOM      4  C   UNL     1      23.570  -0.002  53.097  0.00  0.00    +0.000 A 
ATOM      5  O   UNL     1      22.811   0.488  52.061  0.00  0.00    +0.000 OA
ATOM      6  C   UNL     1      21.445   0.295  52.064  0.00  0.00    +0.000 A 
ATOM      7  C   UNL     1      20.710   0.878  50.998  0.00  0.00    +0.000 A 
ATOM      8  C   UNL     1      19.319   0.620  50.985  0.00  0.00    +0.000 A 
ATOM      9  C   UNL     1      18.693  -0.156  51.966  0.00  0.00    +0.000 A 
ATOM     10  C   UNL     1      19.442  -0.692  53.010  0.00  0.00    +0.000 A 
ATOM     11  C   UNL     1      20.822  -0.472  53.071  0.00  0.00    +0.000 A 
ENDROOT
BRANCH   4  12
ATOM     12  C   UNL     1      24.998   0.320  52.999  0.00  0.00    +0.000 A 
ATOM     13  C   UNL     1      25.917  -0.732  52.843  0.00  0.00    +0.000 A 
ATOM     14  C   UNL     1      27.284  -0.470  52.744  0.00  0.00    +0.000 A 
ATOM     15  C   UNL     1      27.751   0.843  52.796  0.00  0.00    +0.000 A 
ATOM     16  C   UNL     1      26.850   1.895  52.955  0.00  0.00    +0.000 A 
ATOM     17  C   UNL     1      25.478   1.638  53.056  0.00  0.00    +0.000 A 
ATOM     18 CL   UNL     1      24.416   2.987  53.252  0.00  0.00    +0.000 Cl
ENDBRANCH   4  12
BRANCH   7  19
ATOM     19  C   UNL     1      21.359   1.717  49.951  0.00  0.00    +0.000 A 
ATOM     20  C   UNL     1      21.643   3.067  50.105  0.00  0.00    +0.000 A 
ATOM     21  N   UNL     1      22.230   3.860  49.174  0.00  0.00    +0.000 NA
ATOM     22  C   UNL     1      22.544   3.260  48.020  0.00  0.00    +0.000 A 
ATOM     23  N   UNL     1      22.338   1.972  47.730  0.00  0.00    +0.000 NA
ATOM     24  C   UNL     1      21.757   1.237  48.708  0.00  0.00    +0.000 A 
ENDBRANCH   7  19
BRANCH   8  25
ATOM     25  O   UNL     1      18.536   1.154  49.994  0.00  0.00    +0.000 OA
ATOM     26  H   UNL     1      18.839   1.158  49.109  0.00  0.00    +0.000 HD
ENDBRANCH   8  25
BRANCH  10  27
ATOM     27  O   UNL     1      18.803  -1.432  53.960  0.00  0.00    +0.000 OA
ATOM     28  H   UNL     1      19.290  -1.811  54.665  0.00  0.00    +0.000 HD
ENDBRANCH  10  27
TORSDOF 4
ENDMDL
MODEL 5
REMARK VINA RESULT:    -8.535      1.525      2.153
REMARK INTER + INTRA:         -10.509
REMARK INTER:                 -10.385
REMARK INTRA:                  -0.124
REMARK UNBOUND:                -0.477
REMARK  Name = 
REMARK  4 active torsions:
REMARK  status: ('A' for Active; 'I' for Inactive)
REMARK    1  A    between atoms: C_4  and  C_5
REMARK    2  A    between atoms: C_14  and  C_15
REMARK    3  A    between atoms: C_21  and  O_22
REMARK    4  A    between atoms: C_24  and  O_25
REMARK                            x       y       z     vdW  Elec       q    Type
REMARK                         _______ _______ _______ _____ _____    ______ ____
ROOT
ATOM      1  O   UNL     1      21.060   2.353  49.816  0.00  0.00    +0.000 OA
ATOM      2  C   UNL     1      22.210   2.387  50.232  0.00  0.00    +0.000 A 
ATOM      3  C   UNL     1      23.151   3.332  49.613  0.00  0.00    +0.000 A 
ATOM      4  C   UNL     1      24.410   3.373  50.057  0.00  0.00    +0.000 A 
ATOM      5  O   UNL     1      24.912   2.591  51.071  0.00  0.00    +0.000 OA
ATOM      6  C   UNL     1      24.104   1.647  51.669  0.00  0.00    +0.000 A 
ATOM      7  C   UNL     1      24.699   0.829  52.666  0.00  0.00    +0.000 A 
ATOM      8  C   UNL     1      23.842  -0.093  53.310  0.00  0.00    +0.000 A 
ATOM      9  C   UNL     1      22.487  -0.209  52.983  0.00  0.00    +0.000 A 
ATOM     10  C   UNL     1      21.943   0.592  51.983  0.00  0.00    +0.000 A 
ATOM     11  C   UNL     1      22.744   1.525  51.316  0.00  0.00    +0.000 A 
ENDROOT
BRANCH   4  12
ATOM     12  C   UNL     1      25.387   4.298  49.473  0.00  0.00    +0.000 A 
ATOM     13  C   UNL     1      26.709   3.858  49.296  0.00  0.00    +0.000 A 
ATOM     14  C   UNL     1      27.671   4.705  48.742  0.00  0.00    +0.000 A 
ATOM     15  C   UNL     1      27.323   6.000  48.357  0.00  0.00    +0.000 A 
ATOM     16  C   UNL     1      26.015   6.450  48.532  0.00  0.00    +0.000 A 
ATOM     17  C   UNL     1      25.048   5.604  49.087  0.00  0.00    +0.000 A 
ATOM     18 CL   UNL     1      23.447   6.225  49.277  0.00  0.00    +0.000 Cl
ENDBRANCH   4  12
BRANCH   7  19
ATOM     19  C   UNL     1      26.145   0.931  53.019  0.00  0.00    +0.000 A 
ATOM     20  C   UNL     1      26.710   2.022  53.663  0.00  0.00    +0.000 A 
ATOM     21  N   UNL     1      28.018   2.150  53.996  0.00  0.00    +0.000 NA
ATOM     22  C   UNL     1      28.803   1.121  53.656  0.00  0.00    +0.000 A 
ATOM     23  N   UNL     1      28.402   0.005  53.040  0.00  0.00    +0.000 NA
ATOM     24  C   UNL     1      27.081  -0.059  52.746  0.00  0.00    +0.000 A 
ENDBRANCH   7  19
BRANCH   8  25
ATOM     25  O   UNL     1      24.340  -0.927  54.279  0.00  0.00    +0.000 OA
ATOM     26  H   UNL     1      23.908  -0.992  55.107  0.00  0.00    +0.000 HD
ENDBRANCH   8  25
BRANCH  10  27
ATOM     27  O   UNL     1      20.623   0.448  51.676  0.00  0.00    +0.000 OA
ATOM     28  H   UNL     1      20.239  -0.406  51.644  0.00  0.00    +0.000 HD
ENDBRANCH  10  27
TORSDOF 4
ENDMDL
MODEL 6
REMARK VINA RESULT:    -8.444      3.415      6.679
REMARK INTER + INTRA:         -10.402
REMARK INTER:                  -9.833
REMARK INTRA:                  -0.569
REMARK UNBOUND:                -0.477
REMARK  Name = 
REMARK  4 active torsions:
REMARK  status: ('A' for Active; 'I' for Inactive)
REMARK    1  A    between atoms: C_4  and  C_5
REMARK    2  A    between atoms: C_14  and  C_15
REMARK    3  A    between atoms: C_21  and  O_22
REMARK    4  A    between atoms: C_24  and  O_25
REMARK                            x       y       z     vdW  Elec       q    Type
REMARK                         _______ _______ _______ _____ _____    ______ ____
ROOT
ATOM      1  O   UNL     1      25.684  -1.080  53.941  0.00  0.00    +0.000 OA
ATOM      2  C   UNL     1      24.962  -0.313  53.318  0.00  0.00    +0.000 A 
ATOM      3  C   UNL     1      23.517  -0.585  53.283  0.00  0.00    +0.000 A 
ATOM      4  C   UNL     1      22.722   0.244  52.601  0.00  0.00    +0.000 A 
ATOM      5  O   UNL     1      23.149   1.358  51.917  0.00  0.00    +0.000 OA
ATOM      6  C   UNL     1      24.494   1.653  51.863  0.00  0.00    +0.000 A 
ATOM      7  C   UNL     1      24.877   2.781  51.089  0.00  0.00    +0.000 A 
ATOM      8  C   UNL     1      26.253   3.103  51.093  0.00  0.00    +0.000 A 
ATOM      9  C   UNL     1      27.195   2.354  51.806  0.00  0.00    +0.000 A 
ATOM     10  C   UNL     1      26.788   1.240  52.534  0.00  0.00    +0.000 A 
ATOM     11  C   UNL     1      25.438   0.877  52.569  0.00  0.00    +0.000 A 
ENDROOT
BRANCH   4  12
ATOM     12  C   UNL     1      21.275   0.017  52.535  0.00  0.00    +0.000 A 
ATOM     13  C   UNL     1      20.620  -0.497  53.667  0.00  0.00    +0.000 A 
ATOM     14  C   UNL     1      19.243  -0.727  53.647  0.00  0.00    +0.000 A 
ATOM     15  C   UNL     1      18.504  -0.445  52.499  0.00  0.00    +0.000 A 
ATOM     16  C   UNL     1      19.142   0.061  51.367  0.00  0.00    +0.000 A 
ATOM     17  C   UNL     1      20.522   0.292  51.382  0.00  0.00    +0.000 A 
ATOM     18 CL   UNL     1      21.251   0.918  49.945  0.00  0.00    +0.000 Cl
ENDBRANCH   4  12
BRANCH   7  19
ATOM     19  C   UNL     1      23.887   3.584  50.314  0.00  0.00    +0.000 A 
ATOM     20  C   UNL     1      23.169   4.647  50.841  0.00  0.00    +0.000 A 
ATOM     21  N   UNL     1      22.262   5.396  50.167  0.00  0.00    +0.000 NA
ATOM     22  C   UNL     1      22.062   5.051  48.890  0.00  0.00    +0.000 A 
ATOM     23  N   UNL     1      22.682   4.057  48.246  0.00  0.00    +0.000 NA
ATOM     24  C   UNL     1      23.582   3.358  48.977  0.00  0.00    +0.000 A 
ENDBRANCH   7  19
BRANCH   8  25
ATOM     25  O   UNL     1      26.706   4.173  50.364  0.00  0.00    +0.000 OA
ATOM     26  H   UNL     1      27.624   4.287  50.220  0.00  0.00    +0.000 HD
ENDBRANCH   8  25
BRANCH  10  27
ATOM     27  O   UNL     1      27.729   0.519  53.208  0.00  0.00    +0.000 OA
ATOM     28  H   UNL     1      28.574   0.889  53.373  0.00  0.00    +0.000 HD
ENDBRANCH  10  27
TORSDOF 4
ENDMDL
MODEL 7
REMARK VINA RESULT:    -8.262      3.328      5.206
REMARK INTER + INTRA:         -10.188
REMARK INTER:                  -9.400
REMARK INTRA:                  -0.788
REMARK UNBOUND:                -0.477
REMARK  Name = 
REMARK  4 active torsions:
REMARK  status: ('A' for Active; 'I' for Inactive)
REMARK    1  A    between atoms: C_4  and  C_5
REMARK    2  A    between atoms: C_14  and  C_15
REMARK    3  A    between atoms: C_21  and  O_22
REMARK    4  A    between atoms: C_24  and  O_25
REMARK                            x       y       z     vdW  Elec       q    Type
REMARK                         _______ _______ _______ _____ _____    ______ ____
ROOT
ATOM      1  O   UNL     1      26.636   0.909  53.341  0.00  0.00    +0.000 OA
ATOM      2  C   UNL     1      25.871   1.424  52.537  0.00  0.00    +0.000 A 
ATOM      3  C   UNL     1      26.358   2.554  51.732  0.00  0.00    +0.000 A 
ATOM      4  C   UNL     1      25.529   3.126  50.856  0.00  0.00    +0.000 A 
ATOM      5  O   UNL     1      24.229   2.735  50.632  0.00  0.00    +0.000 OA
ATOM      6  C   UNL     1      23.684   1.714  51.381  0.00  0.00    +0.000 A 
ATOM      7  C   UNL     1      22.320   1.399  51.146  0.00  0.00    +0.000 A 
ATOM      8  C   UNL     1      21.795   0.311  51.881  0.00  0.00    +0.000 A 
ATOM      9  C   UNL     1      22.564  -0.414  52.796  0.00  0.00    +0.000 A 
ATOM     10  C   UNL     1      23.892  -0.062  53.019  0.00  0.00    +0.000 A 
ATOM     11  C   UNL     1      24.465   1.003  52.318  0.00  0.00    +0.000 A 
ENDROOT
BRANCH   4  12
ATOM     12  C   UNL     1      25.966   4.257  50.030  0.00  0.00    +0.000 A 
ATOM     13  C   UNL     1      27.130   4.116  49.256  0.00  0.00    +0.000 A 
ATOM     14  C   UNL     1      27.580   5.167  48.455  0.00  0.00    +0.000 A 
ATOM     15  C   UNL     1      26.873   6.369  48.415  0.00  0.00    +0.000 A 
ATOM     16  C   UNL     1      25.719   6.522  49.182  0.00  0.00    +0.000 A 
ATOM     17  C   UNL     1      25.264   5.472  49.987  0.00  0.00    +0.000 A 
ATOM     18 CL   UNL     1      23.828   5.729  50.913  0.00  0.00    +0.000 Cl
ENDBRANCH   4  12
BRANCH   7  19
ATOM     19  C   UNL     1      21.482   2.169  50.182  0.00  0.00    +0.000 A 
ATOM     20  C   UNL     1      21.309   1.816  48.852  0.00  0.00    +0.000 A 
ATOM     21  N   UNL     1      20.558   2.493  47.948  0.00  0.00    +0.000 NA
ATOM     22  C   UNL     1      19.951   3.592  48.409  0.00  0.00    +0.000 A 
ATOM     23  N   UNL     1      20.019   4.052  49.662  0.00  0.00    +0.000 NA
ATOM     24  C   UNL     1      20.778   3.321  50.513  0.00  0.00    +0.000 A 
ENDBRANCH   7  19
BRANCH   8  25
ATOM     25  O   UNL     1      20.482  -0.052  51.718  0.00  0.00    +0.000 OA
ATOM     26  H   UNL     1      19.961  -0.273  52.465  0.00  0.00    +0.000 HD
ENDBRANCH   8  25
BRANCH  10  27
ATOM     27  O   UNL     1      24.614  -0.777  53.928  0.00  0.00    +0.000 OA
ATOM     28  H   UNL     1      24.834  -1.671  53.754  0.00  0.00    +0.000 HD
ENDBRANCH  10  27
TORSDOF 4
ENDMDL
MODEL 8
REMARK VINA RESULT:    -8.103      3.075      4.789
REMARK INTER + INTRA:         -10.002
REMARK INTER:                  -9.612
REMARK INTRA:                  -0.390
REMARK UNBOUND:                -0.477
REMARK  Name = 
REMARK  4 active torsions:
REMARK  status: ('A' for Active; 'I' for Inactive)
REMARK    1  A    between atoms: C_4  and  C_5
REMARK    2  A    between atoms: C_14  and  C_15
REMARK    3  A    between atoms: C_21  and  O_22
REMARK    4  A    between atoms: C_24  and  O_25
REMARK                            x       y       z     vdW  Elec       q    Type
REMARK                         _______ _______ _______ _____ _____    ______ ____
ROOT
ATOM      1  O   UNL     1      27.940   1.367  52.677  0.00  0.00    +0.000 OA
ATOM      2  C   UNL     1      26.780   1.546  52.332  0.00  0.00    +0.000 A 
ATOM      3  C   UNL     1      26.494   2.614  51.363  0.00  0.00    +0.000 A 
ATOM      4  C   UNL     1      25.230   2.820  50.985  0.00  0.00    +0.000 A 
ATOM      5  O   UNL     1      24.148   2.098  51.431  0.00  0.00    +0.000 OA
ATOM      6  C   UNL     1      24.328   1.111  52.377  0.00  0.00    +0.000 A 
ATOM      7  C   UNL     1      23.164   0.444  52.842  0.00  0.00    +0.000 A 
ATOM      8  C   UNL     1      23.373  -0.604  53.768  0.00  0.00    +0.000 A 
ATOM      9  C   UNL     1      24.649  -0.965  54.213  0.00  0.00    +0.000 A 
ATOM     10  C   UNL     1      25.766  -0.273  53.754  0.00  0.00    +0.000 A 
ATOM     11  C   UNL     1      25.618   0.770  52.835  0.00  0.00    +0.000 A 
ENDROOT
BRANCH   4  12
ATOM     12  C   UNL     1      24.893   3.873  50.021  0.00  0.00    +0.000 A 
ATOM     13  C   UNL     1      25.738   4.990  49.919  0.00  0.00    +0.000 A 
ATOM     14  C   UNL     1      25.455   6.015  49.015  0.00  0.00    +0.000 A 
ATOM     15  C   UNL     1      24.326   5.935  48.199  0.00  0.00    +0.000 A 
ATOM     16  C   UNL     1      23.476   4.833  48.293  0.00  0.00    +0.000 A 
ATOM     17  C   UNL     1      23.756   3.805  49.200  0.00  0.00    +0.000 A 
ATOM     18 CL   UNL     1      22.662   2.469  49.267  0.00  0.00    +0.000 Cl
ENDBRANCH   4  12
BRANCH   7  19
ATOM     19  C   UNL     1      21.796   0.824  52.386  0.00  0.00    +0.000 A 
ATOM     20  C   UNL     1      21.074   0.121  51.432  0.00  0.00    +0.000 A 
ATOM     21  N   UNL     1      19.831   0.438  50.992  0.00  0.00    +0.000 NA
ATOM     22  C   UNL     1      19.285   1.529  51.542  0.00  0.00    +0.000 A 
ATOM     23  N   UNL     1      19.855   2.301  52.473  0.00  0.00    +0.000 NA
ATOM     24  C   UNL     1      21.092   1.919  52.872  0.00  0.00    +0.000 A 
ENDBRANCH   7  19
BRANCH   8  25
ATOM     25  O   UNL     1      22.300  -1.293  54.273  0.00  0.00    +0.000 OA
ATOM     26  H   UNL     1      22.438  -2.061  54.790  0.00  0.00    +0.000 HD
ENDBRANCH   8  25
BRANCH  10  27
ATOM     27  O   UNL     1      26.996  -0.637  54.217  0.00  0.00    +0.000 OA
ATOM     28  H   UNL     1      27.741  -0.097  54.042  0.00  0.00    +0.000 HD
ENDBRANCH  10  27
TORSDOF 4
ENDMDL
MODEL 9
REMARK VINA RESULT:    -7.983      3.769      7.379
REMARK INTER + INTRA:          -9.860
REMARK INTER:                  -9.446
REMARK INTRA:                  -0.414
REMARK UNBOUND:                -0.477
REMARK  Name = 
REMARK  4 active torsions:
REMARK  status: ('A' for Active; 'I' for Inactive)
REMARK    1  A    between atoms: C_4  and  C_5
REMARK    2  A    between atoms: C_14  and  C_15
REMARK    3  A    between atoms: C_21  and  O_22
REMARK    4  A    between atoms: C_24  and  O_25
REMARK                            x       y       z     vdW  Elec       q    Type
REMARK                         _______ _______ _______ _____ _____    ______ ____
ROOT
ATOM      1  O   UNL     1      27.250   1.809  51.745  0.00  0.00    +0.000 OA
ATOM      2  C   UNL     1      26.029   1.877  51.705  0.00  0.00    +0.000 A 
ATOM      3  C   UNL     1      25.248   0.921  52.504  0.00  0.00    +0.000 A 
ATOM      4  C   UNL     1      23.915   0.984  52.462  0.00  0.00    +0.000 A 
ATOM      5  O   UNL     1      23.193   1.891  51.723  0.00  0.00    +0.000 OA
ATOM      6  C   UNL     1      23.852   2.790  50.911  0.00  0.00    +0.000 A 
ATOM      7  C   UNL     1      23.049   3.659  50.126  0.00  0.00    +0.000 A 
ATOM      8  C   UNL     1      23.741   4.612  49.345  0.00  0.00    +0.000 A 
ATOM      9  C   UNL     1      25.137   4.697  49.331  0.00  0.00    +0.000 A 
ATOM     10  C   UNL     1      25.893   3.812  50.094  0.00  0.00    +0.000 A 
ATOM     11  C   UNL     1      25.261   2.851  50.889  0.00  0.00    +0.000 A 
ENDROOT
BRANCH   4  12
ATOM     12  C   UNL     1      23.090   0.052  53.240  0.00  0.00    +0.000 A 
ATOM     13  C   UNL     1      23.615  -0.481  54.429  0.00  0.00    +0.000 A 
ATOM     14  C   UNL     1      22.864  -1.370  55.200  0.00  0.00    +0.000 A 
ATOM     15  C   UNL     1      21.580  -1.735  54.795  0.00  0.00    +0.000 A 
ATOM     16  C   UNL     1      21.050  -1.216  53.614  0.00  0.00    +0.000 A 
ATOM     17  C   UNL     1      21.800  -0.326  52.838  0.00  0.00    +0.000 A 
ATOM     18 CL   UNL     1      21.084   0.279  51.385  0.00  0.00    +0.000 Cl
ENDBRANCH   4  12
BRANCH   7  19
ATOM     19  C   UNL     1      21.560   3.575  50.121  0.00  0.00    +0.000 A 
ATOM     20  C   UNL     1      20.825   2.896  49.159  0.00  0.00    +0.000 A 
ATOM     21  N   UNL     1      19.473   2.801  49.121  0.00  0.00    +0.000 NA
ATOM     22  C   UNL     1      18.823   3.431  50.106  0.00  0.00    +0.000 A 
ATOM     23  N   UNL     1      19.392   4.119  51.101  0.00  0.00    +0.000 NA
ATOM     24  C   UNL     1      20.746   4.163  51.081  0.00  0.00    +0.000 A 
ENDBRANCH   7  19
BRANCH   8  25
ATOM     25  O   UNL     1      23.039   5.483  48.551  0.00  0.00    +0.000 OA
ATOM     26  H   UNL     1      22.398   5.157  47.951  0.00  0.00    +0.000 HD
ENDBRANCH   8  25
BRANCH  10  27
ATOM     27  O   UNL     1      27.253   3.908  50.050  0.00  0.00    +0.000 OA
ATOM     28  H   UNL     1      27.783   3.196  50.349  0.00  0.00    +0.000 HD
ENDBRANCH  10  27
TORSDOF 4
ENDMDL
