MODEL 1
REMARK VINA RESULT:    -7.293      0.000      0.000
REMARK INTER + INTRA:         -16.109
REMARK INTER:                 -13.263
REMARK INTRA:                  -2.846
REMARK UNBOUND:                -2.846
REMARK  Name = 
REMARK  17 active torsions:
REMARK  status: ('A' for Active; 'I' for Inactive)
REMARK    1  A    between atoms: C_1  and  O_2
REMARK    2  A    between atoms: O_2  and  C_3
REMARK    3  A    between atoms: C_3  and  C_5
REMARK    4  A    between atoms: C_5  and  C_6
REMARK    5  A    between atoms: C_6  and  C_7
REMARK    6  A    between atoms: C_8  and  C_9
REMARK    7  A    between atoms: C_9  and  C_10
REMARK    8  A    between atoms: C_10  and  C_11
REMARK    9  A    between atoms: C_15  and  O_16
REMARK   10  A    between atoms: C_17  and  C_18
REMARK   11  A    between atoms: C_19  and  C_20
REMARK   12  A    between atoms: C_20  and  C_21
REMARK   13  A    between atoms: C_21  and  C_22
REMARK   14  A    between atoms: C_21  and  O_23
REMARK   15  A    between atoms: C_21  and  C_24
REMARK   16  A    between atoms: C_24  and  C_25
REMARK   17  A    between atoms: C_25  and  C_26
REMARK                            x       y       z     vdW  Elec       q    Type
REMARK                         _______ _______ _______ _____ _____    ______ ____
ROOT
ATOM      1  C   UNL     1      25.779   0.600  52.115  0.00  0.00    +0.000 C 
ATOM      2  C   UNL     1      26.572  -0.592  52.610  0.00  0.00    +0.000 C 
ATOM      3  O   UNL     1      26.860  -1.558  51.912  0.00  0.00    +0.000 OA
ATOM      4  C   UNL     1      27.025  -0.445  54.042  0.00  0.00    +0.000 C 
ATOM      5  C   UNL     1      26.401   0.885  54.456  0.00  0.00    +0.000 C 
ATOM      6  C   UNL     1      25.239   1.126  53.473  0.00  0.00    +0.000 C 
ENDROOT
BRANCH   5   7
ATOM      7  O   UNL     1      27.348   1.946  54.339  0.00  0.00    +0.000 OA
ATOM      8  H   UNL     1      28.158   1.710  54.816  0.00  0.00    +0.000 HD
ENDBRANCH   5   7
BRANCH   6   9
ATOM      9  C   UNL     1      23.925   0.453  53.907  0.00  0.00    +0.000 C 
ATOM     10  C   UNL     1      23.159  -0.404  53.200  0.00  0.00    +0.000 C 
BRANCH  10  11
ATOM     11  C   UNL     1      21.910  -1.077  53.723  0.00  0.00    +0.000 C 
BRANCH  11  12
ATOM     12  C   UNL     1      20.601  -0.212  53.738  0.00  0.00    +0.000 C 
ATOM     13  C   UNL     1      19.423  -1.168  53.473  0.00  0.00    +0.000 C 
BRANCH  12  14
ATOM     14  O   UNL     1      20.425   0.329  55.057  0.00  0.00    +0.000 OA
ATOM     15  H   UNL     1      21.130   0.969  55.240  0.00  0.00    +0.000 HD
ENDBRANCH  12  14
BRANCH  12  16
ATOM     16  C   UNL     1      20.602   0.988  52.734  0.00  0.00    +0.000 C 
BRANCH  16  17
ATOM     17  C   UNL     1      20.400   0.561  51.257  0.00  0.00    +0.000 C 
BRANCH  17  18
ATOM     18  C   UNL     1      21.587   0.767  50.288  0.00  0.00    +0.000 C 
ATOM     19  C   UNL     1      22.520   1.926  50.644  0.00  0.00    +0.000 C 
ATOM     20  C   UNL     1      22.953   2.584  49.332  0.00  0.00    +0.000 C 
ATOM     21  C   UNL     1      22.180   1.908  48.211  0.00  0.00    +0.000 C 
ATOM     22  C   UNL     1      21.071   1.118  48.884  0.00  0.00    +0.000 C 
ENDBRANCH  17  18
ENDBRANCH  16  17
ENDBRANCH  12  16
ENDBRANCH  11  12
ENDBRANCH  10  11
ENDBRANCH   6   9
BRANCH   1  23
ATOM     23  C   UNL     1      26.790   1.488  51.349  0.00  0.00    +0.000 C 
BRANCH  23  24
ATOM     24  C   UNL     1      26.312   2.907  51.017  0.00  0.00    +0.000 C 
BRANCH  24  26
ATOM     25  C   UNL     1      26.507   4.469  48.984  0.00  0.00    +0.000 C 
ATOM     26  C   UNL     1      26.643   3.273  49.588  0.00  0.00    +0.000 C 
BRANCH  25  27
ATOM     27  C   UNL     1      25.993   5.738  49.617  0.00  0.00    +0.000 C 
BRANCH  27  28
ATOM     28  C   UNL     1      24.471   5.873  49.514  0.00  0.00    +0.000 C 
BRANCH  28  29
ATOM     29  C   UNL     1      23.900   6.469  50.777  0.00  0.00    +0.000 C 
ATOM     30  O   UNL     1      23.957   7.650  51.088  0.00  0.00    +0.000 OA
BRANCH  29  32
ATOM     31  C   UNL     1      21.867   5.549  51.485  0.00  0.00    +0.000 C 
ATOM     32  O   UNL     1      23.295   5.497  51.518  0.00  0.00    +0.000 OA
ENDBRANCH  29  32
ENDBRANCH  28  29
ENDBRANCH  27  28
ENDBRANCH  25  27
ENDBRANCH  24  26
ENDBRANCH  23  24
ENDBRANCH   1  23
TORSDOF 15
ENDMDL
MODEL 2
REMARK VINA RESULT:    -7.249      2.116      5.902
REMARK INTER + INTRA:         -16.028
REMARK INTER:                 -13.196
REMARK INTRA:                  -2.831
REMARK UNBOUND:                -2.846
REMARK  Name = 
REMARK  17 active torsions:
REMARK  status: ('A' for Active; 'I' for Inactive)
REMARK    1  A    between atoms: C_1  and  O_2
REMARK    2  A    between atoms: O_2  and  C_3
REMARK    3  A    between atoms: C_3  and  C_5
REMARK    4  A    between atoms: C_5  and  C_6
REMARK    5  A    between atoms: C_6  and  C_7
REMARK    6  A    between atoms: C_8  and  C_9
REMARK    7  A    between atoms: C_9  and  C_10
REMARK    8  A    between atoms: C_10  and  C_11
REMARK    9  A    between atoms: C_15  and  O_16
REMARK   10  A    between atoms: C_17  and  C_18
REMARK   11  A    between atoms: C_19  and  C_20
REMARK   12  A    between atoms: C_20  and  C_21
REMARK   13  A    between atoms: C_21  and  C_22
REMARK   14  A    between atoms: C_21  and  O_23
REMARK   15  A    between atoms: C_21  and  C_24
REMARK   16  A    between atoms: C_24  and  C_25
REMARK   17  A    between atoms: C_25  and  C_26
REMARK                            x       y       z     vdW  Elec       q    Type
REMARK                         _______ _______ _______ _____ _____    ______ ____
ROOT
ATOM      1  C   UNL     1      24.587   2.559  51.288  0.00  0.00    +0.000 C 
ATOM      2  C   UNL     1      24.067   3.699  52.138  0.00  0.00    +0.000 C 
ATOM      3  O   UNL     1      23.594   3.554  53.260  0.00  0.00    +0.000 OA
ATOM      4  C   UNL     1      24.243   5.049  51.486  0.00  0.00    +0.000 C 
ATOM      5  C   UNL     1      24.838   4.689  50.127  0.00  0.00    +0.000 C 
ATOM      6  C   UNL     1      24.465   3.213  49.884  0.00  0.00    +0.000 C 
ENDROOT
BRANCH   5   7
ATOM      7  O   UNL     1      26.259   4.821  50.146  0.00  0.00    +0.000 OA
ATOM      8  H   UNL     1      26.656   4.131  49.593  0.00  0.00    +0.000 HD
ENDBRANCH   5   7
BRANCH   6   9
ATOM      9  C   UNL     1      23.076   3.033  49.248  0.00  0.00    +0.000 C 
ATOM     10  C   UNL     1      22.370   1.892  49.106  0.00  0.00    +0.000 C 
BRANCH  10  11
ATOM     11  C   UNL     1      20.977   1.806  48.525  0.00  0.00    +0.000 C 
BRANCH  11  12
ATOM     12  C   UNL     1      19.786   1.886  49.544  0.00  0.00    +0.000 C 
ATOM     13  C   UNL     1      19.757   3.324  50.094  0.00  0.00    +0.000 C 
BRANCH  12  14
ATOM     14  O   UNL     1      18.558   1.676  48.829  0.00  0.00    +0.000 OA
ATOM     15  H   UNL     1      18.305   2.495  48.374  0.00  0.00    +0.000 HD
ENDBRANCH  12  14
BRANCH  12  16
ATOM     16  C   UNL     1      19.844   0.831  50.697  0.00  0.00    +0.000 C 
BRANCH  16  17
ATOM     17  C   UNL     1      20.040   1.458  52.102  0.00  0.00    +0.000 C 
BRANCH  17  18
ATOM     18  C   UNL     1      21.204   0.919  52.966  0.00  0.00    +0.000 C 
ATOM     19  C   UNL     1      21.934  -0.294  52.384  0.00  0.00    +0.000 C 
ATOM     20  C   UNL     1      22.291  -1.216  53.552  0.00  0.00    +0.000 C 
ATOM     21  C   UNL     1      21.662  -0.624  54.803  0.00  0.00    +0.000 C 
ATOM     22  C   UNL     1      20.675   0.424  54.321  0.00  0.00    +0.000 C 
ENDBRANCH  17  18
ENDBRANCH  16  17
ENDBRANCH  12  16
ENDBRANCH  11  12
ENDBRANCH  10  11
ENDBRANCH   6   9
BRANCH   1  23
ATOM     23  C   UNL     1      26.009   2.252  51.819  0.00  0.00    +0.000 C 
BRANCH  23  24
ATOM     24  C   UNL     1      26.486   0.805  51.650  0.00  0.00    +0.000 C 
BRANCH  24  26
ATOM     25  C   UNL     1      25.827  -0.245  53.903  0.00  0.00    +0.000 C 
ATOM     26  C   UNL     1      25.728  -0.129  52.565  0.00  0.00    +0.000 C 
BRANCH  25  27
ATOM     27  C   UNL     1      26.729   0.559  54.805  0.00  0.00    +0.000 C 
BRANCH  27  28
ATOM     28  C   UNL     1      28.158   0.009  54.849  0.00  0.00    +0.000 C 
BRANCH  28  29
ATOM     29  C   UNL     1      29.102   0.912  54.093  0.00  0.00    +0.000 C 
ATOM     30  O   UNL     1      28.998   2.127  54.005  0.00  0.00    +0.000 OA
BRANCH  29  32
ATOM     31  C   UNL     1      29.776  -1.207  53.362  0.00  0.00    +0.000 C 
ATOM     32  O   UNL     1      30.102   0.174  53.532  0.00  0.00    +0.000 OA
ENDBRANCH  29  32
ENDBRANCH  28  29
ENDBRANCH  27  28
ENDBRANCH  25  27
ENDBRANCH  24  26
ENDBRANCH  23  24
ENDBRANCH   1  23
TORSDOF 15
ENDMDL
MODEL 3
REMARK VINA RESULT:    -7.007      2.574      5.665
REMARK INTER + INTRA:         -15.588
REMARK INTER:                 -13.601
REMARK INTRA:                  -1.987
REMARK UNBOUND:                -2.846
REMARK  Name = 
REMARK  17 active torsions:
REMARK  status: ('A' for Active; 'I' for Inactive)
REMARK    1  A    between atoms: C_1  and  O_2
REMARK    2  A    between atoms: O_2  and  C_3
REMARK    3  A    between atoms: C_3  and  C_5
REMARK    4  A    between atoms: C_5  and  C_6
REMARK    5  A    between atoms: C_6  and  C_7
REMARK    6  A    between atoms: C_8  and  C_9
REMARK    7  A    between atoms: C_9  and  C_10
REMARK    8  A    between atoms: C_10  and  C_11
REMARK    9  A    between atoms: C_15  and  O_16
REMARK   10  A    between atoms: C_17  and  C_18
REMARK   11  A    between atoms: C_19  and  C_20
REMARK   12  A    between atoms: C_20  and  C_21
REMARK   13  A    between atoms: C_21  and  C_22
REMARK   14  A    between atoms: C_21  and  O_23
REMARK   15  A    between atoms: C_21  and  C_24
REMARK   16  A    between atoms: C_24  and  C_25
REMARK   17  A    between atoms: C_25  and  C_26
REMARK                            x       y       z     vdW  Elec       q    Type
REMARK                         _______ _______ _______ _____ _____    ______ ____
ROOT
ATOM      1  C   UNL     1      24.834   4.569  50.507  0.00  0.00    +0.000 C 
ATOM      2  C   UNL     1      23.473   4.814  51.124  0.00  0.00    +0.000 C 
ATOM      3  O   UNL     1      23.143   5.871  51.651  0.00  0.00    +0.000 OA
ATOM      4  C   UNL     1      22.537   3.641  50.974  0.00  0.00    +0.000 C 
ATOM      5  C   UNL     1      23.415   2.597  50.290  0.00  0.00    +0.000 C 
ATOM      6  C   UNL     1      24.869   3.017  50.581  0.00  0.00    +0.000 C 
ENDROOT
BRANCH   5   7
ATOM      7  O   UNL     1      23.195   2.597  48.880  0.00  0.00    +0.000 OA
ATOM      8  H   UNL     1      22.638   3.353  48.639  0.00  0.00    +0.000 HD
ENDBRANCH   5   7
BRANCH   6   9
ATOM      9  C   UNL     1      25.400   2.485  51.923  0.00  0.00    +0.000 C 
ATOM     10  C   UNL     1      26.613   1.954  52.183  0.00  0.00    +0.000 C 
BRANCH  10  11
ATOM     11  C   UNL     1      27.085   1.511  53.550  0.00  0.00    +0.000 C 
BRANCH  11  12
ATOM     12  C   UNL     1      27.057  -0.031  53.836  0.00  0.00    +0.000 C 
ATOM     13  C   UNL     1      28.339  -0.628  53.227  0.00  0.00    +0.000 C 
BRANCH  12  14
ATOM     14  O   UNL     1      27.123  -0.234  55.257  0.00  0.00    +0.000 OA
ATOM     15  H   UNL     1      27.759  -0.940  55.453  0.00  0.00    +0.000 HD
ENDBRANCH  12  14
BRANCH  12  16
ATOM     16  C   UNL     1      25.778  -0.766  53.316  0.00  0.00    +0.000 C 
BRANCH  16  17
ATOM     17  C   UNL     1      24.555  -0.626  54.259  0.00  0.00    +0.000 C 
BRANCH  17  18
ATOM     18  C   UNL     1      23.151  -0.643  53.611  0.00  0.00    +0.000 C 
ATOM     19  C   UNL     1      22.538   0.737  53.360  0.00  0.00    +0.000 C 
ATOM     20  C   UNL     1      21.039   0.630  53.647  0.00  0.00    +0.000 C 
ATOM     21  C   UNL     1      20.782  -0.765  54.193  0.00  0.00    +0.000 C 
ATOM     22  C   UNL     1      22.145  -1.337  54.542  0.00  0.00    +0.000 C 
ENDBRANCH  17  18
ENDBRANCH  16  17
ENDBRANCH  12  16
ENDBRANCH  11  12
ENDBRANCH  10  11
ENDBRANCH   6   9
BRANCH   1  23
ATOM     23  C   UNL     1      24.783   5.222  49.103  0.00  0.00    +0.000 C 
BRANCH  23  24
ATOM     24  C   UNL     1      26.053   5.962  48.667  0.00  0.00    +0.000 C 
BRANCH  24  26
ATOM     25  C   UNL     1      28.517   5.312  48.322  0.00  0.00    +0.000 C 
ATOM     26  C   UNL     1      27.264   5.060  48.744  0.00  0.00    +0.000 C 
BRANCH  25  27
ATOM     27  C   UNL     1      29.003   6.584  47.673  0.00  0.00    +0.000 C 
BRANCH  27  28
ATOM     28  C   UNL     1      30.135   7.251  48.460  0.00  0.00    +0.000 C 
BRANCH  28  29
ATOM     29  C   UNL     1      29.679   8.569  49.037  0.00  0.00    +0.000 C 
ATOM     30  O   UNL     1      30.410   9.410  49.541  0.00  0.00    +0.000 OA
BRANCH  29  32
ATOM     31  C   UNL     1      27.693   9.346  50.003  0.00  0.00    +0.000 C 
ATOM     32  O   UNL     1      28.328   8.693  48.902  0.00  0.00    +0.000 OA
ENDBRANCH  29  32
ENDBRANCH  28  29
ENDBRANCH  27  28
ENDBRANCH  25  27
ENDBRANCH  24  26
ENDBRANCH  23  24
ENDBRANCH   1  23
TORSDOF 15
ENDMDL
MODEL 4
REMARK VINA RESULT:    -6.904      2.523      5.189
REMARK INTER + INTRA:         -15.401
REMARK INTER:                 -12.916
REMARK INTRA:                  -2.484
REMARK UNBOUND:                -2.846
REMARK  Name = 
REMARK  17 active torsions:
REMARK  status: ('A' for Active; 'I' for Inactive)
REMARK    1  A    between atoms: C_1  and  O_2
REMARK    2  A    between atoms: O_2  and  C_3
REMARK    3  A    between atoms: C_3  and  C_5
REMARK    4  A    between atoms: C_5  and  C_6
REMARK    5  A    between atoms: C_6  and  C_7
REMARK    6  A    between atoms: C_8  and  C_9
REMARK    7  A    between atoms: C_9  and  C_10
REMARK    8  A    between atoms: C_10  and  C_11
REMARK    9  A    between atoms: C_15  and  O_16
REMARK   10  A    between atoms: C_17  and  C_18
REMARK   11  A    between atoms: C_19  and  C_20
REMARK   12  A    between atoms: C_20  and  C_21
REMARK   13  A    between atoms: C_21  and  C_22
REMARK   14  A    between atoms: C_21  and  O_23
REMARK   15  A    between atoms: C_21  and  C_24
REMARK   16  A    between atoms: C_24  and  C_25
REMARK   17  A    between atoms: C_25  and  C_26
REMARK                            x       y       z     vdW  Elec       q    Type
REMARK                         _______ _______ _______ _____ _____    ______ ____
ROOT
ATOM      1  C   UNL     1      23.346   3.181  50.093  0.00  0.00    +0.000 C 
ATOM      2  C   UNL     1      22.366   4.202  49.555  0.00  0.00    +0.000 C 
ATOM      3  O   UNL     1      22.357   5.382  49.889  0.00  0.00    +0.000 OA
ATOM      4  C   UNL     1      21.432   3.633  48.515  0.00  0.00    +0.000 C 
ATOM      5  C   UNL     1      21.827   2.159  48.482  0.00  0.00    +0.000 C 
ATOM      6  C   UNL     1      22.533   1.884  49.823  0.00  0.00    +0.000 C 
ENDROOT
BRANCH   5   7
ATOM      7  O   UNL     1      22.732   1.902  47.409  0.00  0.00    +0.000 OA
ATOM      8  H   UNL     1      23.567   1.562  47.764  0.00  0.00    +0.000 HD
ENDBRANCH   5   7
BRANCH   6   9
ATOM      9  C   UNL     1      21.561   1.528  50.962  0.00  0.00    +0.000 C 
ATOM     10  C   UNL     1      20.963   0.342  51.201  0.00  0.00    +0.000 C 
BRANCH  10  11
ATOM     11  C   UNL     1      20.067   0.052  52.384  0.00  0.00    +0.000 C 
BRANCH  11  12
ATOM     12  C   UNL     1      20.738  -0.647  53.618  0.00  0.00    +0.000 C 
ATOM     13  C   UNL     1      20.874   0.418  54.722  0.00  0.00    +0.000 C 
BRANCH  12  14
ATOM     14  O   UNL     1      19.848  -1.662  54.109  0.00  0.00    +0.000 OA
ATOM     15  H   UNL     1      19.097  -1.754  53.502  0.00  0.00    +0.000 HD
ENDBRANCH  12  14
BRANCH  12  16
ATOM     16  C   UNL     1      22.110  -1.333  53.310  0.00  0.00    +0.000 C 
BRANCH  16  17
ATOM     17  C   UNL     1      23.327  -0.587  53.917  0.00  0.00    +0.000 C 
BRANCH  17  18
ATOM     18  C   UNL     1      24.290   0.120  52.935  0.00  0.00    +0.000 C 
ATOM     19  C   UNL     1      25.738  -0.373  52.981  0.00  0.00    +0.000 C 
ATOM     20  C   UNL     1      26.642   0.846  52.790  0.00  0.00    +0.000 C 
ATOM     21  C   UNL     1      25.746   2.073  52.764  0.00  0.00    +0.000 C 
ATOM     22  C   UNL     1      24.392   1.615  53.275  0.00  0.00    +0.000 C 
ENDBRANCH  17  18
ENDBRANCH  16  17
ENDBRANCH  12  16
ENDBRANCH  11  12
ENDBRANCH  10  11
ENDBRANCH   6   9
BRANCH   1  23
ATOM     23  C   UNL     1      24.655   3.390  49.293  0.00  0.00    +0.000 C 
BRANCH  23  24
ATOM     24  C   UNL     1      25.699   4.301  49.949  0.00  0.00    +0.000 C 
BRANCH  24  26
ATOM     25  C   UNL     1      27.602   5.288  48.528  0.00  0.00    +0.000 C 
ATOM     26  C   UNL     1      27.003   4.275  49.183  0.00  0.00    +0.000 C 
BRANCH  25  27
ATOM     27  C   UNL     1      27.099   6.705  48.420  0.00  0.00    +0.000 C 
BRANCH  27  28
ATOM     28  C   UNL     1      28.205   7.695  48.040  0.00  0.00    +0.000 C 
BRANCH  28  29
ATOM     29  C   UNL     1      28.523   8.610  49.198  0.00  0.00    +0.000 C 
ATOM     30  O   UNL     1      27.699   9.116  49.945  0.00  0.00    +0.000 OA
BRANCH  29  32
ATOM     31  C   UNL     1      30.307  10.118  49.050  0.00  0.00    +0.000 C 
ATOM     32  O   UNL     1      29.873   8.780  49.298  0.00  0.00    +0.000 OA
ENDBRANCH  29  32
ENDBRANCH  28  29
ENDBRANCH  27  28
ENDBRANCH  25  27
ENDBRANCH  24  26
ENDBRANCH  23  24
ENDBRANCH   1  23
TORSDOF 15
ENDMDL
MODEL 5
REMARK VINA RESULT:    -6.887      1.851      5.895
REMARK INTER + INTRA:         -15.369
REMARK INTER:                 -12.885
REMARK INTRA:                  -2.485
REMARK UNBOUND:                -2.846
REMARK  Name = 
REMARK  17 active torsions:
REMARK  status: ('A' for Active; 'I' for Inactive)
REMARK    1  A    between atoms: C_1  and  O_2
REMARK    2  A    between atoms: O_2  and  C_3
REMARK    3  A    between atoms: C_3  and  C_5
REMARK    4  A    between atoms: C_5  and  C_6
REMARK    5  A    between atoms: C_6  and  C_7
REMARK    6  A    between atoms: C_8  and  C_9
REMARK    7  A    between atoms: C_9  and  C_10
REMARK    8  A    between atoms: C_10  and  C_11
REMARK    9  A    between atoms: C_15  and  O_16
REMARK   10  A    between atoms: C_17  and  C_18
REMARK   11  A    between atoms: C_19  and  C_20
REMARK   12  A    between atoms: C_20  and  C_21
REMARK   13  A    between atoms: C_21  and  C_22
REMARK   14  A    between atoms: C_21  and  O_23
REMARK   15  A    between atoms: C_21  and  C_24
REMARK   16  A    between atoms: C_24  and  C_25
REMARK   17  A    between atoms: C_25  and  C_26
REMARK                            x       y       z     vdW  Elec       q    Type
REMARK                         _______ _______ _______ _____ _____    ______ ____
ROOT
ATOM      1  C   UNL     1      24.096   3.511  50.580  0.00  0.00    +0.000 C 
ATOM      2  C   UNL     1      23.086   4.478  51.160  0.00  0.00    +0.000 C 
ATOM      3  O   UNL     1      23.043   4.791  52.345  0.00  0.00    +0.000 OA
ATOM      4  C   UNL     1      22.167   5.068  50.118  0.00  0.00    +0.000 C 
ATOM      5  C   UNL     1      22.605   4.352  48.843  0.00  0.00    +0.000 C 
ATOM      6  C   UNL     1      23.321   3.069  49.307  0.00  0.00    +0.000 C 
ENDROOT
BRANCH   5   7
ATOM      7  O   UNL     1      23.515   5.159  48.097  0.00  0.00    +0.000 OA
ATOM      8  H   UNL     1      24.302   5.340  48.633  0.00  0.00    +0.000 HD
ENDBRANCH   5   7
BRANCH   6   9
ATOM      9  C   UNL     1      22.362   1.892  49.557  0.00  0.00    +0.000 C 
ATOM     10  C   UNL     1      21.980   1.371  50.741  0.00  0.00    +0.000 C 
BRANCH  10  11
ATOM     11  C   UNL     1      20.977   0.251  50.907  0.00  0.00    +0.000 C 
BRANCH  11  12
ATOM     12  C   UNL     1      19.922   0.418  52.056  0.00  0.00    +0.000 C 
ATOM     13  C   UNL     1      19.966   1.891  52.501  0.00  0.00    +0.000 C 
BRANCH  12  14
ATOM     14  O   UNL     1      18.614   0.172  51.515  0.00  0.00    +0.000 OA
ATOM     15  H   UNL     1      17.942   0.482  52.141  0.00  0.00    +0.000 HD
ENDBRANCH  12  14
BRANCH  12  16
ATOM     16  C   UNL     1      20.119  -0.554  53.267  0.00  0.00    +0.000 C 
BRANCH  16  17
ATOM     17  C   UNL     1      21.253  -0.120  54.232  0.00  0.00    +0.000 C 
BRANCH  17  18
ATOM     18  C   UNL     1      22.579  -0.914  54.174  0.00  0.00    +0.000 C 
ATOM     19  C   UNL     1      23.119  -1.371  55.531  0.00  0.00    +0.000 C 
ATOM     20  C   UNL     1      24.643  -1.242  55.482  0.00  0.00    +0.000 C 
ATOM     21  C   UNL     1      24.999  -0.587  54.158  0.00  0.00    +0.000 C 
ATOM     22  C   UNL     1      23.700  -0.033  53.600  0.00  0.00    +0.000 C 
ENDBRANCH  17  18
ENDBRANCH  16  17
ENDBRANCH  12  16
ENDBRANCH  11  12
ENDBRANCH  10  11
ENDBRANCH   6   9
BRANCH   1  23
ATOM     23  C   UNL     1      25.397   4.327  50.384  0.00  0.00    +0.000 C 
BRANCH  23  24
ATOM     24  C   UNL     1      26.683   3.506  50.231  0.00  0.00    +0.000 C 
BRANCH  24  26
ATOM     25  C   UNL     1      26.663   1.572  51.925  0.00  0.00    +0.000 C 
ATOM     26  C   UNL     1      26.477   2.081  50.693  0.00  0.00    +0.000 C 
BRANCH  25  27
ATOM     27  C   UNL     1      27.118   2.330  53.147  0.00  0.00    +0.000 C 
BRANCH  27  28
ATOM     28  C   UNL     1      28.608   2.131  53.443  0.00  0.00    +0.000 C 
BRANCH  28  29
ATOM     29  C   UNL     1      28.848   0.796  54.106  0.00  0.00    +0.000 C 
ATOM     30  O   UNL     1      28.357   0.436  55.166  0.00  0.00    +0.000 OA
BRANCH  29  32
ATOM     31  C   UNL     1      29.365  -1.351  53.331  0.00  0.00    +0.000 C 
ATOM     32  O   UNL     1      29.686   0.041  53.339  0.00  0.00    +0.000 OA
ENDBRANCH  29  32
ENDBRANCH  28  29
ENDBRANCH  27  28
ENDBRANCH  25  27
ENDBRANCH  24  26
ENDBRANCH  23  24
ENDBRANCH   1  23
TORSDOF 15
ENDMDL
MODEL 6
REMARK VINA RESULT:    -6.836      2.027      5.862
REMARK INTER + INTRA:         -15.276
REMARK INTER:                 -11.733
REMARK INTRA:                  -3.543
REMARK UNBOUND:                -2.846
REMARK  Name = 
REMARK  17 active torsions:
REMARK  status: ('A' for Active; 'I' for Inactive)
REMARK    1  A    between atoms: C_1  and  O_2
REMARK    2  A    between atoms: O_2  and  C_3
REMARK    3  A    between atoms: C_3  and  C_5
REMARK    4  A    between atoms: C_5  and  C_6
REMARK    5  A    between atoms: C_6  and  C_7
REMARK    6  A    between atoms: C_8  and  C_9
REMARK    7  A    between atoms: C_9  and  C_10
REMARK    8  A    between atoms: C_10  and  C_11
REMARK    9  A    between atoms: C_15  and  O_16
REMARK   10  A    between atoms: C_17  and  C_18
REMARK   11  A    between atoms: C_19  and  C_20
REMARK   12  A    between atoms: C_20  and  C_21
REMARK   13  A    between atoms: C_21  and  C_22
REMARK   14  A    between atoms: C_21  and  O_23
REMARK   15  A    between atoms: C_21  and  C_24
REMARK   16  A    between atoms: C_24  and  C_25
REMARK   17  A    between atoms: C_25  and  C_26
REMARK                            x       y       z     vdW  Elec       q    Type
REMARK                         _______ _______ _______ _____ _____    ______ ____
ROOT
ATOM      1  C   UNL     1      23.683   3.509  50.469  0.00  0.00    +0.000 C 
ATOM      2  C   UNL     1      24.447   4.770  50.127  0.00  0.00    +0.000 C 
ATOM      3  O   UNL     1      25.163   4.888  49.138  0.00  0.00    +0.000 OA
ATOM      4  C   UNL     1      24.195   5.896  51.100  0.00  0.00    +0.000 C 
ATOM      5  C   UNL     1      23.278   5.246  52.133  0.00  0.00    +0.000 C 
ATOM      6  C   UNL     1      23.505   3.728  51.997  0.00  0.00    +0.000 C 
ENDROOT
BRANCH   5   7
ATOM      7  O   UNL     1      21.911   5.547  51.858  0.00  0.00    +0.000 OA
ATOM      8  H   UNL     1      21.834   6.471  51.576  0.00  0.00    +0.000 HD
ENDBRANCH   5   7
BRANCH   6   9
ATOM      9  C   UNL     1      24.694   3.213  52.827  0.00  0.00    +0.000 C 
ATOM     10  C   UNL     1      25.597   2.270  52.486  0.00  0.00    +0.000 C 
BRANCH  10  11
ATOM     11  C   UNL     1      26.781   1.863  53.334  0.00  0.00    +0.000 C 
BRANCH  11  12
ATOM     12  C   UNL     1      26.810   0.376  53.833  0.00  0.00    +0.000 C 
ATOM     13  C   UNL     1      28.182  -0.205  53.446  0.00  0.00    +0.000 C 
BRANCH  12  14
ATOM     14  O   UNL     1      26.731   0.373  55.267  0.00  0.00    +0.000 OA
ATOM     15  H   UNL     1      25.824   0.164  55.541  0.00  0.00    +0.000 HD
ENDBRANCH  12  14
BRANCH  12  16
ATOM     16  C   UNL     1      25.639  -0.512  53.296  0.00  0.00    +0.000 C 
BRANCH  16  17
ATOM     17  C   UNL     1      24.467  -0.668  54.300  0.00  0.00    +0.000 C 
BRANCH  17  18
ATOM     18  C   UNL     1      23.036  -0.728  53.719  0.00  0.00    +0.000 C 
ATOM     19  C   UNL     1      22.301   0.614  53.667  0.00  0.00    +0.000 C 
ATOM     20  C   UNL     1      20.833   0.344  54.006  0.00  0.00    +0.000 C 
ATOM     21  C   UNL     1      20.720  -1.123  54.387  0.00  0.00    +0.000 C 
ATOM     22  C   UNL     1      22.141  -1.612  54.601  0.00  0.00    +0.000 C 
ENDBRANCH  17  18
ENDBRANCH  16  17
ENDBRANCH  12  16
ENDBRANCH  11  12
ENDBRANCH  10  11
ENDBRANCH   6   9
BRANCH   1  23
ATOM     23  C   UNL     1      22.411   3.535  49.586  0.00  0.00    +0.000 C 
BRANCH  23  24
ATOM     24  C   UNL     1      22.068   2.222  48.872  0.00  0.00    +0.000 C 
BRANCH  24  26
ATOM     25  C   UNL     1      20.893   0.504  50.383  0.00  0.00    +0.000 C 
ATOM     26  C   UNL     1      21.992   1.073  49.853  0.00  0.00    +0.000 C 
BRANCH  25  27
ATOM     27  C   UNL     1      19.463   0.889  50.101  0.00  0.00    +0.000 C 
BRANCH  27  28
ATOM     28  C   UNL     1      18.801   1.603  51.284  0.00  0.00    +0.000 C 
BRANCH  28  29
ATOM     29  C   UNL     1      19.314   3.017  51.409  0.00  0.00    +0.000 C 
ATOM     30  O   UNL     1      19.952   3.455  52.355  0.00  0.00    +0.000 OA
BRANCH  29  32
ATOM     31  C   UNL     1      17.786   4.516  50.461  0.00  0.00    +0.000 C 
ATOM     32  O   UNL     1      18.971   3.735  50.301  0.00  0.00    +0.000 OA
ENDBRANCH  29  32
ENDBRANCH  28  29
ENDBRANCH  27  28
ENDBRANCH  25  27
ENDBRANCH  24  26
ENDBRANCH  23  24
ENDBRANCH   1  23
TORSDOF 15
ENDMDL
MODEL 7
REMARK VINA RESULT:    -6.818      1.827      2.589
REMARK INTER + INTRA:         -15.245
REMARK INTER:                 -12.519
REMARK INTRA:                  -2.725
REMARK UNBOUND:                -2.846
REMARK  Name = 
REMARK  17 active torsions:
REMARK  status: ('A' for Active; 'I' for Inactive)
REMARK    1  A    between atoms: C_1  and  O_2
REMARK    2  A    between atoms: O_2  and  C_3
REMARK    3  A    between atoms: C_3  and  C_5
REMARK    4  A    between atoms: C_5  and  C_6
REMARK    5  A    between atoms: C_6  and  C_7
REMARK    6  A    between atoms: C_8  and  C_9
REMARK    7  A    between atoms: C_9  and  C_10
REMARK    8  A    between atoms: C_10  and  C_11
REMARK    9  A    between atoms: C_15  and  O_16
REMARK   10  A    between atoms: C_17  and  C_18
REMARK   11  A    between atoms: C_19  and  C_20
REMARK   12  A    between atoms: C_20  and  C_21
REMARK   13  A    between atoms: C_21  and  C_22
REMARK   14  A    between atoms: C_21  and  O_23
REMARK   15  A    between atoms: C_21  and  C_24
REMARK   16  A    between atoms: C_24  and  C_25
REMARK   17  A    between atoms: C_25  and  C_26
REMARK                            x       y       z     vdW  Elec       q    Type
REMARK                         _______ _______ _______ _____ _____    ______ ____
ROOT
ATOM      1  C   UNL     1      25.770   1.028  51.866  0.00  0.00    +0.000 C 
ATOM      2  C   UNL     1      26.657  -0.021  52.502  0.00  0.00    +0.000 C 
ATOM      3  O   UNL     1      27.100  -0.996  51.904  0.00  0.00    +0.000 OA
ATOM      4  C   UNL     1      26.992   0.283  53.942  0.00  0.00    +0.000 C 
ATOM      5  C   UNL     1      26.194   1.558  54.209  0.00  0.00    +0.000 C 
ATOM      6  C   UNL     1      25.082   1.586  53.143  0.00  0.00    +0.000 C 
ENDROOT
BRANCH   5   7
ATOM      7  O   UNL     1      27.021   2.711  54.062  0.00  0.00    +0.000 OA
ATOM      8  H   UNL     1      26.737   3.216  53.284  0.00  0.00    +0.000 HD
ENDBRANCH   5   7
BRANCH   6   9
ATOM      9  C   UNL     1      23.826   0.796  53.552  0.00  0.00    +0.000 C 
ATOM     10  C   UNL     1      22.938   0.176  52.747  0.00  0.00    +0.000 C 
BRANCH  10  11
ATOM     11  C   UNL     1      21.759  -0.639  53.231  0.00  0.00    +0.000 C 
BRANCH  11  12
ATOM     12  C   UNL     1      20.481   0.162  53.662  0.00  0.00    +0.000 C 
ATOM     13  C   UNL     1      19.260  -0.696  53.284  0.00  0.00    +0.000 C 
BRANCH  12  14
ATOM     14  O   UNL     1      20.486   0.295  55.093  0.00  0.00    +0.000 OA
ATOM     15  H   UNL     1      21.208  -0.236  55.464  0.00  0.00    +0.000 HD
ENDBRANCH  12  14
BRANCH  12  16
ATOM     16  C   UNL     1      20.381   1.601  53.057  0.00  0.00    +0.000 C 
BRANCH  16  17
ATOM     17  C   UNL     1      19.645   1.650  51.692  0.00  0.00    +0.000 C 
BRANCH  17  18
ATOM     18  C   UNL     1      20.416   2.239  50.489  0.00  0.00    +0.000 C 
ATOM     19  C   UNL     1      21.153   1.212  49.627  0.00  0.00    +0.000 C 
ATOM     20  C   UNL     1      22.475   1.848  49.189  0.00  0.00    +0.000 C 
ATOM     21  C   UNL     1      22.586   3.189  49.893  0.00  0.00    +0.000 C 
ATOM     22  C   UNL     1      21.525   3.183  50.980  0.00  0.00    +0.000 C 
ENDBRANCH  17  18
ENDBRANCH  16  17
ENDBRANCH  12  16
ENDBRANCH  11  12
ENDBRANCH  10  11
ENDBRANCH   6   9
BRANCH   1  23
ATOM     23  C   UNL     1      26.722   1.971  51.091  0.00  0.00    +0.000 C 
BRANCH  23  24
ATOM     24  C   UNL     1      26.054   3.147  50.368  0.00  0.00    +0.000 C 
BRANCH  24  26
ATOM     25  C   UNL     1      26.923   4.984  48.793  0.00  0.00    +0.000 C 
ATOM     26  C   UNL     1      26.985   3.757  49.345  0.00  0.00    +0.000 C 
BRANCH  25  27
ATOM     27  C   UNL     1      25.895   6.047  49.088  0.00  0.00    +0.000 C 
BRANCH  27  28
ATOM     28  C   UNL     1      26.528   7.400  49.427  0.00  0.00    +0.000 C 
BRANCH  28  29
ATOM     29  C   UNL     1      27.420   7.870  48.304  0.00  0.00    +0.000 C 
ATOM     30  O   UNL     1      27.095   7.942  47.127  0.00  0.00    +0.000 OA
BRANCH  29  32
ATOM     31  C   UNL     1      29.699   7.345  48.392  0.00  0.00    +0.000 C 
ATOM     32  O   UNL     1      28.643   8.218  48.797  0.00  0.00    +0.000 OA
ENDBRANCH  29  32
ENDBRANCH  28  29
ENDBRANCH  27  28
ENDBRANCH  25  27
ENDBRANCH  24  26
ENDBRANCH  23  24
ENDBRANCH   1  23
TORSDOF 15
ENDMDL
MODEL 8
REMARK VINA RESULT:    -6.676      1.775      6.197
REMARK INTER + INTRA:         -14.986
REMARK INTER:                 -12.116
REMARK INTRA:                  -2.871
REMARK UNBOUND:                -2.846
REMARK  Name = 
REMARK  17 active torsions:
REMARK  status: ('A' for Active; 'I' for Inactive)
REMARK    1  A    between atoms: C_1  and  O_2
REMARK    2  A    between atoms: O_2  and  C_3
REMARK    3  A    between atoms: C_3  and  C_5
REMARK    4  A    between atoms: C_5  and  C_6
REMARK    5  A    between atoms: C_6  and  C_7
REMARK    6  A    between atoms: C_8  and  C_9
REMARK    7  A    between atoms: C_9  and  C_10
REMARK    8  A    between atoms: C_10  and  C_11
REMARK    9  A    between atoms: C_15  and  O_16
REMARK   10  A    between atoms: C_17  and  C_18
REMARK   11  A    between atoms: C_19  and  C_20
REMARK   12  A    between atoms: C_20  and  C_21
REMARK   13  A    between atoms: C_21  and  C_22
REMARK   14  A    between atoms: C_21  and  O_23
REMARK   15  A    between atoms: C_21  and  C_24
REMARK   16  A    between atoms: C_24  and  C_25
REMARK   17  A    between atoms: C_25  and  C_26
REMARK                            x       y       z     vdW  Elec       q    Type
REMARK                         _______ _______ _______ _____ _____    ______ ____
ROOT
ATOM      1  C   UNL     1      24.249   4.724  48.851  0.00  0.00    +0.000 C 
ATOM      2  C   UNL     1      25.019   5.976  49.212  0.00  0.00    +0.000 C 
ATOM      3  O   UNL     1      25.693   6.618  48.413  0.00  0.00    +0.000 OA
ATOM      4  C   UNL     1      24.827   6.394  50.649  0.00  0.00    +0.000 C 
ATOM      5  C   UNL     1      23.946   5.278  51.207  0.00  0.00    +0.000 C 
ATOM      6  C   UNL     1      24.141   4.078  50.260  0.00  0.00    +0.000 C 
ENDROOT
BRANCH   5   7
ATOM      7  O   UNL     1      22.574   5.668  51.201  0.00  0.00    +0.000 OA
ATOM      8  H   UNL     1      22.380   6.160  50.388  0.00  0.00    +0.000 HD
ENDBRANCH   5   7
BRANCH   6   9
ATOM      9  C   UNL     1      25.356   3.207  50.624  0.00  0.00    +0.000 C 
ATOM     10  C   UNL     1      25.620   2.601  51.800  0.00  0.00    +0.000 C 
BRANCH  10  11
ATOM     11  C   UNL     1      26.809   1.703  52.060  0.00  0.00    +0.000 C 
BRANCH  11  12
ATOM     12  C   UNL     1      27.321   1.628  53.542  0.00  0.00    +0.000 C 
ATOM     13  C   UNL     1      28.742   2.219  53.560  0.00  0.00    +0.000 C 
BRANCH  12  14
ATOM     14  O   UNL     1      26.494   2.476  54.355  0.00  0.00    +0.000 OA
ATOM     15  H   UNL     1      27.045   2.937  55.006  0.00  0.00    +0.000 HD
ENDBRANCH  12  14
BRANCH  12  16
ATOM     16  C   UNL     1      27.287   0.196  54.170  0.00  0.00    +0.000 C 
BRANCH  16  17
ATOM     17  C   UNL     1      26.069  -0.652  53.717  0.00  0.00    +0.000 C 
BRANCH  17  18
ATOM     18  C   UNL     1      24.689  -0.290  54.311  0.00  0.00    +0.000 C 
ATOM     19  C   UNL     1      24.162  -1.265  55.366  0.00  0.00    +0.000 C 
ATOM     20  C   UNL     1      22.651  -1.387  55.160  0.00  0.00    +0.000 C 
ATOM     21  C   UNL     1      22.299  -0.597  53.911  0.00  0.00    +0.000 C 
ATOM     22  C   UNL     1      23.616  -0.310  53.211  0.00  0.00    +0.000 C 
ENDBRANCH  17  18
ENDBRANCH  16  17
ENDBRANCH  12  16
ENDBRANCH  11  12
ENDBRANCH  10  11
ENDBRANCH   6   9
BRANCH   1  23
ATOM     23  C   UNL     1      22.941   5.212  48.181  0.00  0.00    +0.000 C 
BRANCH  23  24
ATOM     24  C   UNL     1      21.872   4.139  47.944  0.00  0.00    +0.000 C 
BRANCH  24  26
ATOM     25  C   UNL     1      22.242   1.594  47.972  0.00  0.00    +0.000 C 
ATOM     26  C   UNL     1      22.498   2.833  47.510  0.00  0.00    +0.000 C 
BRANCH  25  27
ATOM     27  C   UNL     1      21.244   1.227  49.042  0.00  0.00    +0.000 C 
BRANCH  27  28
ATOM     28  C   UNL     1      21.873   1.169  50.438  0.00  0.00    +0.000 C 
BRANCH  28  29
ATOM     29  C   UNL     1      21.086   2.010  51.414  0.00  0.00    +0.000 C 
ATOM     30  O   UNL     1      21.563   2.835  52.179  0.00  0.00    +0.000 OA
BRANCH  29  32
ATOM     31  C   UNL     1      18.901   2.798  51.705  0.00  0.00    +0.000 C 
ATOM     32  O   UNL     1      19.757   1.725  51.306  0.00  0.00    +0.000 OA
ENDBRANCH  29  32
ENDBRANCH  28  29
ENDBRANCH  27  28
ENDBRANCH  25  27
ENDBRANCH  24  26
ENDBRANCH  23  24
ENDBRANCH   1  23
TORSDOF 15
ENDMDL
MODEL 9
REMARK VINA RESULT:    -6.599      2.274      7.001
REMARK INTER + INTRA:         -14.846
REMARK INTER:                 -13.226
REMARK INTRA:                  -1.620
REMARK UNBOUND:                -2.846
REMARK  Name = 
REMARK  17 active torsions:
REMARK  status: ('A' for Active; 'I' for Inactive)
REMARK    1  A    between atoms: C_1  and  O_2
REMARK    2  A    between atoms: O_2  and  C_3
REMARK    3  A    between atoms: C_3  and  C_5
REMARK    4  A    between atoms: C_5  and  C_6
REMARK    5  A    between atoms: C_6  and  C_7
REMARK    6  A    between atoms: C_8  and  C_9
REMARK    7  A    between atoms: C_9  and  C_10
REMARK    8  A    between atoms: C_10  and  C_11
REMARK    9  A    between atoms: C_15  and  O_16
REMARK   10  A    between atoms: C_17  and  C_18
REMARK   11  A    between atoms: C_19  and  C_20
REMARK   12  A    between atoms: C_20  and  C_21
REMARK   13  A    between atoms: C_21  and  C_22
REMARK   14  A    between atoms: C_21  and  O_23
REMARK   15  A    between atoms: C_21  and  C_24
REMARK   16  A    between atoms: C_24  and  C_25
REMARK   17  A    between atoms: C_25  and  C_26
REMARK                            x       y       z     vdW  Elec       q    Type
REMARK                         _______ _______ _______ _____ _____    ______ ____
ROOT
ATOM      1  C   UNL     1      25.909   0.362  53.701  0.00  0.00    +0.000 C 
ATOM      2  C   UNL     1      27.281   0.045  54.256  0.00  0.00    +0.000 C 
ATOM      3  O   UNL     1      27.671   0.408  55.361  0.00  0.00    +0.000 OA
ATOM      4  C   UNL     1      28.107  -0.816  53.333  0.00  0.00    +0.000 C 
ATOM      5  C   UNL     1      27.201  -0.964  52.113  0.00  0.00    +0.000 C 
ATOM      6  C   UNL     1      26.209   0.214  52.184  0.00  0.00    +0.000 C 
ENDROOT
BRANCH   5   7
ATOM      7  O   UNL     1      26.480  -2.194  52.165  0.00  0.00    +0.000 OA
ATOM      8  H   UNL     1      26.132  -2.402  51.284  0.00  0.00    +0.000 HD
ENDBRANCH   5   7
BRANCH   6   9
ATOM      9  C   UNL     1      26.749   1.504  51.542  0.00  0.00    +0.000 C 
ATOM     10  C   UNL     1      26.085   2.383  50.763  0.00  0.00    +0.000 C 
BRANCH  10  11
ATOM     11  C   UNL     1      26.670   3.668  50.221  0.00  0.00    +0.000 C 
BRANCH  11  12
ATOM     12  C   UNL     1      25.648   4.776  49.786  0.00  0.00    +0.000 C 
ATOM     13  C   UNL     1      24.443   4.057  49.153  0.00  0.00    +0.000 C 
BRANCH  12  14
ATOM     14  O   UNL     1      25.175   5.449  50.964  0.00  0.00    +0.000 OA
ATOM     15  H   UNL     1      25.712   6.242  51.121  0.00  0.00    +0.000 HD
ENDBRANCH  12  14
BRANCH  12  16
ATOM     16  C   UNL     1      26.236   5.864  48.828  0.00  0.00    +0.000 C 
BRANCH  16  17
ATOM     17  C   UNL     1      27.703   5.590  48.404  0.00  0.00    +0.000 C 
BRANCH  17  18
ATOM     18  C   UNL     1      28.575   6.811  48.031  0.00  0.00    +0.000 C 
ATOM     19  C   UNL     1      30.058   6.680  48.386  0.00  0.00    +0.000 C 
ATOM     20  C   UNL     1      30.538   8.054  48.857  0.00  0.00    +0.000 C 
ATOM     21  C   UNL     1      29.322   8.964  48.911  0.00  0.00    +0.000 C 
ATOM     22  C   UNL     1      28.111   8.052  48.809  0.00  0.00    +0.000 C 
ENDBRANCH  17  18
ENDBRANCH  16  17
ENDBRANCH  12  16
ENDBRANCH  11  12
ENDBRANCH  10  11
ENDBRANCH   6   9
BRANCH   1  23
ATOM     23  C   UNL     1      24.946  -0.664  54.348  0.00  0.00    +0.000 C 
BRANCH  23  24
ATOM     24  C   UNL     1      23.570  -0.797  53.685  0.00  0.00    +0.000 C 
BRANCH  24  26
ATOM     25  C   UNL     1      21.270  -0.495  54.796  0.00  0.00    +0.000 C 
ATOM     26  C   UNL     1      22.492  -1.055  54.714  0.00  0.00    +0.000 C 
BRANCH  25  27
ATOM     27  C   UNL     1      20.690   0.529  53.853  0.00  0.00    +0.000 C 
BRANCH  27  28
ATOM     28  C   UNL     1      19.883  -0.107  52.717  0.00  0.00    +0.000 C 
BRANCH  28  29
ATOM     29  C   UNL     1      20.233   0.526  51.392  0.00  0.00    +0.000 C 
ATOM     30  O   UNL     1      19.488   1.233  50.729  0.00  0.00    +0.000 OA
BRANCH  29  32
ATOM     31  C   UNL     1      22.297   1.324  50.629  0.00  0.00    +0.000 C 
ATOM     32  O   UNL     1      21.513   0.205  51.048  0.00  0.00    +0.000 OA
ENDBRANCH  29  32
ENDBRANCH  28  29
ENDBRANCH  27  28
ENDBRANCH  25  27
ENDBRANCH  24  26
ENDBRANCH  23  24
ENDBRANCH   1  23
TORSDOF 15
ENDMDL
