MODEL 1
REMARK VINA RESULT:    -8.154      0.000      0.000
REMARK INTER + INTRA:         -10.593
REMARK INTER:                 -10.060
REMARK INTRA:                  -0.532
REMARK UNBOUND:                -0.532
REMARK  Name = 
REMARK  6 active torsions:
REMARK  status: ('A' for Active; 'I' for Inactive)
REMARK    1  A    between atoms: C_1  and  N_2
REMARK    2  A    between atoms: N_2  and  C_3
REMARK    3  A    between atoms: C_8  and  S_9
REMARK    4  A    between atoms: S_9  and  N_12
REMARK    5  A    between atoms: C_19  and  O_20
REMARK    6  A    between atoms: O_20  and  C_21
REMARK                            x       y       z     vdW  Elec       q    Type
REMARK                         _______ _______ _______ _____ _____    ______ ____
ROOT
ATOM      1  S   UNL     1      21.587   2.703  51.766  0.00  0.00    +0.000 S 
ATOM      2  O   UNL     1      21.854   2.597  50.347  0.00  0.00    +0.000 OA
ATOM      3  O   UNL     1      20.507   3.564  52.214  0.00  0.00    +0.000 OA
ENDROOT
BRANCH   1   9
ATOM      4  C   UNL     1      18.290  -1.199  53.065  0.00  0.00    +0.000 A 
ATOM      5  C   UNL     1      17.431  -0.700  52.076  0.00  0.00    +0.000 A 
ATOM      6  C   UNL     1      17.885   0.153  51.085  0.00  0.00    +0.000 A 
ATOM      7  C   UNL     1      19.174   0.661  51.147  0.00  0.00    +0.000 A 
ATOM      8  C   UNL     1      20.036   0.372  52.224  0.00  0.00    +0.000 A 
ATOM      9  C   UNL     1      21.283   1.040  52.411  0.00  0.00    +0.000 A 
ATOM     10  C   UNL     1      22.176   0.605  53.400  0.00  0.00    +0.000 A 
ATOM     11  C   UNL     1      21.826  -0.447  54.239  0.00  0.00    +0.000 A 
ATOM     12  C   UNL     1      20.560  -1.031  54.139  0.00  0.00    +0.000 A 
ATOM     13  C   UNL     1      19.617  -0.640  53.152  0.00  0.00    +0.000 A 
BRANCH   4  15
ATOM     14  C   UNL     1      17.381  -3.448  53.641  0.00  0.00    +0.000 C 
ATOM     15  N   UNL     1      17.784  -2.097  54.029  0.00  0.00    +0.000 N 
ATOM     16  H   UNL     1      17.701  -1.812  54.967  0.00  0.00    +0.000 HD
ENDBRANCH   4  15
ENDBRANCH   1   9
BRANCH   1  17
ATOM     17  N   UNL     1      23.026   3.260  52.441  0.00  0.00    +0.000 N 
ATOM     18  C   UNL     1      24.074   3.552  51.526  0.00  0.00    +0.000 A 
ATOM     19  N   UNL     1      24.011   4.801  51.027  0.00  0.00    +0.000 NA
ATOM     20  C   UNL     1      25.039   5.145  50.210  0.00  0.00    +0.000 A 
ATOM     21  C   UNL     1      26.073   4.276  49.881  0.00  0.00    +0.000 A 
ATOM     22 BR   UNL     1      27.472   4.857  48.750  0.00  0.00    +0.000 Br
ATOM     23  N   UNL     1      26.126   3.016  50.358  0.00  0.00    +0.000 NA
ATOM     24  C   UNL     1      25.107   2.652  51.179  0.00  0.00    +0.000 A 
ATOM     25  H   UNL     1      23.134   3.376  53.412  0.00  0.00    +0.000 HD
BRANCH  24  26
ATOM     26  O   UNL     1      25.132   1.382  51.722  0.00  0.00    +0.000 OA
ATOM     27  C   UNL     1      26.466   0.876  51.875  0.00  0.00    +0.000 C 
ENDBRANCH  24  26
ENDBRANCH   1  17
TORSDOF 4
ENDMDL
MODEL 2
REMARK VINA RESULT:    -7.881      1.460      2.402
REMARK INTER + INTRA:         -10.256
REMARK INTER:                  -9.942
REMARK INTRA:                  -0.315
REMARK UNBOUND:                -0.532
REMARK  Name = 
REMARK  6 active torsions:
REMARK  status: ('A' for Active; 'I' for Inactive)
REMARK    1  A    between atoms: C_1  and  N_2
REMARK    2  A    between atoms: N_2  and  C_3
REMARK    3  A    between atoms: C_8  and  S_9
REMARK    4  A    between atoms: S_9  and  N_12
REMARK    5  A    between atoms: C_19  and  O_20
REMARK    6  A    between atoms: O_20  and  C_21
REMARK                            x       y       z     vdW  Elec       q    Type
REMARK                         _______ _______ _______ _____ _____    ______ ____
ROOT
ATOM      1  S   UNL     1      23.377   2.162  52.415  0.00  0.00    +0.000 S 
ATOM      2  O   UNL     1      22.417   3.237  52.543  0.00  0.00    +0.000 OA
ATOM      3  O   UNL     1      24.634   2.254  53.135  0.00  0.00    +0.000 OA
ENDROOT
BRANCH   1   9
ATOM      4  C   UNL     1      19.024  -0.718  53.152  0.00  0.00    +0.000 A 
ATOM      5  C   UNL     1      18.431   0.061  52.148  0.00  0.00    +0.000 A 
ATOM      6  C   UNL     1      19.192   0.808  51.265  0.00  0.00    +0.000 A 
ATOM      7  C   UNL     1      20.560   0.926  51.460  0.00  0.00    +0.000 A 
ATOM      8  C   UNL     1      21.206   0.342  52.569  0.00  0.00    +0.000 A 
ATOM      9  C   UNL     1      22.566   0.618  52.899  0.00  0.00    +0.000 A 
ATOM     10  C   UNL     1      23.210  -0.110  53.910  0.00  0.00    +0.000 A 
ATOM     11  C   UNL     1      22.507  -1.067  54.632  0.00  0.00    +0.000 A 
ATOM     12  C   UNL     1      21.143  -1.262  54.395  0.00  0.00    +0.000 A 
ATOM     13  C   UNL     1      20.440  -0.563  53.378  0.00  0.00    +0.000 A 
BRANCH   4  15
ATOM     14  C   UNL     1      17.749  -2.816  53.583  0.00  0.00    +0.000 C 
ATOM     15  N   UNL     1      18.202  -1.491  53.999  0.00  0.00    +0.000 N 
ATOM     16  H   UNL     1      17.933  -1.135  54.877  0.00  0.00    +0.000 HD
ENDBRANCH   4  15
ENDBRANCH   1   9
BRANCH   1  17
ATOM     17  N   UNL     1      23.714   2.070  50.767  0.00  0.00    +0.000 N 
ATOM     18  C   UNL     1      24.563   3.082  50.244  0.00  0.00    +0.000 A 
ATOM     19  N   UNL     1      25.872   2.792  50.366  0.00  0.00    +0.000 NA
ATOM     20  C   UNL     1      26.714   3.698  49.807  0.00  0.00    +0.000 A 
ATOM     21  C   UNL     1      26.277   4.858  49.179  0.00  0.00    +0.000 A 
ATOM     22 BR   UNL     1      27.529   6.049  48.413  0.00  0.00    +0.000 Br
ATOM     23  N   UNL     1      24.967   5.165  49.079  0.00  0.00    +0.000 NA
ATOM     24  C   UNL     1      24.107   4.270  49.630  0.00  0.00    +0.000 A 
ATOM     25  H   UNL     1      23.342   1.356  50.200  0.00  0.00    +0.000 HD
BRANCH  24  26
ATOM     26  O   UNL     1      22.752   4.521  49.524  0.00  0.00    +0.000 OA
ATOM     27  C   UNL     1      22.376   5.769  50.122  0.00  0.00    +0.000 C 
ENDBRANCH  24  26
ENDBRANCH   1  17
TORSDOF 4
ENDMDL
MODEL 3
REMARK VINA RESULT:    -7.845      3.066      5.152
REMARK INTER + INTRA:         -10.212
REMARK INTER:                  -9.789
REMARK INTRA:                  -0.423
REMARK UNBOUND:                -0.532
REMARK  Name = 
REMARK  6 active torsions:
REMARK  status: ('A' for Active; 'I' for Inactive)
REMARK    1  A    between atoms: C_1  and  N_2
REMARK    2  A    between atoms: N_2  and  C_3
REMARK    3  A    between atoms: C_8  and  S_9
REMARK    4  A    between atoms: S_9  and  N_12
REMARK    5  A    between atoms: C_19  and  O_20
REMARK    6  A    between atoms: O_20  and  C_21
REMARK                            x       y       z     vdW  Elec       q    Type
REMARK                         _______ _______ _______ _____ _____    ______ ____
ROOT
ATOM      1  S   UNL     1      22.607   3.526  51.961  0.00  0.00    +0.000 S 
ATOM      2  O   UNL     1      21.175   3.739  51.965  0.00  0.00    +0.000 OA
ATOM      3  O   UNL     1      23.470   4.550  52.522  0.00  0.00    +0.000 OA
ENDROOT
BRANCH   1   9
ATOM      4  C   UNL     1      25.980  -0.181  53.594  0.00  0.00    +0.000 A 
ATOM      5  C   UNL     1      26.954   0.826  53.621  0.00  0.00    +0.000 A 
ATOM      6  C   UNL     1      26.611   2.168  53.631  0.00  0.00    +0.000 A 
ATOM      7  C   UNL     1      25.289   2.544  53.450  0.00  0.00    +0.000 A 
ATOM      8  C   UNL     1      24.273   1.597  53.207  0.00  0.00    +0.000 A 
ATOM      9  C   UNL     1      22.952   1.970  52.818  0.00  0.00    +0.000 A 
ATOM     10  C   UNL     1      21.937   1.006  52.747  0.00  0.00    +0.000 A 
ATOM     11  C   UNL     1      22.228  -0.329  53.004  0.00  0.00    +0.000 A 
ATOM     12  C   UNL     1      23.543  -0.720  53.271  0.00  0.00    +0.000 A 
ATOM     13  C   UNL     1      24.610   0.211  53.365  0.00  0.00    +0.000 A 
BRANCH   4  15
ATOM     14  C   UNL     1      27.083  -2.122  52.485  0.00  0.00    +0.000 C 
ATOM     15  N   UNL     1      26.384  -1.532  53.625  0.00  0.00    +0.000 N 
ATOM     16  H   UNL     1      26.193  -2.081  54.420  0.00  0.00    +0.000 HD
ENDBRANCH   4  15
ENDBRANCH   1   9
BRANCH   1  17
ATOM     17  N   UNL     1      23.013   3.319  50.339  0.00  0.00    +0.000 N 
ATOM     18  C   UNL     1      24.216   3.942  49.911  0.00  0.00    +0.000 A 
ATOM     19  N   UNL     1      25.309   3.183  50.116  0.00  0.00    +0.000 NA
ATOM     20  C   UNL     1      26.469   3.710  49.649  0.00  0.00    +0.000 A 
ATOM     21  C   UNL     1      26.546   4.951  49.028  0.00  0.00    +0.000 A 
ATOM     22 BR   UNL     1      28.208   5.589  48.391  0.00  0.00    +0.000 Br
ATOM     23  N   UNL     1      25.457   5.725  48.843  0.00  0.00    +0.000 NA
ATOM     24  C   UNL     1      24.286   5.215  49.303  0.00  0.00    +0.000 A 
ATOM     25  H   UNL     1      22.448   2.798  49.724  0.00  0.00    +0.000 HD
BRANCH  24  26
ATOM     26  O   UNL     1      23.135   5.955  49.108  0.00  0.00    +0.000 OA
ATOM     27  C   UNL     1      22.999   7.022  50.058  0.00  0.00    +0.000 C 
ENDBRANCH  24  26
ENDBRANCH   1  17
TORSDOF 4
ENDMDL
MODEL 4
REMARK VINA RESULT:    -7.638      3.462      5.523
REMARK INTER + INTRA:          -9.956
REMARK INTER:                  -9.745
REMARK INTRA:                  -0.211
REMARK UNBOUND:                -0.532
REMARK  Name = 
REMARK  6 active torsions:
REMARK  status: ('A' for Active; 'I' for Inactive)
REMARK    1  A    between atoms: C_1  and  N_2
REMARK    2  A    between atoms: N_2  and  C_3
REMARK    3  A    between atoms: C_8  and  S_9
REMARK    4  A    between atoms: S_9  and  N_12
REMARK    5  A    between atoms: C_19  and  O_20
REMARK    6  A    between atoms: O_20  and  C_21
REMARK                            x       y       z     vdW  Elec       q    Type
REMARK                         _______ _______ _______ _____ _____    ______ ____
ROOT
ATOM      1  S   UNL     1      20.612   1.118  52.256  0.00  0.00    +0.000 S 
ATOM      2  O   UNL     1      21.204   1.337  50.954  0.00  0.00    +0.000 OA
ATOM      3  O   UNL     1      19.490   0.203  52.373  0.00  0.00    +0.000 OA
ENDROOT
BRANCH   1   9
ATOM      4  C   UNL     1      25.609  -0.277  53.188  0.00  0.00    +0.000 A 
ATOM      5  C   UNL     1      25.963   0.573  52.130  0.00  0.00    +0.000 A 
ATOM      6  C   UNL     1      25.099   1.549  51.663  0.00  0.00    +0.000 A 
ATOM      7  C   UNL     1      23.794   1.598  52.132  0.00  0.00    +0.000 A 
ATOM      8  C   UNL     1      23.296   0.647  53.046  0.00  0.00    +0.000 A 
ATOM      9  C   UNL     1      21.912   0.557  53.383  0.00  0.00    +0.000 A 
ATOM     10  C   UNL     1      21.490  -0.293  54.415  0.00  0.00    +0.000 A 
ATOM     11  C   UNL     1      22.414  -1.092  55.079  0.00  0.00    +0.000 A 
ATOM     12  C   UNL     1      23.753  -1.096  54.677  0.00  0.00    +0.000 A 
ATOM     13  C   UNL     1      24.241  -0.251  53.646  0.00  0.00    +0.000 A 
BRANCH   4  15
ATOM     14  C   UNL     1      27.189  -2.146  52.715  0.00  0.00    +0.000 C 
ATOM     15  N   UNL     1      26.543  -1.227  53.650  0.00  0.00    +0.000 N 
ATOM     16  H   UNL     1      26.761  -1.272  54.609  0.00  0.00    +0.000 HD
ENDBRANCH   4  15
ENDBRANCH   1   9
BRANCH   1  17
ATOM     17  N   UNL     1      20.110   2.642  52.770  0.00  0.00    +0.000 N 
ATOM     18  C   UNL     1      20.005   3.639  51.763  0.00  0.00    +0.000 A 
ATOM     19  N   UNL     1      18.815   3.634  51.134  0.00  0.00    +0.000 NA
ATOM     20  C   UNL     1      18.646   4.623  50.219  0.00  0.00    +0.000 A 
ATOM     21  C   UNL     1      19.629   5.559  49.920  0.00  0.00    +0.000 A 
ATOM     22 BR   UNL     1      19.289   6.912  48.644  0.00  0.00    +0.000 Br
ATOM     23  N   UNL     1      20.832   5.550  50.529  0.00  0.00    +0.000 NA
ATOM     24  C   UNL     1      21.020   4.570  51.450  0.00  0.00    +0.000 A 
ATOM     25  H   UNL     1      19.904   2.830  53.714  0.00  0.00    +0.000 HD
BRANCH  24  26
ATOM     26  O   UNL     1      22.225   4.538  52.127  0.00  0.00    +0.000 OA
ATOM     27  C   UNL     1      23.269   5.227  51.425  0.00  0.00    +0.000 C 
ENDBRANCH  24  26
ENDBRANCH   1  17
TORSDOF 4
ENDMDL
MODEL 5
REMARK VINA RESULT:    -7.567      3.543      7.313
REMARK INTER + INTRA:          -9.869
REMARK INTER:                  -9.480
REMARK INTRA:                  -0.388
REMARK UNBOUND:                -0.532
REMARK  Name = 
REMARK  6 active torsions:
REMARK  status: ('A' for Active; 'I' for Inactive)
REMARK    1  A    between atoms: C_1  and  N_2
REMARK    2  A    between atoms: N_2  and  C_3
REMARK    3  A    between atoms: C_8  and  S_9
REMARK    4  A    between atoms: S_9  and  N_12
REMARK    5  A    between atoms: C_19  and  O_20
REMARK    6  A    between atoms: O_20  and  C_21
REMARK                            x       y       z     vdW  Elec       q    Type
REMARK                         _______ _______ _______ _____ _____    ______ ____
ROOT
ATOM      1  S   UNL     1      22.597   1.969  51.333  0.00  0.00    +0.000 S 
ATOM      2  O   UNL     1      22.120   2.414  52.625  0.00  0.00    +0.000 OA
ATOM      3  O   UNL     1      22.273   2.757  50.157  0.00  0.00    +0.000 OA
ENDROOT
BRANCH   1   9
ATOM      4  C   UNL     1      26.991   0.801  54.000  0.00  0.00    +0.000 A 
ATOM      5  C   UNL     1      26.203  -0.071  54.765  0.00  0.00    +0.000 A 
ATOM      6  C   UNL     1      24.963  -0.504  54.325  0.00  0.00    +0.000 A 
ATOM      7  C   UNL     1      24.404   0.049  53.183  0.00  0.00    +0.000 A 
ATOM      8  C   UNL     1      25.041   1.085  52.469  0.00  0.00    +0.000 A 
ATOM      9  C   UNL     1      24.397   1.804  51.418  0.00  0.00    +0.000 A 
ATOM     10  C   UNL     1      25.123   2.709  50.633  0.00  0.00    +0.000 A 
ATOM     11  C   UNL     1      26.464   2.950  50.909  0.00  0.00    +0.000 A 
ATOM     12  C   UNL     1      27.073   2.338  52.009  0.00  0.00    +0.000 A 
ATOM     13  C   UNL     1      26.392   1.405  52.835  0.00  0.00    +0.000 A 
BRANCH   4  15
ATOM     14  C   UNL     1      29.460   0.458  54.045  0.00  0.00    +0.000 C 
ATOM     15  N   UNL     1      28.263   1.179  54.478  0.00  0.00    +0.000 N 
ATOM     16  H   UNL     1      28.346   1.931  55.107  0.00  0.00    +0.000 HD
ENDBRANCH   4  15
ENDBRANCH   1   9
BRANCH   1  17
ATOM     17  N   UNL     1      21.948   0.427  51.136  0.00  0.00    +0.000 N 
ATOM     18  C   UNL     1      20.598   0.259  51.544  0.00  0.00    +0.000 A 
ATOM     19  N   UNL     1      19.709   0.582  50.585  0.00  0.00    +0.000 NA
ATOM     20  C   UNL     1      18.410   0.360  50.909  0.00  0.00    +0.000 A 
ATOM     21  C   UNL     1      18.007  -0.135  52.144  0.00  0.00    +0.000 A 
ATOM     22 BR   UNL     1      16.173  -0.430  52.492  0.00  0.00    +0.000 Br
ATOM     23  N   UNL     1      18.893  -0.435  53.116  0.00  0.00    +0.000 NA
ATOM     24  C   UNL     1      20.199  -0.222  52.811  0.00  0.00    +0.000 A 
ATOM     25  H   UNL     1      22.476  -0.314  50.760  0.00  0.00    +0.000 HD
BRANCH  24  26
ATOM     26  O   UNL     1      21.149  -0.545  53.761  0.00  0.00    +0.000 OA
ATOM     27  C   UNL     1      20.928  -1.838  54.342  0.00  0.00    +0.000 C 
ENDBRANCH  24  26
ENDBRANCH   1  17
TORSDOF 4
ENDMDL
MODEL 6
REMARK VINA RESULT:    -7.532      2.438      3.210
REMARK INTER + INTRA:          -9.825
REMARK INTER:                  -9.421
REMARK INTRA:                  -0.404
REMARK UNBOUND:                -0.532
REMARK  Name = 
REMARK  6 active torsions:
REMARK  status: ('A' for Active; 'I' for Inactive)
REMARK    1  A    between atoms: C_1  and  N_2
REMARK    2  A    between atoms: N_2  and  C_3
REMARK    3  A    between atoms: C_8  and  S_9
REMARK    4  A    between atoms: S_9  and  N_12
REMARK    5  A    between atoms: C_19  and  O_20
REMARK    6  A    between atoms: O_20  and  C_21
REMARK                            x       y       z     vdW  Elec       q    Type
REMARK                         _______ _______ _______ _____ _____    ______ ____
ROOT
ATOM      1  S   UNL     1      23.603   1.795  51.875  0.00  0.00    +0.000 S 
ATOM      2  O   UNL     1      24.996   1.703  52.259  0.00  0.00    +0.000 OA
ATOM      3  O   UNL     1      23.267   1.859  50.464  0.00  0.00    +0.000 OA
ENDROOT
BRANCH   1   9
ATOM      4  C   UNL     1      19.122  -0.736  53.015  0.00  0.00    +0.000 A 
ATOM      5  C   UNL     1      18.573  -0.115  51.884  0.00  0.00    +0.000 A 
ATOM      6  C   UNL     1      19.374   0.440  50.900  0.00  0.00    +0.000 A 
ATOM      7  C   UNL     1      20.744   0.533  51.096  0.00  0.00    +0.000 A 
ATOM      8  C   UNL     1      21.354   0.119  52.298  0.00  0.00    +0.000 A 
ATOM      9  C   UNL     1      22.722   0.390  52.599  0.00  0.00    +0.000 A 
ATOM     10  C   UNL     1      23.323  -0.181  53.729  0.00  0.00    +0.000 A 
ATOM     11  C   UNL     1      22.573  -0.972  54.590  0.00  0.00    +0.000 A 
ATOM     12  C   UNL     1      21.204  -1.148  54.367  0.00  0.00    +0.000 A 
ATOM     13  C   UNL     1      20.542  -0.603  53.236  0.00  0.00    +0.000 A 
BRANCH   4  15
ATOM     14  C   UNL     1      17.472  -2.503  53.625  0.00  0.00    +0.000 C 
ATOM     15  N   UNL     1      18.261  -1.320  53.967  0.00  0.00    +0.000 N 
ATOM     16  H   UNL     1      18.189  -0.928  54.867  0.00  0.00    +0.000 HD
ENDBRANCH   4  15
ENDBRANCH   1   9
BRANCH   1  17
ATOM     17  N   UNL     1      23.037   3.196  52.621  0.00  0.00    +0.000 N 
ATOM     18  C   UNL     1      22.347   4.115  51.785  0.00  0.00    +0.000 A 
ATOM     19  N   UNL     1      21.035   3.840  51.662  0.00  0.00    +0.000 NA
ATOM     20  C   UNL     1      20.326   4.740  50.935  0.00  0.00    +0.000 A 
ATOM     21  C   UNL     1      20.900   5.853  50.331  0.00  0.00    +0.000 A 
ATOM     22 BR   UNL     1      19.823   7.061  49.356  0.00  0.00    +0.000 Br
ATOM     23  N   UNL     1      22.219   6.117  50.430  0.00  0.00    +0.000 NA
ATOM     24  C   UNL     1      22.946   5.229  51.155  0.00  0.00    +0.000 A 
ATOM     25  H   UNL     1      23.177   3.367  53.580  0.00  0.00    +0.000 HD
BRANCH  24  26
ATOM     26  O   UNL     1      24.297   5.473  51.315  0.00  0.00    +0.000 OA
ATOM     27  C   UNL     1      25.054   5.166  50.136  0.00  0.00    +0.000 C 
ENDBRANCH  24  26
ENDBRANCH   1  17
TORSDOF 4
ENDMDL
MODEL 7
REMARK VINA RESULT:    -7.334      3.474      7.446
REMARK INTER + INTRA:          -9.581
REMARK INTER:                  -9.192
REMARK INTRA:                  -0.390
REMARK UNBOUND:                -0.532
REMARK  Name = 
REMARK  6 active torsions:
REMARK  status: ('A' for Active; 'I' for Inactive)
REMARK    1  A    between atoms: C_1  and  N_2
REMARK    2  A    between atoms: N_2  and  C_3
REMARK    3  A    between atoms: C_8  and  S_9
REMARK    4  A    between atoms: S_9  and  N_12
REMARK    5  A    between atoms: C_19  and  O_20
REMARK    6  A    between atoms: O_20  and  C_21
REMARK                            x       y       z     vdW  Elec       q    Type
REMARK                         _______ _______ _______ _____ _____    ______ ____
ROOT
ATOM      1  S   UNL     1      22.762   2.694  51.582  0.00  0.00    +0.000 S 
ATOM      2  O   UNL     1      21.403   2.822  52.063  0.00  0.00    +0.000 OA
ATOM      3  O   UNL     1      23.089   1.601  50.684  0.00  0.00    +0.000 OA
ENDROOT
BRANCH   1   9
ATOM      4  C   UNL     1      26.389   5.867  49.448  0.00  0.00    +0.000 A 
ATOM      5  C   UNL     1      27.106   4.706  49.127  0.00  0.00    +0.000 A 
ATOM      6  C   UNL     1      26.501   3.461  49.111  0.00  0.00    +0.000 A 
ATOM      7  C   UNL     1      25.200   3.319  49.573  0.00  0.00    +0.000 A 
ATOM      8  C   UNL     1      24.479   4.405  50.108  0.00  0.00    +0.000 A 
ATOM      9  C   UNL     1      23.225   4.244  50.771  0.00  0.00    +0.000 A 
ATOM     10  C   UNL     1      22.471   5.366  51.140  0.00  0.00    +0.000 A 
ATOM     11  C   UNL     1      22.967   6.643  50.909  0.00  0.00    +0.000 A 
ATOM     12  C   UNL     1      24.245   6.811  50.367  0.00  0.00    +0.000 A 
ATOM     13  C   UNL     1      25.051   5.714  49.965  0.00  0.00    +0.000 A 
BRANCH   4  15
ATOM     14  C   UNL     1      28.143   7.346  48.471  0.00  0.00    +0.000 C 
ATOM     15  N   UNL     1      27.046   7.115  49.410  0.00  0.00    +0.000 N 
ATOM     16  H   UNL     1      26.765   7.835  50.020  0.00  0.00    +0.000 HD
ENDBRANCH   4  15
ENDBRANCH   1   9
BRANCH   1  17
ATOM     17  N   UNL     1      23.703   2.541  52.971  0.00  0.00    +0.000 N 
ATOM     18  C   UNL     1      24.681   1.510  52.955  0.00  0.00    +0.000 A 
ATOM     19  N   UNL     1      25.846   1.892  52.399  0.00  0.00    +0.000 NA
ATOM     20  C   UNL     1      26.832   0.959  52.436  0.00  0.00    +0.000 A 
ATOM     21  C   UNL     1      26.659  -0.310  52.976  0.00  0.00    +0.000 A 
ATOM     22 BR   UNL     1      28.101  -1.532  52.998  0.00  0.00    +0.000 Br
ATOM     23  N   UNL     1      25.485  -0.705  53.509  0.00  0.00    +0.000 NA
ATOM     24  C   UNL     1      24.486   0.214  53.484  0.00  0.00    +0.000 A 
ATOM     25  H   UNL     1      23.581   3.132  53.749  0.00  0.00    +0.000 HD
BRANCH  24  26
ATOM     26  O   UNL     1      23.273  -0.130  54.049  0.00  0.00    +0.000 OA
ATOM     27  C   UNL     1      22.458  -0.913  53.166  0.00  0.00    +0.000 C 
ENDBRANCH  24  26
ENDBRANCH   1  17
TORSDOF 4
ENDMDL
MODEL 8
REMARK VINA RESULT:    -7.174      3.072      4.452
REMARK INTER + INTRA:          -9.384
REMARK INTER:                  -9.051
REMARK INTRA:                  -0.333
REMARK UNBOUND:                -0.532
REMARK  Name = 
REMARK  6 active torsions:
REMARK  status: ('A' for Active; 'I' for Inactive)
REMARK    1  A    between atoms: C_1  and  N_2
REMARK    2  A    between atoms: N_2  and  C_3
REMARK    3  A    between atoms: C_8  and  S_9
REMARK    4  A    between atoms: S_9  and  N_12
REMARK    5  A    between atoms: C_19  and  O_20
REMARK    6  A    between atoms: O_20  and  C_21
REMARK                            x       y       z     vdW  Elec       q    Type
REMARK                         _______ _______ _______ _____ _____    ______ ____
ROOT
ATOM      1  S   UNL     1      24.574   2.919  51.809  0.00  0.00    +0.000 S 
ATOM      2  O   UNL     1      24.643   1.605  51.206  0.00  0.00    +0.000 OA
ATOM      3  O   UNL     1      25.213   4.036  51.136  0.00  0.00    +0.000 OA
ENDROOT
BRANCH   1   9
ATOM      4  C   UNL     1      19.492   1.535  52.022  0.00  0.00    +0.000 A 
ATOM      5  C   UNL     1      19.934   0.261  52.408  0.00  0.00    +0.000 A 
ATOM      6  C   UNL     1      21.215   0.054  52.893  0.00  0.00    +0.000 A 
ATOM      7  C   UNL     1      22.143   1.083  52.856  0.00  0.00    +0.000 A 
ATOM      8  C   UNL     1      21.839   2.339  52.290  0.00  0.00    +0.000 A 
ATOM      9  C   UNL     1      22.831   3.338  52.058  0.00  0.00    +0.000 A 
ATOM     10  C   UNL     1      22.456   4.624  51.648  0.00  0.00    +0.000 A 
ATOM     11  C   UNL     1      21.117   4.916  51.414  0.00  0.00    +0.000 A 
ATOM     12  C   UNL     1      20.151   3.912  51.526  0.00  0.00    +0.000 A 
ATOM     13  C   UNL     1      20.469   2.594  51.947  0.00  0.00    +0.000 A 
BRANCH   4  15
ATOM     14  C   UNL     1      17.713   1.036  50.349  0.00  0.00    +0.000 C 
ATOM     15  N   UNL     1      18.165   1.696  51.572  0.00  0.00    +0.000 N 
ATOM     16  H   UNL     1      17.540   2.258  52.085  0.00  0.00    +0.000 HD
ENDBRANCH   4  15
ENDBRANCH   1   9
BRANCH   1  17
ATOM     17  N   UNL     1      25.280   2.740  53.329  0.00  0.00    +0.000 N 
ATOM     18  C   UNL     1      26.341   1.799  53.418  0.00  0.00    +0.000 A 
ATOM     19  N   UNL     1      27.541   2.320  53.098  0.00  0.00    +0.000 NA
ATOM     20  C   UNL     1      28.592   1.474  53.247  0.00  0.00    +0.000 A 
ATOM     21  C   UNL     1      28.455   0.157  53.670  0.00  0.00    +0.000 A 
ATOM     22 BR   UNL     1      29.984  -0.937  53.867  0.00  0.00    +0.000 Br
ATOM     23  N   UNL     1      27.252  -0.376  53.966  0.00  0.00    +0.000 NA
ATOM     24  C   UNL     1      26.187   0.455  53.825  0.00  0.00    +0.000 A 
ATOM     25  H   UNL     1      24.974   3.257  54.108  0.00  0.00    +0.000 HD
BRANCH  24  26
ATOM     26  O   UNL     1      24.935  -0.033  54.149  0.00  0.00    +0.000 OA
ATOM     27  C   UNL     1      24.982  -1.016  55.192  0.00  0.00    +0.000 C 
ENDBRANCH  24  26
ENDBRANCH   1  17
TORSDOF 4
ENDMDL
MODEL 9
REMARK VINA RESULT:    -7.091      3.539      7.094
REMARK INTER + INTRA:          -9.281
REMARK INTER:                  -9.159
REMARK INTRA:                  -0.122
REMARK UNBOUND:                -0.532
REMARK  Name = 
REMARK  6 active torsions:
REMARK  status: ('A' for Active; 'I' for Inactive)
REMARK    1  A    between atoms: C_1  and  N_2
REMARK    2  A    between atoms: N_2  and  C_3
REMARK    3  A    between atoms: C_8  and  S_9
REMARK    4  A    between atoms: S_9  and  N_12
REMARK    5  A    between atoms: C_19  and  O_20
REMARK    6  A    between atoms: O_20  and  C_21
REMARK                            x       y       z     vdW  Elec       q    Type
REMARK                         _______ _______ _______ _____ _____    ______ ____
ROOT
ATOM      1  S   UNL     1      22.267   1.625  51.380  0.00  0.00    +0.000 S 
ATOM      2  O   UNL     1      21.406   2.664  51.903  0.00  0.00    +0.000 OA
ATOM      3  O   UNL     1      23.184   1.949  50.302  0.00  0.00    +0.000 OA
ENDROOT
BRANCH   1   9
ATOM      4  C   UNL     1      26.876   0.216  53.515  0.00  0.00    +0.000 A 
ATOM      5  C   UNL     1      27.462   1.207  52.714  0.00  0.00    +0.000 A 
ATOM      6  C   UNL     1      26.709   2.220  52.145  0.00  0.00    +0.000 A 
ATOM      7  C   UNL     1      25.325   2.180  52.225  0.00  0.00    +0.000 A 
ATOM      8  C   UNL     1      24.646   1.105  52.835  0.00  0.00    +0.000 A 
ATOM      9  C   UNL     1      23.231   0.943  52.751  0.00  0.00    +0.000 A 
ATOM     10  C   UNL     1      22.586  -0.045  53.508  0.00  0.00    +0.000 A 
ATOM     11  C   UNL     1      23.331  -0.907  54.304  0.00  0.00    +0.000 A 
ATOM     12  C   UNL     1      24.728  -0.831  54.302  0.00  0.00    +0.000 A 
ATOM     13  C   UNL     1      25.435   0.154  53.564  0.00  0.00    +0.000 A 
BRANCH   4  15
ATOM     14  C   UNL     1      29.095  -0.903  53.701  0.00  0.00    +0.000 C 
ATOM     15  N   UNL     1      27.696  -0.769  54.103  0.00  0.00    +0.000 N 
ATOM     16  H   UNL     1      27.324  -1.370  54.787  0.00  0.00    +0.000 HD
ENDBRANCH   4  15
ENDBRANCH   1   9
BRANCH   1  17
ATOM     17  N   UNL     1      21.219   0.420  50.841  0.00  0.00    +0.000 N 
ATOM     18  C   UNL     1      19.841   0.766  50.791  0.00  0.00    +0.000 A 
ATOM     19  N   UNL     1      19.487   1.368  49.640  0.00  0.00    +0.000 NA
ATOM     20  C   UNL     1      18.162   1.642  49.521  0.00  0.00    +0.000 A 
ATOM     21  C   UNL     1      17.234   1.357  50.515  0.00  0.00    +0.000 A 
ATOM     22 BR   UNL     1      15.406   1.760  50.246  0.00  0.00    +0.000 Br
ATOM     23  N   UNL     1      17.590   0.779  51.680  0.00  0.00    +0.000 NA
ATOM     24  C   UNL     1      18.910   0.494  51.818  0.00  0.00    +0.000 A 
ATOM     25  H   UNL     1      21.543  -0.471  50.578  0.00  0.00    +0.000 HD
BRANCH  24  26
ATOM     26  O   UNL     1      19.322  -0.131  52.980  0.00  0.00    +0.000 OA
ATOM     27  C   UNL     1      18.461  -1.215  53.356  0.00  0.00    +0.000 C 
ENDBRANCH  24  26
ENDBRANCH   1  17
TORSDOF 4
ENDMDL
