MODEL 1
REMARK VINA RESULT:   -10.266      0.000      0.000
REMARK INTER + INTRA:         -12.500
REMARK INTER:                 -12.066
REMARK INTRA:                  -0.434
REMARK UNBOUND:                -0.434
REMARK  Name = 
REMARK  5 active torsions:
REMARK  status: ('A' for Active; 'I' for Inactive)
REMARK    1  A    between atoms: C_1  and  N_2
REMARK    2  A    between atoms: C_5  and  C_6
REMARK    3  A    between atoms: C_7  and  O_8
REMARK    4  A    between atoms: C_10  and  O_11
REMARK    5  A    between atoms: C_16  and  C_17
REMARK                            x       y       z     vdW  Elec       q    Type
REMARK                         _______ _______ _______ _____ _____    ______ ____
ROOT
ATOM      1  C   UNL     1      24.182  -0.321  54.040  0.00  0.00    +0.000 A 
ATOM      2  C   UNL     1      23.392  -1.076  54.927  0.00  0.00    +0.000 A 
ATOM      3  C   UNL     1      22.002  -0.986  54.911  0.00  0.00    +0.000 A 
ATOM      4  C   UNL     1      21.378  -0.125  54.010  0.00  0.00    +0.000 A 
ATOM      5  C   UNL     1      22.138   0.649  53.121  0.00  0.00    +0.000 A 
ATOM      6  C   UNL     1      21.509   1.586  52.160  0.00  0.00    +0.000 A 
ATOM      7  O   UNL     1      20.303   1.733  52.012  0.00  0.00    +0.000 OA
ATOM      8  C   UNL     1      22.420   2.388  51.333  0.00  0.00    +0.000 A 
ATOM      9  C   UNL     1      23.739   2.203  51.442  0.00  0.00    +0.000 A 
ATOM     10  O   UNL     1      24.340   1.290  52.284  0.00  0.00    +0.000 OA
ATOM     11  C   UNL     1      23.538   0.550  53.135  0.00  0.00    +0.000 A 
ENDROOT
BRANCH   1  16
ATOM     12  C   UNL     1      29.532   0.215  53.209  0.00  0.00    +0.000 C 
ATOM     13  N   UNL     1      28.588  -0.575  53.985  0.00  0.00    +0.000 N 
ATOM     14  C   UNL     1      27.882   0.221  54.985  0.00  0.00    +0.000 C 
ATOM     15  C   UNL     1      26.392   0.283  54.908  0.00  0.00    +0.000 C 
ATOM     16  C   UNL     1      25.653  -0.442  54.058  0.00  0.00    +0.000 C 
ATOM     17  C   UNL     1      26.277  -1.396  53.092  0.00  0.00    +0.000 C 
ATOM     18  C   UNL     1      27.811  -1.501  53.160  0.00  0.00    +0.000 C 
ATOM     19  H   UNL     1      29.109  -1.225  54.574  0.00  0.00    +0.000 HD
ENDBRANCH   1  16
BRANCH   9  20
ATOM     20  C   UNL     1      24.650   2.986  50.593  0.00  0.00    +0.000 A 
ATOM     21  C   UNL     1      24.124   4.078  49.884  0.00  0.00    +0.000 A 
ATOM     22  C   UNL     1      24.967   4.944  49.182  0.00  0.00    +0.000 A 
ATOM     23  C   UNL     1      26.343   4.725  49.185  0.00  0.00    +0.000 A 
ATOM     24 CL   UNL     1      27.384   5.826  48.368  0.00  0.00    +0.000 Cl
ATOM     25  C   UNL     1      26.882   3.629  49.852  0.00  0.00    +0.000 A 
ATOM     26  C   UNL     1      26.037   2.756  50.545  0.00  0.00    +0.000 A 
ATOM     27 CL   UNL     1      26.763   1.401  51.339  0.00  0.00    +0.000 Cl
ENDBRANCH   9  20
BRANCH   2  28
ATOM     28  O   UNL     1      23.997  -1.914  55.829  0.00  0.00    +0.000 OA
ATOM     29  H   UNL     1      24.523  -1.559  56.519  0.00  0.00    +0.000 HD
ENDBRANCH   2  28
BRANCH   4  30
ATOM     30  O   UNL     1      20.014  -0.047  54.014  0.00  0.00    +0.000 OA
ATOM     31  H   UNL     1      19.526  -0.322  53.263  0.00  0.00    +0.000 HD
ENDBRANCH   4  30
TORSDOF 4
ENDMDL
MODEL 2
REMARK VINA RESULT:    -9.933      2.176      2.577
REMARK INTER + INTRA:         -12.109
REMARK INTER:                 -11.171
REMARK INTRA:                  -0.938
REMARK UNBOUND:                -0.434
REMARK  Name = 
REMARK  5 active torsions:
REMARK  status: ('A' for Active; 'I' for Inactive)
REMARK    1  A    between atoms: C_1  and  N_2
REMARK    2  A    between atoms: C_5  and  C_6
REMARK    3  A    between atoms: C_7  and  O_8
REMARK    4  A    between atoms: C_10  and  O_11
REMARK    5  A    between atoms: C_16  and  C_17
REMARK                            x       y       z     vdW  Elec       q    Type
REMARK                         _______ _______ _______ _____ _____    ______ ____
ROOT
ATOM      1  C   UNL     1      24.123  -0.309  53.869  0.00  0.00    +0.000 A 
ATOM      2  C   UNL     1      23.932  -1.199  54.943  0.00  0.00    +0.000 A 
ATOM      3  C   UNL     1      22.671  -1.712  55.239  0.00  0.00    +0.000 A 
ATOM      4  C   UNL     1      21.574  -1.333  54.466  0.00  0.00    +0.000 A 
ATOM      5  C   UNL     1      21.731  -0.440  53.396  0.00  0.00    +0.000 A 
ATOM      6  C   UNL     1      20.586  -0.002  52.564  0.00  0.00    +0.000 A 
ATOM      7  O   UNL     1      19.437  -0.405  52.687  0.00  0.00    +0.000 OA
ATOM      8  C   UNL     1      20.874   0.988  51.519  0.00  0.00    +0.000 A 
ATOM      9  C   UNL     1      22.131   1.400  51.335  0.00  0.00    +0.000 A 
ATOM     10  O   UNL     1      23.220   0.956  52.056  0.00  0.00    +0.000 OA
ATOM     11  C   UNL     1      23.005   0.070  53.097  0.00  0.00    +0.000 A 
ENDROOT
BRANCH   1  16
ATOM     12  C   UNL     1      29.393   1.041  53.894  0.00  0.00    +0.000 C 
ATOM     13  N   UNL     1      28.198   1.192  53.078  0.00  0.00    +0.000 N 
ATOM     14  C   UNL     1      27.733  -0.077  52.528  0.00  0.00    +0.000 C 
ATOM     15  C   UNL     1      26.352  -0.530  52.876  0.00  0.00    +0.000 C 
ATOM     16  C   UNL     1      25.470   0.211  53.559  0.00  0.00    +0.000 C 
ATOM     17  C   UNL     1      25.804   1.585  54.041  0.00  0.00    +0.000 C 
ATOM     18  C   UNL     1      27.212   2.091  53.680  0.00  0.00    +0.000 C 
ATOM     19  H   UNL     1      28.440   1.705  52.230  0.00  0.00    +0.000 HD
ENDBRANCH   1  16
BRANCH   9  20
ATOM     20  C   UNL     1      22.424   2.371  50.268  0.00  0.00    +0.000 A 
ATOM     21  C   UNL     1      22.237   1.971  48.935  0.00  0.00    +0.000 A 
ATOM     22  C   UNL     1      22.354   2.894  47.891  0.00  0.00    +0.000 A 
ATOM     23  C   UNL     1      22.658   4.224  48.174  0.00  0.00    +0.000 A 
ATOM     24 CL   UNL     1      22.745   5.369  46.893  0.00  0.00    +0.000 Cl
ATOM     25  C   UNL     1      22.881   4.633  49.485  0.00  0.00    +0.000 A 
ATOM     26  C   UNL     1      22.775   3.708  50.528  0.00  0.00    +0.000 A 
ATOM     27 CL   UNL     1      23.082   4.273  52.134  0.00  0.00    +0.000 Cl
ENDBRANCH   9  20
BRANCH   2  28
ATOM     28  O   UNL     1      25.001  -1.566  55.720  0.00  0.00    +0.000 OA
ATOM     29  H   UNL     1      25.595  -2.226  55.420  0.00  0.00    +0.000 HD
ENDBRANCH   2  28
BRANCH   4  30
ATOM     30  O   UNL     1      20.346  -1.844  54.776  0.00  0.00    +0.000 OA
ATOM     31  H   UNL     1      20.271  -2.717  55.106  0.00  0.00    +0.000 HD
ENDBRANCH   4  30
TORSDOF 4
ENDMDL
MODEL 3
REMARK VINA RESULT:    -9.550      2.864      5.385
REMARK INTER + INTRA:         -11.658
REMARK INTER:                 -10.807
REMARK INTRA:                  -0.852
REMARK UNBOUND:                -0.434
REMARK  Name = 
REMARK  5 active torsions:
REMARK  status: ('A' for Active; 'I' for Inactive)
REMARK    1  A    between atoms: C_1  and  N_2
REMARK    2  A    between atoms: C_5  and  C_6
REMARK    3  A    between atoms: C_7  and  O_8
REMARK    4  A    between atoms: C_10  and  O_11
REMARK    5  A    between atoms: C_16  and  C_17
REMARK                            x       y       z     vdW  Elec       q    Type
REMARK                         _______ _______ _______ _____ _____    ______ ____
ROOT
ATOM      1  C   UNL     1      21.029   0.338  52.908  0.00  0.00    +0.000 A 
ATOM      2  C   UNL     1      20.355  -0.652  53.647  0.00  0.00    +0.000 A 
ATOM      3  C   UNL     1      21.034  -1.466  54.549  0.00  0.00    +0.000 A 
ATOM      4  C   UNL     1      22.409  -1.309  54.720  0.00  0.00    +0.000 A 
ATOM      5  C   UNL     1      23.111  -0.339  53.989  0.00  0.00    +0.000 A 
ATOM      6  C   UNL     1      24.575  -0.155  54.131  0.00  0.00    +0.000 A 
ATOM      7  O   UNL     1      25.285  -0.771  54.914  0.00  0.00    +0.000 OA
ATOM      8  C   UNL     1      25.198   0.849  53.260  0.00  0.00    +0.000 A 
ATOM      9  C   UNL     1      24.431   1.569  52.436  0.00  0.00    +0.000 A 
ATOM     10  O   UNL     1      23.060   1.457  52.336  0.00  0.00    +0.000 OA
ATOM     11  C   UNL     1      22.421   0.485  53.085  0.00  0.00    +0.000 A 
ENDROOT
BRANCH   1  16
ATOM     12  C   UNL     1      19.530   3.946  49.122  0.00  0.00    +0.000 C 
ATOM     13  N   UNL     1      18.953   2.991  50.056  0.00  0.00    +0.000 N 
ATOM     14  C   UNL     1      19.279   1.610  49.714  0.00  0.00    +0.000 C 
ATOM     15  C   UNL     1      20.016   0.792  50.724  0.00  0.00    +0.000 C 
ATOM     16  C   UNL     1      20.289   1.205  51.968  0.00  0.00    +0.000 C 
ATOM     17  C   UNL     1      19.869   2.551  52.460  0.00  0.00    +0.000 C 
ATOM     18  C   UNL     1      19.087   3.411  51.451  0.00  0.00    +0.000 C 
ATOM     19  H   UNL     1      17.939   2.994  49.946  0.00  0.00    +0.000 HD
ENDBRANCH   1  16
BRANCH   9  20
ATOM     20  C   UNL     1      25.053   2.594  51.583  0.00  0.00    +0.000 A 
ATOM     21  C   UNL     1      26.177   2.234  50.821  0.00  0.00    +0.000 A 
ATOM     22  C   UNL     1      26.716   3.119  49.884  0.00  0.00    +0.000 A 
ATOM     23  C   UNL     1      26.134   4.372  49.701  0.00  0.00    +0.000 A 
ATOM     24 CL   UNL     1      26.764   5.438  48.505  0.00  0.00    +0.000 Cl
ATOM     25  C   UNL     1      25.042   4.762  50.469  0.00  0.00    +0.000 A 
ATOM     26  C   UNL     1      24.509   3.881  51.415  0.00  0.00    +0.000 A 
ATOM     27 CL   UNL     1      23.163   4.430  52.353  0.00  0.00    +0.000 Cl
ENDBRANCH   9  20
BRANCH   2  28
ATOM     28  O   UNL     1      19.005  -0.826  53.476  0.00  0.00    +0.000 OA
ATOM     29  H   UNL     1      18.475  -1.119  54.191  0.00  0.00    +0.000 HD
ENDBRANCH   2  28
BRANCH   4  30
ATOM     30  O   UNL     1      23.058  -2.122  55.606  0.00  0.00    +0.000 OA
ATOM     31  H   UNL     1      23.498  -2.891  55.301  0.00  0.00    +0.000 HD
ENDBRANCH   4  30
TORSDOF 4
ENDMDL
MODEL 4
REMARK VINA RESULT:    -9.251      2.358      5.486
REMARK INTER + INTRA:         -11.307
REMARK INTER:                 -10.442
REMARK INTRA:                  -0.865
REMARK UNBOUND:                -0.434
REMARK  Name = 
REMARK  5 active torsions:
REMARK  status: ('A' for Active; 'I' for Inactive)
REMARK    1  A    between atoms: C_1  and  N_2
REMARK    2  A    between atoms: C_5  and  C_6
REMARK    3  A    between atoms: C_7  and  O_8
REMARK    4  A    between atoms: C_10  and  O_11
REMARK    5  A    between atoms: C_16  and  C_17
REMARK                            x       y       z     vdW  Elec       q    Type
REMARK                         _______ _______ _______ _____ _____    ______ ____
ROOT
ATOM      1  C   UNL     1      21.777   1.917  51.698  0.00  0.00    +0.000 A 
ATOM      2  C   UNL     1      20.384   1.987  51.508  0.00  0.00    +0.000 A 
ATOM      3  C   UNL     1      19.522   1.112  52.162  0.00  0.00    +0.000 A 
ATOM      4  C   UNL     1      20.043   0.140  53.016  0.00  0.00    +0.000 A 
ATOM      5  C   UNL     1      21.427   0.037  53.217  0.00  0.00    +0.000 A 
ATOM      6  C   UNL     1      22.018  -0.993  54.103  0.00  0.00    +0.000 A 
ATOM      7  O   UNL     1      21.376  -1.795  54.769  0.00  0.00    +0.000 OA
ATOM      8  C   UNL     1      23.484  -1.036  54.175  0.00  0.00    +0.000 A 
ATOM      9  C   UNL     1      24.200  -0.134  53.497  0.00  0.00    +0.000 A 
ATOM     10  O   UNL     1      23.667   0.872  52.719  0.00  0.00    +0.000 OA
ATOM     11  C   UNL     1      22.293   0.926  52.561  0.00  0.00    +0.000 A 
ENDROOT
BRANCH   1  16
ATOM     12  C   UNL     1      26.040   4.660  49.722  0.00  0.00    +0.000 C 
ATOM     13  N   UNL     1      24.585   4.677  49.702  0.00  0.00    +0.000 N 
ATOM     14  C   UNL     1      24.022   3.524  49.004  0.00  0.00    +0.000 C 
ATOM     15  C   UNL     1      23.109   2.620  49.766  0.00  0.00    +0.000 C 
ATOM     16  C   UNL     1      22.676   2.865  51.009  0.00  0.00    +0.000 C 
ATOM     17  C   UNL     1      23.082   4.094  51.755  0.00  0.00    +0.000 C 
ATOM     18  C   UNL     1      24.005   5.059  50.990  0.00  0.00    +0.000 C 
ATOM     19  H   UNL     1      24.272   5.446  49.109  0.00  0.00    +0.000 HD
ENDBRANCH   1  16
BRANCH   9  20
ATOM     20  C   UNL     1      25.668  -0.160  53.592  0.00  0.00    +0.000 A 
ATOM     21  C   UNL     1      26.325  -1.386  53.398  0.00  0.00    +0.000 A 
ATOM     22  C   UNL     1      27.720  -1.443  53.329  0.00  0.00    +0.000 A 
ATOM     23  C   UNL     1      28.468  -0.273  53.451  0.00  0.00    +0.000 A 
ATOM     24 CL   UNL     1      30.181  -0.338  53.307  0.00  0.00    +0.000 Cl
ATOM     25  C   UNL     1      27.838   0.947  53.678  0.00  0.00    +0.000 A 
ATOM     26  C   UNL     1      26.443   1.002  53.759  0.00  0.00    +0.000 A 
ATOM     27 CL   UNL     1      25.719   2.544  54.061  0.00  0.00    +0.000 Cl
ENDBRANCH   9  20
BRANCH   2  28
ATOM     28  O   UNL     1      19.862   2.929  50.657  0.00  0.00    +0.000 OA
ATOM     29  H   UNL     1      19.303   2.665  49.952  0.00  0.00    +0.000 HD
ENDBRANCH   2  28
BRANCH   4  30
ATOM     30  O   UNL     1      19.180  -0.712  53.645  0.00  0.00    +0.000 OA
ATOM     31  H   UNL     1      18.783  -1.414  53.167  0.00  0.00    +0.000 HD
ENDBRANCH   4  30
TORSDOF 4
ENDMDL
MODEL 5
REMARK VINA RESULT:    -9.099      3.565      7.250
REMARK INTER + INTRA:         -11.129
REMARK INTER:                 -10.464
REMARK INTRA:                  -0.665
REMARK UNBOUND:                -0.434
REMARK  Name = 
REMARK  5 active torsions:
REMARK  status: ('A' for Active; 'I' for Inactive)
REMARK    1  A    between atoms: C_1  and  N_2
REMARK    2  A    between atoms: C_5  and  C_6
REMARK    3  A    between atoms: C_7  and  O_8
REMARK    4  A    between atoms: C_10  and  O_11
REMARK    5  A    between atoms: C_16  and  C_17
REMARK                            x       y       z     vdW  Elec       q    Type
REMARK                         _______ _______ _______ _____ _____    ______ ____
ROOT
ATOM      1  C   UNL     1      24.901   2.670  51.022  0.00  0.00    +0.000 A 
ATOM      2  C   UNL     1      26.258   3.042  51.063  0.00  0.00    +0.000 A 
ATOM      3  C   UNL     1      27.181   2.318  51.814  0.00  0.00    +0.000 A 
ATOM      4  C   UNL     1      26.757   1.210  52.547  0.00  0.00    +0.000 A 
ATOM      5  C   UNL     1      25.409   0.821  52.534  0.00  0.00    +0.000 A 
ATOM      6  C   UNL     1      24.919  -0.340  53.313  0.00  0.00    +0.000 A 
ATOM      7  O   UNL     1      25.626  -1.085  53.979  0.00  0.00    +0.000 OA
ATOM      8  C   UNL     1      23.475  -0.600  53.267  0.00  0.00    +0.000 A 
ATOM      9  C   UNL     1      22.694   0.171  52.503  0.00  0.00    +0.000 A 
ATOM     10  O   UNL     1      23.141   1.215  51.721  0.00  0.00    +0.000 OA
ATOM     11  C   UNL     1      24.482   1.549  51.771  0.00  0.00    +0.000 A 
ENDROOT
BRANCH   1  16
ATOM     12  C   UNL     1      22.444   6.204  47.694  0.00  0.00    +0.000 C 
ATOM     13  N   UNL     1      22.141   5.062  48.543  0.00  0.00    +0.000 N 
ATOM     14  C   UNL     1      22.733   3.824  48.047  0.00  0.00    +0.000 C 
ATOM     15  C   UNL     1      23.686   3.095  48.937  0.00  0.00    +0.000 C 
ATOM     16  C   UNL     1      23.939   3.439  50.206  0.00  0.00    +0.000 C 
ATOM     17  C   UNL     1      23.270   4.608  50.852  0.00  0.00    +0.000 C 
ATOM     18  C   UNL     1      22.264   5.368  49.969  0.00  0.00    +0.000 C 
ATOM     19  H   UNL     1      21.145   4.854  48.472  0.00  0.00    +0.000 HD
ENDBRANCH   1  16
BRANCH   9  20
ATOM     20  C   UNL     1      21.251  -0.108  52.436  0.00  0.00    +0.000 A 
ATOM     21  C   UNL     1      20.625  -0.656  53.567  0.00  0.00    +0.000 A 
ATOM     22  C   UNL     1      19.236  -0.802  53.613  0.00  0.00    +0.000 A 
ATOM     23  C   UNL     1      18.461  -0.398  52.527  0.00  0.00    +0.000 A 
ATOM     24 CL   UNL     1      16.747  -0.524  52.609  0.00  0.00    +0.000 Cl
ATOM     25  C   UNL     1      19.064   0.115  51.382  0.00  0.00    +0.000 A 
ATOM     26  C   UNL     1      20.455   0.250  51.332  0.00  0.00    +0.000 A 
ATOM     27 CL   UNL     1      21.146   0.877  49.876  0.00  0.00    +0.000 Cl
ENDBRANCH   9  20
BRANCH   2  28
ATOM     28  O   UNL     1      26.683   4.140  50.360  0.00  0.00    +0.000 OA
ATOM     29  H   UNL     1      26.229   4.955  50.443  0.00  0.00    +0.000 HD
ENDBRANCH   2  28
BRANCH   4  30
ATOM     30  O   UNL     1      27.677   0.517  53.280  0.00  0.00    +0.000 OA
ATOM     31  H   UNL     1      28.452   0.945  53.586  0.00  0.00    +0.000 HD
ENDBRANCH   4  30
TORSDOF 4
ENDMDL
MODEL 6
REMARK VINA RESULT:    -8.968      3.713      7.259
REMARK INTER + INTRA:         -10.975
REMARK INTER:                 -10.671
REMARK INTRA:                  -0.304
REMARK UNBOUND:                -0.434
REMARK  Name = 
REMARK  5 active torsions:
REMARK  status: ('A' for Active; 'I' for Inactive)
REMARK    1  A    between atoms: C_1  and  N_2
REMARK    2  A    between atoms: C_5  and  C_6
REMARK    3  A    between atoms: C_7  and  O_8
REMARK    4  A    between atoms: C_10  and  O_11
REMARK    5  A    between atoms: C_16  and  C_17
REMARK                            x       y       z     vdW  Elec       q    Type
REMARK                         _______ _______ _______ _____ _____    ______ ____
ROOT
ATOM      1  C   UNL     1      24.893   2.727  51.023  0.00  0.00    +0.000 A 
ATOM      2  C   UNL     1      26.266   3.036  51.028  0.00  0.00    +0.000 A 
ATOM      3  C   UNL     1      27.177   2.259  51.739  0.00  0.00    +0.000 A 
ATOM      4  C   UNL     1      26.725   1.160  52.468  0.00  0.00    +0.000 A 
ATOM      5  C   UNL     1      25.361   0.833  52.492  0.00  0.00    +0.000 A 
ATOM      6  C   UNL     1      24.842  -0.317  53.269  0.00  0.00    +0.000 A 
ATOM      7  O   UNL     1      25.534  -1.104  53.902  0.00  0.00    +0.000 OA
ATOM      8  C   UNL     1      23.386  -0.510  53.264  0.00  0.00    +0.000 A 
ATOM      9  C   UNL     1      22.620   0.307  52.536  0.00  0.00    +0.000 A 
ATOM     10  O   UNL     1      23.090   1.342  51.755  0.00  0.00    +0.000 OA
ATOM     11  C   UNL     1      24.446   1.615  51.768  0.00  0.00    +0.000 A 
ENDROOT
BRANCH   1  16
ATOM     12  C   UNL     1      22.502   6.416  47.818  0.00  0.00    +0.000 C 
ATOM     13  N   UNL     1      22.171   5.280  48.665  0.00  0.00    +0.000 N 
ATOM     14  C   UNL     1      22.685   4.021  48.136  0.00  0.00    +0.000 C 
ATOM     15  C   UNL     1      23.631   3.236  48.985  0.00  0.00    +0.000 C 
ATOM     16  C   UNL     1      23.942   3.551  50.249  0.00  0.00    +0.000 C 
ATOM     17  C   UNL     1      23.355   4.745  50.929  0.00  0.00    +0.000 C 
ATOM     18  C   UNL     1      22.358   5.563  50.089  0.00  0.00    +0.000 C 
ATOM     19  H   UNL     1      21.165   5.122  48.627  0.00  0.00    +0.000 HD
ENDBRANCH   1  16
BRANCH   9  20
ATOM     20  C   UNL     1      21.163   0.096  52.509  0.00  0.00    +0.000 A 
ATOM     21  C   UNL     1      20.451   0.513  51.373  0.00  0.00    +0.000 A 
ATOM     22  C   UNL     1      19.096   0.204  51.229  0.00  0.00    +0.000 A 
ATOM     23  C   UNL     1      18.442  -0.525  52.220  0.00  0.00    +0.000 A 
ATOM     24 CL   UNL     1      16.789  -0.954  52.013  0.00  0.00    +0.000 Cl
ATOM     25  C   UNL     1      19.121  -0.919  53.369  0.00  0.00    +0.000 A 
ATOM     26  C   UNL     1      20.474  -0.600  53.519  0.00  0.00    +0.000 A 
ATOM     27 CL   UNL     1      21.258  -1.100  54.978  0.00  0.00    +0.000 Cl
ENDBRANCH   9  20
BRANCH   2  28
ATOM     28  O   UNL     1      26.720   4.124  50.327  0.00  0.00    +0.000 OA
ATOM     29  H   UNL     1      27.640   4.291  50.264  0.00  0.00    +0.000 HD
ENDBRANCH   2  28
BRANCH   4  30
ATOM     30  O   UNL     1      27.634   0.414  53.163  0.00  0.00    +0.000 OA
ATOM     31  H   UNL     1      27.544  -0.518  53.202  0.00  0.00    +0.000 HD
ENDBRANCH   4  30
TORSDOF 4
ENDMDL
MODEL 7
REMARK VINA RESULT:    -8.362      2.756      5.130
REMARK INTER + INTRA:         -10.262
REMARK INTER:                  -9.513
REMARK INTRA:                  -0.749
REMARK UNBOUND:                -0.434
REMARK  Name = 
REMARK  5 active torsions:
REMARK  status: ('A' for Active; 'I' for Inactive)
REMARK    1  A    between atoms: C_1  and  N_2
REMARK    2  A    between atoms: C_5  and  C_6
REMARK    3  A    between atoms: C_7  and  O_8
REMARK    4  A    between atoms: C_10  and  O_11
REMARK    5  A    between atoms: C_16  and  C_17
REMARK                            x       y       z     vdW  Elec       q    Type
REMARK                         _______ _______ _______ _____ _____    ______ ____
ROOT
ATOM      1  C   UNL     1      22.563   0.460  52.898  0.00  0.00    +0.000 A 
ATOM      2  C   UNL     1      22.536  -0.689  53.710  0.00  0.00    +0.000 A 
ATOM      3  C   UNL     1      23.670  -1.112  54.399  0.00  0.00    +0.000 A 
ATOM      4  C   UNL     1      24.858  -0.392  54.278  0.00  0.00    +0.000 A 
ATOM      5  C   UNL     1      24.919   0.751  53.467  0.00  0.00    +0.000 A 
ATOM      6  C   UNL     1      26.168   1.531  53.302  0.00  0.00    +0.000 A 
ATOM      7  O   UNL     1      27.222   1.297  53.879  0.00  0.00    +0.000 OA
ATOM      8  C   UNL     1      26.115   2.667  52.372  0.00  0.00    +0.000 A 
ATOM      9  C   UNL     1      24.960   2.970  51.774  0.00  0.00    +0.000 A 
ATOM     10  O   UNL     1      23.772   2.296  51.965  0.00  0.00    +0.000 OA
ATOM     11  C   UNL     1      23.772   1.178  52.780  0.00  0.00    +0.000 A 
ENDROOT
BRANCH   1  16
ATOM     12  C   UNL     1      17.555   1.000  50.840  0.00  0.00    +0.000 C 
ATOM     13  N   UNL     1      18.852   1.659  50.829  0.00  0.00    +0.000 N 
ATOM     14  C   UNL     1      19.211   2.210  52.133  0.00  0.00    +0.000 C 
ATOM     15  C   UNL     1      20.465   1.721  52.780  0.00  0.00    +0.000 C 
ATOM     16  C   UNL     1      21.345   0.904  52.188  0.00  0.00    +0.000 C 
ATOM     17  C   UNL     1      21.138   0.400  50.797  0.00  0.00    +0.000 C 
ATOM     18  C   UNL     1      19.866   0.902  50.092  0.00  0.00    +0.000 C 
ATOM     19  H   UNL     1      18.787   2.505  50.262  0.00  0.00    +0.000 HD
ENDBRANCH   1  16
BRANCH   9  20
ATOM     20  C   UNL     1      24.901   4.125  50.864  0.00  0.00    +0.000 A 
ATOM     21  C   UNL     1      24.032   5.181  51.185  0.00  0.00    +0.000 A 
ATOM     22  C   UNL     1      24.044   6.365  50.442  0.00  0.00    +0.000 A 
ATOM     23  C   UNL     1      24.926   6.502  49.372  0.00  0.00    +0.000 A 
ATOM     24 CL   UNL     1      24.980   7.981  48.495  0.00  0.00    +0.000 Cl
ATOM     25  C   UNL     1      25.770   5.454  49.015  0.00  0.00    +0.000 A 
ATOM     26  C   UNL     1      25.751   4.266  49.752  0.00  0.00    +0.000 A 
ATOM     27 CL   UNL     1      26.810   2.994  49.248  0.00  0.00    +0.000 Cl
ENDBRANCH   9  20
BRANCH   2  28
ATOM     28  O   UNL     1      21.377  -1.414  53.823  0.00  0.00    +0.000 OA
ATOM     29  H   UNL     1      21.413  -2.325  54.044  0.00  0.00    +0.000 HD
ENDBRANCH   2  28
BRANCH   4  30
ATOM     30  O   UNL     1      25.961  -0.826  54.958  0.00  0.00    +0.000 OA
ATOM     31  H   UNL     1      26.793  -0.425  54.805  0.00  0.00    +0.000 HD
ENDBRANCH   4  30
TORSDOF 4
ENDMDL
MODEL 8
REMARK VINA RESULT:    -8.175      3.418      5.593
REMARK INTER + INTRA:         -10.043
REMARK INTER:                  -9.505
REMARK INTRA:                  -0.538
REMARK UNBOUND:                -0.434
REMARK  Name = 
REMARK  5 active torsions:
REMARK  status: ('A' for Active; 'I' for Inactive)
REMARK    1  A    between atoms: C_1  and  N_2
REMARK    2  A    between atoms: C_5  and  C_6
REMARK    3  A    between atoms: C_7  and  O_8
REMARK    4  A    between atoms: C_10  and  O_11
REMARK    5  A    between atoms: C_16  and  C_17
REMARK                            x       y       z     vdW  Elec       q    Type
REMARK                         _______ _______ _______ _____ _____    ______ ____
ROOT
ATOM      1  C   UNL     1      24.215   0.493  53.268  0.00  0.00    +0.000 A 
ATOM      2  C   UNL     1      25.343   0.108  54.017  0.00  0.00    +0.000 A 
ATOM      3  C   UNL     1      26.611   0.598  53.713  0.00  0.00    +0.000 A 
ATOM      4  C   UNL     1      26.773   1.477  52.644  0.00  0.00    +0.000 A 
ATOM      5  C   UNL     1      25.669   1.870  51.872  0.00  0.00    +0.000 A 
ATOM      6  C   UNL     1      25.805   2.790  50.718  0.00  0.00    +0.000 A 
ATOM      7  O   UNL     1      26.849   3.324  50.368  0.00  0.00    +0.000 OA
ATOM      8  C   UNL     1      24.584   3.068  49.952  0.00  0.00    +0.000 A 
ATOM      9  C   UNL     1      23.425   2.536  50.351  0.00  0.00    +0.000 A 
ATOM     10  O   UNL     1      23.267   1.730  51.459  0.00  0.00    +0.000 OA
ATOM     11  C   UNL     1      24.391   1.380  52.185  0.00  0.00    +0.000 A 
ENDROOT
BRANCH   1  16
ATOM     12  C   UNL     1      19.060  -1.248  53.240  0.00  0.00    +0.000 C 
ATOM     13  N   UNL     1      20.168  -1.029  54.158  0.00  0.00    +0.000 N 
ATOM     14  C   UNL     1      21.286  -1.934  53.910  0.00  0.00    +0.000 C 
ATOM     15  C   UNL     1      22.614  -1.336  53.579  0.00  0.00    +0.000 C 
ATOM     16  C   UNL     1      22.875  -0.023  53.615  0.00  0.00    +0.000 C 
ATOM     17  C   UNL     1      21.832   0.975  53.999  0.00  0.00    +0.000 C 
ATOM     18  C   UNL     1      20.457   0.390  54.368  0.00  0.00    +0.000 C 
ATOM     19  H   UNL     1      19.881  -1.312  55.094  0.00  0.00    +0.000 HD
ENDBRANCH   1  16
BRANCH   9  20
ATOM     20  C   UNL     1      22.196   2.838  49.599  0.00  0.00    +0.000 A 
ATOM     21  C   UNL     1      22.059   2.307  48.307  0.00  0.00    +0.000 A 
ATOM     22  C   UNL     1      20.856   2.436  47.607  0.00  0.00    +0.000 A 
ATOM     23  C   UNL     1      19.780   3.096  48.197  0.00  0.00    +0.000 A 
ATOM     24 CL   UNL     1      18.282   3.202  47.357  0.00  0.00    +0.000 Cl
ATOM     25  C   UNL     1      19.905   3.660  49.463  0.00  0.00    +0.000 A 
ATOM     26  C   UNL     1      21.113   3.541  50.158  0.00  0.00    +0.000 A 
ATOM     27 CL   UNL     1      21.214   4.278  51.720  0.00  0.00    +0.000 Cl
ENDBRANCH   9  20
BRANCH   2  28
ATOM     28  O   UNL     1      25.199  -0.770  55.062  0.00  0.00    +0.000 OA
ATOM     29  H   UNL     1      25.893  -1.361  55.276  0.00  0.00    +0.000 HD
ENDBRANCH   2  28
BRANCH   4  30
ATOM     30  O   UNL     1      28.026   1.942  52.359  0.00  0.00    +0.000 OA
ATOM     31  H   UNL     1      28.204   2.329  51.525  0.00  0.00    +0.000 HD
ENDBRANCH   4  30
TORSDOF 4
ENDMDL
MODEL 9
REMARK VINA RESULT:    -8.029      2.722      6.091
REMARK INTER + INTRA:          -9.872
REMARK INTER:                  -9.265
REMARK INTRA:                  -0.607
REMARK UNBOUND:                -0.434
REMARK  Name = 
REMARK  5 active torsions:
REMARK  status: ('A' for Active; 'I' for Inactive)
REMARK    1  A    between atoms: C_1  and  N_2
REMARK    2  A    between atoms: C_5  and  C_6
REMARK    3  A    between atoms: C_7  and  O_8
REMARK    4  A    between atoms: C_10  and  O_11
REMARK    5  A    between atoms: C_16  and  C_17
REMARK                            x       y       z     vdW  Elec       q    Type
REMARK                         _______ _______ _______ _____ _____    ______ ____
ROOT
ATOM      1  C   UNL     1      21.527   4.074  50.870  0.00  0.00    +0.000 A 
ATOM      2  C   UNL     1      20.235   4.513  50.524  0.00  0.00    +0.000 A 
ATOM      3  C   UNL     1      19.108   3.759  50.842  0.00  0.00    +0.000 A 
ATOM      4  C   UNL     1      19.257   2.543  51.507  0.00  0.00    +0.000 A 
ATOM      5  C   UNL     1      20.533   2.073  51.855  0.00  0.00    +0.000 A 
ATOM      6  C   UNL     1      20.731   0.779  52.547  0.00  0.00    +0.000 A 
ATOM      7  O   UNL     1      19.830   0.039  52.921  0.00  0.00    +0.000 OA
ATOM      8  C   UNL     1      22.120   0.372  52.795  0.00  0.00    +0.000 A 
ATOM      9  C   UNL     1      23.115   1.191  52.442  0.00  0.00    +0.000 A 
ATOM     10  O   UNL     1      22.948   2.428  51.856  0.00  0.00    +0.000 OA
ATOM     11  C   UNL     1      21.666   2.840  51.539  0.00  0.00    +0.000 A 
ENDROOT
BRANCH   1  16
ATOM     12  C   UNL     1      24.960   7.968  49.243  0.00  0.00    +0.000 C 
ATOM     13  N   UNL     1      24.967   6.636  49.827  0.00  0.00    +0.000 N 
ATOM     14  C   UNL     1      24.414   6.615  51.178  0.00  0.00    +0.000 C 
ATOM     15  C   UNL     1      23.225   5.748  51.436  0.00  0.00    +0.000 C 
ATOM     16  C   UNL     1      22.710   4.895  50.541  0.00  0.00    +0.000 C 
ATOM     17  C   UNL     1      23.297   4.739  49.176  0.00  0.00    +0.000 C 
ATOM     18  C   UNL     1      24.537   5.602  48.884  0.00  0.00    +0.000 C 
ATOM     19  H   UNL     1      25.933   6.356  49.999  0.00  0.00    +0.000 HD
ENDBRANCH   1  16
BRANCH   9  20
ATOM     20  C   UNL     1      24.506   0.795  52.716  0.00  0.00    +0.000 A 
ATOM     21  C   UNL     1      24.737  -0.200  53.680  0.00  0.00    +0.000 A 
ATOM     22  C   UNL     1      26.020  -0.720  53.874  0.00  0.00    +0.000 A 
ATOM     23  C   UNL     1      27.082  -0.249  53.104  0.00  0.00    +0.000 A 
ATOM     24 CL   UNL     1      28.648  -0.931  53.304  0.00  0.00    +0.000 Cl
ATOM     25  C   UNL     1      26.881   0.761  52.168  0.00  0.00    +0.000 A 
ATOM     26  C   UNL     1      25.599   1.289  51.981  0.00  0.00    +0.000 A 
ATOM     27 CL   UNL     1      25.417   2.555  50.817  0.00  0.00    +0.000 Cl
ENDBRANCH   9  20
BRANCH   2  28
ATOM     28  O   UNL     1      20.077   5.700  49.855  0.00  0.00    +0.000 OA
ATOM     29  H   UNL     1      19.821   6.472  50.322  0.00  0.00    +0.000 HD
ENDBRANCH   2  28
BRANCH   4  30
ATOM     30  O   UNL     1      18.140   1.816  51.805  0.00  0.00    +0.000 OA
ATOM     31  H   UNL     1      17.558   1.549  51.121  0.00  0.00    +0.000 HD
ENDBRANCH   4  30
TORSDOF 4
ENDMDL
