MODEL 1
REMARK VINA RESULT:    -8.704      0.000      0.000
REMARK INTER + INTRA:         -13.881
REMARK INTER:                 -12.775
REMARK INTRA:                  -1.106
REMARK UNBOUND:                -1.106
REMARK  Name = 
REMARK  12 active torsions:
REMARK  status: ('A' for Active; 'I' for Inactive)
REMARK    1  A    between atoms: C_1  and  C_2
REMARK    2  A    between atoms: C_2  and  C_3
REMARK    3  A    between atoms: C_4  and  C_5
REMARK    4  A    between atoms: C_5  and  O_7
REMARK    5  A    between atoms: O_7  and  C_8
REMARK    6  A    between atoms: C_8  and  C_9
REMARK    7  A    between atoms: C_8  and  C_14
REMARK    8  A    between atoms: C_9  and  C_10
REMARK    9  A    between atoms: C_11  and  C_12
REMARK   10  A    between atoms: C_11  and  C_13
REMARK   11  A    between atoms: C_19  and  O_20
REMARK   12  A    between atoms: C_23  and  O_24
REMARK                            x       y       z     vdW  Elec       q    Type
REMARK                         _______ _______ _______ _____ _____    ______ ____
ROOT
ATOM      1  C   UNL     1      25.018   0.575  52.441  0.00  0.00    +0.000 C 
ATOM      2  C   UNL     1      25.288  -0.722  52.224  0.00  0.00    +0.000 C 
ATOM      3  C   UNL     1      26.583  -1.344  52.541  0.00  0.00    +0.000 C 
ATOM      4  O   UNL     1      26.764  -2.540  52.327  0.00  0.00    +0.000 OA
ATOM      5  C   UNL     1      27.646  -0.517  53.126  0.00  0.00    +0.000 A 
ATOM      6  C   UNL     1      28.888  -1.091  53.449  0.00  0.00    +0.000 A 
ATOM      7  C   UNL     1      29.901  -0.327  54.020  0.00  0.00    +0.000 A 
ATOM      8  C   UNL     1      29.689   1.025  54.267  0.00  0.00    +0.000 A 
ATOM      9  C   UNL     1      28.459   1.602  53.945  0.00  0.00    +0.000 A 
ATOM     10  C   UNL     1      27.420   0.834  53.377  0.00  0.00    +0.000 A 
ATOM     11  C   UNL     1      26.086   1.419  53.084  0.00  0.00    +0.000 C 
ATOM     12  O   UNL     1      25.850   2.573  53.414  0.00  0.00    +0.000 OA
ENDROOT
BRANCH   6  13
ATOM     13  O   UNL     1      29.181  -2.412  53.244  0.00  0.00    +0.000 OA
ATOM     14  H   UNL     1      29.446  -2.707  52.395  0.00  0.00    +0.000 HD
ENDBRANCH   6  13
BRANCH   9  15
ATOM     15  O   UNL     1      28.297   2.935  54.202  0.00  0.00    +0.000 OA
ATOM     16  H   UNL     1      28.576   3.571  53.572  0.00  0.00    +0.000 HD
ENDBRANCH   9  15
BRANCH   1  17
ATOM     17  C   UNL     1      23.662   1.231  52.093  0.00  0.00    +0.000 C 
BRANCH  17  18
ATOM     18  O   UNL     1      23.807   2.586  51.533  0.00  0.00    +0.000 OA
BRANCH  18  19
ATOM     19  C   UNL     1      23.748   2.738  50.186  0.00  0.00    +0.000 C 
ATOM     20  O   UNL     1      22.863   2.287  49.469  0.00  0.00    +0.000 OA
BRANCH  19  22
ATOM     21  C   UNL     1      26.160   3.389  49.631  0.00  0.00    +0.000 C 
ATOM     22  C   UNL     1      24.827   3.583  49.609  0.00  0.00    +0.000 C 
BRANCH  21  24
ATOM     23  C   UNL     1      26.791   5.739  48.681  0.00  0.00    +0.000 C 
ATOM     24  C   UNL     1      27.206   4.311  49.035  0.00  0.00    +0.000 C 
ENDBRANCH  21  24
ENDBRANCH  19  22
ENDBRANCH  18  19
ENDBRANCH  17  18
BRANCH  17  25
ATOM     25  C   UNL     1      22.609   1.174  53.232  0.00  0.00    +0.000 C 
BRANCH  25  26
ATOM     26  C   UNL     1      21.533   0.124  53.203  0.00  0.00    +0.000 C 
ATOM     27  C   UNL     1      21.534  -0.911  54.071  0.00  0.00    +0.000 C 
ATOM     28  C   UNL     1      20.341  -1.807  54.206  0.00  0.00    +0.000 C 
ATOM     29  C   UNL     1      22.669  -1.185  55.032  0.00  0.00    +0.000 C 
ENDBRANCH  25  26
ENDBRANCH  17  25
ENDBRANCH   1  17
TORSDOF 9
ENDMDL
MODEL 2
REMARK VINA RESULT:    -8.442      2.280      4.436
REMARK INTER + INTRA:         -13.496
REMARK INTER:                 -11.988
REMARK INTRA:                  -1.507
REMARK UNBOUND:                -1.106
REMARK  Name = 
REMARK  12 active torsions:
REMARK  status: ('A' for Active; 'I' for Inactive)
REMARK    1  A    between atoms: C_1  and  C_2
REMARK    2  A    between atoms: C_2  and  C_3
REMARK    3  A    between atoms: C_4  and  C_5
REMARK    4  A    between atoms: C_5  and  O_7
REMARK    5  A    between atoms: O_7  and  C_8
REMARK    6  A    between atoms: C_8  and  C_9
REMARK    7  A    between atoms: C_8  and  C_14
REMARK    8  A    between atoms: C_9  and  C_10
REMARK    9  A    between atoms: C_11  and  C_12
REMARK   10  A    between atoms: C_11  and  C_13
REMARK   11  A    between atoms: C_19  and  O_20
REMARK   12  A    between atoms: C_23  and  O_24
REMARK                            x       y       z     vdW  Elec       q    Type
REMARK                         _______ _______ _______ _____ _____    ______ ____
ROOT
ATOM      1  C   UNL     1      24.788   0.332  53.098  0.00  0.00    +0.000 C 
ATOM      2  C   UNL     1      25.127  -0.934  52.808  0.00  0.00    +0.000 C 
ATOM      3  C   UNL     1      26.510  -1.433  52.858  0.00  0.00    +0.000 C 
ATOM      4  O   UNL     1      26.754  -2.607  52.590  0.00  0.00    +0.000 OA
ATOM      5  C   UNL     1      27.586  -0.512  53.243  0.00  0.00    +0.000 A 
ATOM      6  C   UNL     1      28.914  -0.969  53.309  0.00  0.00    +0.000 A 
ATOM      7  C   UNL     1      29.945  -0.115  53.689  0.00  0.00    +0.000 A 
ATOM      8  C   UNL     1      29.663   1.211  53.998  0.00  0.00    +0.000 A 
ATOM      9  C   UNL     1      28.347   1.672  53.930  0.00  0.00    +0.000 A 
ATOM     10  C   UNL     1      27.291   0.812  53.559  0.00  0.00    +0.000 A 
ATOM     11  C   UNL     1      25.879   1.270  53.539  0.00  0.00    +0.000 C 
ATOM     12  O   UNL     1      25.608   2.397  53.930  0.00  0.00    +0.000 OA
ENDROOT
BRANCH   6  13
ATOM     13  O   UNL     1      29.281  -2.256  53.026  0.00  0.00    +0.000 OA
ATOM     14  H   UNL     1      29.004  -2.956  53.584  0.00  0.00    +0.000 HD
ENDBRANCH   6  13
BRANCH   9  15
ATOM     15  O   UNL     1      28.118   2.984  54.239  0.00  0.00    +0.000 OA
ATOM     16  H   UNL     1      27.409   3.215  54.807  0.00  0.00    +0.000 HD
ENDBRANCH   9  15
BRANCH   1  17
ATOM     17  C   UNL     1      23.336   0.860  53.029  0.00  0.00    +0.000 C 
BRANCH  17  18
ATOM     18  O   UNL     1      22.333  -0.219  53.025  0.00  0.00    +0.000 OA
BRANCH  18  19
ATOM     19  C   UNL     1      21.269  -0.115  53.861  0.00  0.00    +0.000 C 
ATOM     20  O   UNL     1      21.345   0.059  55.072  0.00  0.00    +0.000 OA
BRANCH  19  22
ATOM     21  C   UNL     1      19.652  -0.010  51.881  0.00  0.00    +0.000 C 
ATOM     22  C   UNL     1      19.944  -0.154  53.188  0.00  0.00    +0.000 C 
BRANCH  21  24
ATOM     23  C   UNL     1      18.002   0.827  50.037  0.00  0.00    +0.000 C 
ATOM     24  C   UNL     1      18.265  -0.040  51.268  0.00  0.00    +0.000 C 
ENDBRANCH  21  24
ENDBRANCH  19  22
ENDBRANCH  18  19
ENDBRANCH  17  18
BRANCH  17  25
ATOM     25  C   UNL     1      23.083   1.903  51.908  0.00  0.00    +0.000 C 
BRANCH  25  26
ATOM     26  C   UNL     1      22.702   1.440  50.529  0.00  0.00    +0.000 C 
ATOM     27  C   UNL     1      21.751   2.075  49.810  0.00  0.00    +0.000 C 
ATOM     28  C   UNL     1      21.553   1.772  48.355  0.00  0.00    +0.000 C 
ATOM     29  C   UNL     1      20.897   3.190  50.368  0.00  0.00    +0.000 C 
ENDBRANCH  25  26
ENDBRANCH  17  25
ENDBRANCH   1  17
TORSDOF 9
ENDMDL
MODEL 3
REMARK VINA RESULT:    -8.383      0.952      2.460
REMARK INTER + INTRA:         -13.409
REMARK INTER:                 -12.054
REMARK INTRA:                  -1.355
REMARK UNBOUND:                -1.106
REMARK  Name = 
REMARK  12 active torsions:
REMARK  status: ('A' for Active; 'I' for Inactive)
REMARK    1  A    between atoms: C_1  and  C_2
REMARK    2  A    between atoms: C_2  and  C_3
REMARK    3  A    between atoms: C_4  and  C_5
REMARK    4  A    between atoms: C_5  and  O_7
REMARK    5  A    between atoms: O_7  and  C_8
REMARK    6  A    between atoms: C_8  and  C_9
REMARK    7  A    between atoms: C_8  and  C_14
REMARK    8  A    between atoms: C_9  and  C_10
REMARK    9  A    between atoms: C_11  and  C_12
REMARK   10  A    between atoms: C_11  and  C_13
REMARK   11  A    between atoms: C_19  and  O_20
REMARK   12  A    between atoms: C_23  and  O_24
REMARK                            x       y       z     vdW  Elec       q    Type
REMARK                         _______ _______ _______ _____ _____    ______ ____
ROOT
ATOM      1  C   UNL     1      25.648   1.134  52.559  0.00  0.00    +0.000 C 
ATOM      2  C   UNL     1      26.523   2.073  52.952  0.00  0.00    +0.000 C 
ATOM      3  C   UNL     1      27.904   1.774  53.360  0.00  0.00    +0.000 C 
ATOM      4  O   UNL     1      28.659   2.682  53.701  0.00  0.00    +0.000 OA
ATOM      5  C   UNL     1      28.367   0.381  53.341  0.00  0.00    +0.000 A 
ATOM      6  C   UNL     1      29.686   0.072  53.714  0.00  0.00    +0.000 A 
ATOM      7  C   UNL     1      30.147  -1.241  53.685  0.00  0.00    +0.000 A 
ATOM      8  C   UNL     1      29.292  -2.264  53.292  0.00  0.00    +0.000 A 
ATOM      9  C   UNL     1      27.979  -1.964  52.924  0.00  0.00    +0.000 A 
ATOM     10  C   UNL     1      27.504  -0.634  52.936  0.00  0.00    +0.000 A 
ATOM     11  C   UNL     1      26.129  -0.291  52.491  0.00  0.00    +0.000 C 
ATOM     12  O   UNL     1      25.413  -1.166  52.025  0.00  0.00    +0.000 OA
ENDROOT
BRANCH   6  13
ATOM     13  O   UNL     1      30.595   1.015  54.111  0.00  0.00    +0.000 OA
ATOM     14  H   UNL     1      31.346   1.195  53.580  0.00  0.00    +0.000 HD
ENDBRANCH   6  13
BRANCH   9  15
ATOM     15  O   UNL     1      27.172  -3.002  52.548  0.00  0.00    +0.000 OA
ATOM     16  H   UNL     1      26.313  -3.083  52.912  0.00  0.00    +0.000 HD
ENDBRANCH   9  15
BRANCH   1  17
ATOM     17  C   UNL     1      24.191   1.448  52.146  0.00  0.00    +0.000 C 
BRANCH  17  18
ATOM     18  O   UNL     1      24.055   2.749  51.470  0.00  0.00    +0.000 OA
BRANCH  18  19
ATOM     19  C   UNL     1      23.947   2.766  50.118  0.00  0.00    +0.000 C 
ATOM     20  O   UNL     1      23.056   2.217  49.479  0.00  0.00    +0.000 OA
BRANCH  19  22
ATOM     21  C   UNL     1      26.307   3.619  49.620  0.00  0.00    +0.000 C 
ATOM     22  C   UNL     1      24.976   3.585  49.423  0.00  0.00    +0.000 C 
BRANCH  21  24
ATOM     23  C   UNL     1      26.924   5.965  48.650  0.00  0.00    +0.000 C 
ATOM     24  C   UNL     1      27.296   4.501  48.882  0.00  0.00    +0.000 C 
ENDBRANCH  21  24
ENDBRANCH  19  22
ENDBRANCH  18  19
ENDBRANCH  17  18
BRANCH  17  25
ATOM     25  C   UNL     1      23.148   1.260  53.280  0.00  0.00    +0.000 C 
BRANCH  25  26
ATOM     26  C   UNL     1      22.102   0.187  53.162  0.00  0.00    +0.000 C 
ATOM     27  C   UNL     1      22.020  -0.821  54.058  0.00  0.00    +0.000 C 
ATOM     28  C   UNL     1      20.834  -1.737  54.084  0.00  0.00    +0.000 C 
ATOM     29  C   UNL     1      23.041  -1.041  55.151  0.00  0.00    +0.000 C 
ENDBRANCH  25  26
ENDBRANCH  17  25
ENDBRANCH   1  17
TORSDOF 9
ENDMDL
MODEL 4
REMARK VINA RESULT:    -8.103      2.508      5.418
REMARK INTER + INTRA:         -12.999
REMARK INTER:                 -12.334
REMARK INTRA:                  -0.665
REMARK UNBOUND:                -1.106
REMARK  Name = 
REMARK  12 active torsions:
REMARK  status: ('A' for Active; 'I' for Inactive)
REMARK    1  A    between atoms: C_1  and  C_2
REMARK    2  A    between atoms: C_2  and  C_3
REMARK    3  A    between atoms: C_4  and  C_5
REMARK    4  A    between atoms: C_5  and  O_7
REMARK    5  A    between atoms: O_7  and  C_8
REMARK    6  A    between atoms: C_8  and  C_9
REMARK    7  A    between atoms: C_8  and  C_14
REMARK    8  A    between atoms: C_9  and  C_10
REMARK    9  A    between atoms: C_11  and  C_12
REMARK   10  A    between atoms: C_11  and  C_13
REMARK   11  A    between atoms: C_19  and  O_20
REMARK   12  A    between atoms: C_23  and  O_24
REMARK                            x       y       z     vdW  Elec       q    Type
REMARK                         _______ _______ _______ _____ _____    ______ ____
ROOT
ATOM      1  C   UNL     1      24.944   0.532  53.175  0.00  0.00    +0.000 C 
ATOM      2  C   UNL     1      25.547   1.685  53.508  0.00  0.00    +0.000 C 
ATOM      3  C   UNL     1      26.997   1.807  53.727  0.00  0.00    +0.000 C 
ATOM      4  O   UNL     1      27.489   2.893  54.020  0.00  0.00    +0.000 OA
ATOM      5  C   UNL     1      27.842   0.615  53.578  0.00  0.00    +0.000 A 
ATOM      6  C   UNL     1      29.231   0.709  53.770  0.00  0.00    +0.000 A 
ATOM      7  C   UNL     1      30.050  -0.406  53.616  0.00  0.00    +0.000 A 
ATOM      8  C   UNL     1      29.489  -1.632  53.278  0.00  0.00    +0.000 A 
ATOM      9  C   UNL     1      28.109  -1.732  53.089  0.00  0.00    +0.000 A 
ATOM     10  C   UNL     1      27.270  -0.606  53.229  0.00  0.00    +0.000 A 
ATOM     11  C   UNL     1      25.809  -0.683  52.974  0.00  0.00    +0.000 C 
ATOM     12  O   UNL     1      25.327  -1.725  52.554  0.00  0.00    +0.000 OA
ENDROOT
BRANCH   6  13
ATOM     13  O   UNL     1      29.867   1.874  54.101  0.00  0.00    +0.000 OA
ATOM     14  H   UNL     1      30.685   2.093  53.701  0.00  0.00    +0.000 HD
ENDBRANCH   6  13
BRANCH   9  15
ATOM     15  O   UNL     1      27.602  -2.959  52.760  0.00  0.00    +0.000 OA
ATOM     16  H   UNL     1      28.080  -3.736  52.973  0.00  0.00    +0.000 HD
ENDBRANCH   9  15
BRANCH   1  17
ATOM     17  C   UNL     1      23.418   0.403  52.961  0.00  0.00    +0.000 C 
BRANCH  17  18
ATOM     18  O   UNL     1      22.920  -0.964  53.194  0.00  0.00    +0.000 OA
BRANCH  18  19
ATOM     19  C   UNL     1      22.149  -1.193  54.286  0.00  0.00    +0.000 C 
ATOM     20  O   UNL     1      22.526  -1.076  55.446  0.00  0.00    +0.000 OA
BRANCH  19  22
ATOM     21  C   UNL     1      19.741  -0.745  53.546  0.00  0.00    +0.000 C 
ATOM     22  C   UNL     1      20.735  -1.541  53.986  0.00  0.00    +0.000 C 
BRANCH  21  24
ATOM     23  C   UNL     1      17.894  -2.587  53.670  0.00  0.00    +0.000 C 
ATOM     24  C   UNL     1      18.309  -1.169  53.281  0.00  0.00    +0.000 C 
ENDBRANCH  21  24
ENDBRANCH  19  22
ENDBRANCH  18  19
ENDBRANCH  17  18
BRANCH  17  25
ATOM     25  C   UNL     1      22.904   0.997  51.622  0.00  0.00    +0.000 C 
BRANCH  25  26
ATOM     26  C   UNL     1      21.439   1.282  51.445  0.00  0.00    +0.000 C 
ATOM     27  C   UNL     1      20.840   1.175  50.239  0.00  0.00    +0.000 C 
ATOM     28  C   UNL     1      19.347   1.213  50.112  0.00  0.00    +0.000 C 
ATOM     29  C   UNL     1      21.598   0.908  48.958  0.00  0.00    +0.000 C 
ENDBRANCH  25  26
ENDBRANCH  17  25
ENDBRANCH   1  17
TORSDOF 9
ENDMDL
MODEL 5
REMARK VINA RESULT:    -8.078      1.261      4.952
REMARK INTER + INTRA:         -12.962
REMARK INTER:                 -12.278
REMARK INTRA:                  -0.685
REMARK UNBOUND:                -1.106
REMARK  Name = 
REMARK  12 active torsions:
REMARK  status: ('A' for Active; 'I' for Inactive)
REMARK    1  A    between atoms: C_1  and  C_2
REMARK    2  A    between atoms: C_2  and  C_3
REMARK    3  A    between atoms: C_4  and  C_5
REMARK    4  A    between atoms: C_5  and  O_7
REMARK    5  A    between atoms: O_7  and  C_8
REMARK    6  A    between atoms: C_8  and  C_9
REMARK    7  A    between atoms: C_8  and  C_14
REMARK    8  A    between atoms: C_9  and  C_10
REMARK    9  A    between atoms: C_11  and  C_12
REMARK   10  A    between atoms: C_11  and  C_13
REMARK   11  A    between atoms: C_19  and  O_20
REMARK   12  A    between atoms: C_23  and  O_24
REMARK                            x       y       z     vdW  Elec       q    Type
REMARK                         _______ _______ _______ _____ _____    ______ ____
ROOT
ATOM      1  C   UNL     1      26.064   1.298  52.523  0.00  0.00    +0.000 C 
ATOM      2  C   UNL     1      25.686   0.053  52.196  0.00  0.00    +0.000 C 
ATOM      3  C   UNL     1      26.542  -1.129  52.383  0.00  0.00    +0.000 C 
ATOM      4  O   UNL     1      26.133  -2.245  52.071  0.00  0.00    +0.000 OA
ATOM      5  C   UNL     1      27.883  -0.954  52.956  0.00  0.00    +0.000 A 
ATOM      6  C   UNL     1      28.715  -2.069  53.155  0.00  0.00    +0.000 A 
ATOM      7  C   UNL     1      29.981  -1.924  53.713  0.00  0.00    +0.000 A 
ATOM      8  C   UNL     1      30.437  -0.660  54.070  0.00  0.00    +0.000 A 
ATOM      9  C   UNL     1      29.617   0.452  53.871  0.00  0.00    +0.000 A 
ATOM     10  C   UNL     1      28.325   0.316  53.318  0.00  0.00    +0.000 A 
ATOM     11  C   UNL     1      27.418   1.481  53.155  0.00  0.00    +0.000 C 
ATOM     12  O   UNL     1      27.761   2.574  53.582  0.00  0.00    +0.000 OA
ENDROOT
BRANCH   6  13
ATOM     13  O   UNL     1      28.346  -3.348  52.836  0.00  0.00    +0.000 OA
ATOM     14  H   UNL     1      27.710  -3.796  53.357  0.00  0.00    +0.000 HD
ENDBRANCH   6  13
BRANCH   9  15
ATOM     15  O   UNL     1      30.108   1.676  54.234  0.00  0.00    +0.000 OA
ATOM     16  H   UNL     1      29.519   2.378  54.428  0.00  0.00    +0.000 HD
ENDBRANCH   9  15
BRANCH   1  17
ATOM     17  C   UNL     1      25.168   2.542  52.312  0.00  0.00    +0.000 C 
BRANCH  17  18
ATOM     18  O   UNL     1      23.959   2.527  53.153  0.00  0.00    +0.000 OA
BRANCH  18  19
ATOM     19  C   UNL     1      22.750   2.448  52.544  0.00  0.00    +0.000 C 
ATOM     20  O   UNL     1      22.218   3.360  51.921  0.00  0.00    +0.000 OA
BRANCH  19  22
ATOM     21  C   UNL     1      21.112   0.687  53.416  0.00  0.00    +0.000 C 
ATOM     22  C   UNL     1      22.106   1.109  52.612  0.00  0.00    +0.000 C 
BRANCH  21  24
ATOM     23  C   UNL     1      19.000  -0.848  53.330  0.00  0.00    +0.000 C 
ATOM     24  C   UNL     1      20.518  -0.709  53.443  0.00  0.00    +0.000 C 
ENDBRANCH  21  24
ENDBRANCH  19  22
ENDBRANCH  18  19
ENDBRANCH  17  18
BRANCH  17  25
ATOM     25  C   UNL     1      24.849   2.858  50.826  0.00  0.00    +0.000 C 
BRANCH  25  26
ATOM     26  C   UNL     1      25.969   3.151  49.867  0.00  0.00    +0.000 C 
ATOM     27  C   UNL     1      26.223   4.408  49.442  0.00  0.00    +0.000 C 
ATOM     28  C   UNL     1      27.481   4.731  48.695  0.00  0.00    +0.000 C 
ATOM     29  C   UNL     1      25.333   5.588  49.766  0.00  0.00    +0.000 C 
ENDBRANCH  25  26
ENDBRANCH  17  25
ENDBRANCH   1  17
TORSDOF 9
ENDMDL
MODEL 6
REMARK VINA RESULT:    -7.983      2.006      6.932
REMARK INTER + INTRA:         -12.823
REMARK INTER:                 -12.804
REMARK INTRA:                  -0.019
REMARK UNBOUND:                -1.106
REMARK  Name = 
REMARK  12 active torsions:
REMARK  status: ('A' for Active; 'I' for Inactive)
REMARK    1  A    between atoms: C_1  and  C_2
REMARK    2  A    between atoms: C_2  and  C_3
REMARK    3  A    between atoms: C_4  and  C_5
REMARK    4  A    between atoms: C_5  and  O_7
REMARK    5  A    between atoms: O_7  and  C_8
REMARK    6  A    between atoms: C_8  and  C_9
REMARK    7  A    between atoms: C_8  and  C_14
REMARK    8  A    between atoms: C_9  and  C_10
REMARK    9  A    between atoms: C_11  and  C_12
REMARK   10  A    between atoms: C_11  and  C_13
REMARK   11  A    between atoms: C_19  and  O_20
REMARK   12  A    between atoms: C_23  and  O_24
REMARK                            x       y       z     vdW  Elec       q    Type
REMARK                         _______ _______ _______ _____ _____    ______ ____
ROOT
ATOM      1  C   UNL     1      24.302   0.930  52.678  0.00  0.00    +0.000 C 
ATOM      2  C   UNL     1      24.257   0.067  53.705  0.00  0.00    +0.000 C 
ATOM      3  C   UNL     1      23.025  -0.608  54.143  0.00  0.00    +0.000 C 
ATOM      4  O   UNL     1      23.052  -1.394  55.087  0.00  0.00    +0.000 OA
ATOM      5  C   UNL     1      21.771  -0.334  53.430  0.00  0.00    +0.000 A 
ATOM      6  C   UNL     1      20.584  -0.976  53.822  0.00  0.00    +0.000 A 
ATOM      7  C   UNL     1      19.390  -0.743  53.147  0.00  0.00    +0.000 A 
ATOM      8  C   UNL     1      19.365   0.143  52.076  0.00  0.00    +0.000 A 
ATOM      9  C   UNL     1      20.540   0.787  51.684  0.00  0.00    +0.000 A 
ATOM     10  C   UNL     1      21.760   0.548  52.353  0.00  0.00    +0.000 A 
ATOM     11  C   UNL     1      23.030   1.178  51.911  0.00  0.00    +0.000 C 
ATOM     12  O   UNL     1      23.042   1.859  50.895  0.00  0.00    +0.000 OA
ENDROOT
BRANCH   6  13
ATOM     13  O   UNL     1      20.517  -1.864  54.861  0.00  0.00    +0.000 OA
ATOM     14  H   UNL     1      21.302  -2.241  55.207  0.00  0.00    +0.000 HD
ENDBRANCH   6  13
BRANCH   9  15
ATOM     15  O   UNL     1      20.468   1.652  50.628  0.00  0.00    +0.000 OA
ATOM     16  H   UNL     1      19.841   1.508  49.946  0.00  0.00    +0.000 HD
ENDBRANCH   9  15
BRANCH   1  17
ATOM     17  C   UNL     1      25.594   1.650  52.228  0.00  0.00    +0.000 C 
BRANCH  17  18
ATOM     18  O   UNL     1      26.417   2.112  53.360  0.00  0.00    +0.000 OA
BRANCH  18  19
ATOM     19  C   UNL     1      27.748   1.853  53.338  0.00  0.00    +0.000 C 
ATOM     20  O   UNL     1      28.628   2.699  53.457  0.00  0.00    +0.000 OA
BRANCH  19  22
ATOM     21  C   UNL     1      29.214  -0.221  53.642  0.00  0.00    +0.000 C 
ATOM     22  C   UNL     1      28.100   0.413  53.229  0.00  0.00    +0.000 C 
BRANCH  21  24
ATOM     23  C   UNL     1      28.402  -2.604  52.944  0.00  0.00    +0.000 C 
ATOM     24  C   UNL     1      29.513  -1.699  53.477  0.00  0.00    +0.000 C 
ENDBRANCH  21  24
ENDBRANCH  19  22
ENDBRANCH  18  19
ENDBRANCH  17  18
BRANCH  17  25
ATOM     25  C   UNL     1      25.374   2.763  51.168  0.00  0.00    +0.000 C 
BRANCH  25  26
ATOM     26  C   UNL     1      26.499   3.153  50.251  0.00  0.00    +0.000 C 
ATOM     27  C   UNL     1      26.388   4.198  49.402  0.00  0.00    +0.000 C 
ATOM     28  C   UNL     1      27.585   4.736  48.679  0.00  0.00    +0.000 C 
ATOM     29  C   UNL     1      25.100   4.963  49.195  0.00  0.00    +0.000 C 
ENDBRANCH  25  26
ENDBRANCH  17  25
ENDBRANCH   1  17
TORSDOF 9
ENDMDL
MODEL 7
REMARK VINA RESULT:    -7.744      2.750      6.860
REMARK INTER + INTRA:         -12.472
REMARK INTER:                 -11.136
REMARK INTRA:                  -1.336
REMARK UNBOUND:                -1.106
REMARK  Name = 
REMARK  12 active torsions:
REMARK  status: ('A' for Active; 'I' for Inactive)
REMARK    1  A    between atoms: C_1  and  C_2
REMARK    2  A    between atoms: C_2  and  C_3
REMARK    3  A    between atoms: C_4  and  C_5
REMARK    4  A    between atoms: C_5  and  O_7
REMARK    5  A    between atoms: O_7  and  C_8
REMARK    6  A    between atoms: C_8  and  C_9
REMARK    7  A    between atoms: C_8  and  C_14
REMARK    8  A    between atoms: C_9  and  C_10
REMARK    9  A    between atoms: C_11  and  C_12
REMARK   10  A    between atoms: C_11  and  C_13
REMARK   11  A    between atoms: C_19  and  O_20
REMARK   12  A    between atoms: C_23  and  O_24
REMARK                            x       y       z     vdW  Elec       q    Type
REMARK                         _______ _______ _______ _____ _____    ______ ____
ROOT
ATOM      1  C   UNL     1      24.689   3.925  50.818  0.00  0.00    +0.000 C 
ATOM      2  C   UNL     1      24.019   5.040  51.149  0.00  0.00    +0.000 C 
ATOM      3  C   UNL     1      24.426   6.387  50.718  0.00  0.00    +0.000 C 
ATOM      4  O   UNL     1      23.764   7.368  51.047  0.00  0.00    +0.000 OA
ATOM      5  C   UNL     1      25.624   6.536  49.883  0.00  0.00    +0.000 A 
ATOM      6  C   UNL     1      26.026   7.812  49.449  0.00  0.00    +0.000 A 
ATOM      7  C   UNL     1      27.149   7.971  48.643  0.00  0.00    +0.000 A 
ATOM      8  C   UNL     1      27.891   6.857  48.268  0.00  0.00    +0.000 A 
ATOM      9  C   UNL     1      27.500   5.588  48.698  0.00  0.00    +0.000 A 
ATOM     10  C   UNL     1      26.355   5.413  49.506  0.00  0.00    +0.000 A 
ATOM     11  C   UNL     1      25.891   4.065  49.923  0.00  0.00    +0.000 C 
ATOM     12  O   UNL     1      26.464   3.073  49.494  0.00  0.00    +0.000 OA
ENDROOT
BRANCH   6  13
ATOM     13  O   UNL     1      25.353   8.960  49.768  0.00  0.00    +0.000 OA
ATOM     14  H   UNL     1      24.844   9.003  50.553  0.00  0.00    +0.000 HD
ENDBRANCH   6  13
BRANCH   9  15
ATOM     15  O   UNL     1      28.262   4.522  48.308  0.00  0.00    +0.000 OA
ATOM     16  H   UNL     1      28.651   4.511  47.455  0.00  0.00    +0.000 HD
ENDBRANCH   9  15
BRANCH   1  17
ATOM     17  C   UNL     1      24.270   2.511  51.284  0.00  0.00    +0.000 C 
BRANCH  17  18
ATOM     18  O   UNL     1      22.826   2.403  51.558  0.00  0.00    +0.000 OA
BRANCH  18  19
ATOM     19  C   UNL     1      22.180   1.272  51.178  0.00  0.00    +0.000 C 
ATOM     20  O   UNL     1      21.949   0.955  50.016  0.00  0.00    +0.000 OA
BRANCH  19  22
ATOM     21  C   UNL     1      21.658   0.640  53.601  0.00  0.00    +0.000 C 
ATOM     22  C   UNL     1      21.815   0.359  52.293  0.00  0.00    +0.000 C 
BRANCH  21  24
ATOM     23  C   UNL     1      21.647  -1.826  54.464  0.00  0.00    +0.000 C 
ATOM     24  C   UNL     1      21.303  -0.354  54.691  0.00  0.00    +0.000 C 
ENDBRANCH  21  24
ENDBRANCH  19  22
ENDBRANCH  18  19
ENDBRANCH  17  18
BRANCH  17  25
ATOM     25  C   UNL     1      25.133   1.933  52.437  0.00  0.00    +0.000 C 
BRANCH  25  26
ATOM     26  C   UNL     1      26.051   0.772  52.172  0.00  0.00    +0.000 C 
ATOM     27  C   UNL     1      25.994  -0.356  52.914  0.00  0.00    +0.000 C 
ATOM     28  C   UNL     1      26.727  -1.594  52.493  0.00  0.00    +0.000 C 
ATOM     29  C   UNL     1      25.126  -0.496  54.144  0.00  0.00    +0.000 C 
ENDBRANCH  25  26
ENDBRANCH  17  25
ENDBRANCH   1  17
TORSDOF 9
ENDMDL
MODEL 8
REMARK VINA RESULT:    -7.713      2.786      6.582
REMARK INTER + INTRA:         -12.426
REMARK INTER:                 -11.453
REMARK INTRA:                  -0.974
REMARK UNBOUND:                -1.106
REMARK  Name = 
REMARK  12 active torsions:
REMARK  status: ('A' for Active; 'I' for Inactive)
REMARK    1  A    between atoms: C_1  and  C_2
REMARK    2  A    between atoms: C_2  and  C_3
REMARK    3  A    between atoms: C_4  and  C_5
REMARK    4  A    between atoms: C_5  and  O_7
REMARK    5  A    between atoms: O_7  and  C_8
REMARK    6  A    between atoms: C_8  and  C_9
REMARK    7  A    between atoms: C_8  and  C_14
REMARK    8  A    between atoms: C_9  and  C_10
REMARK    9  A    between atoms: C_11  and  C_12
REMARK   10  A    between atoms: C_11  and  C_13
REMARK   11  A    between atoms: C_19  and  O_20
REMARK   12  A    between atoms: C_23  and  O_24
REMARK                            x       y       z     vdW  Elec       q    Type
REMARK                         _______ _______ _______ _____ _____    ______ ____
ROOT
ATOM      1  C   UNL     1      22.036   1.195  52.442  0.00  0.00    +0.000 C 
ATOM      2  C   UNL     1      22.063   0.166  53.303  0.00  0.00    +0.000 C 
ATOM      3  C   UNL     1      20.890  -0.668  53.607  0.00  0.00    +0.000 C 
ATOM      4  O   UNL     1      20.983  -1.603  54.399  0.00  0.00    +0.000 OA
ATOM      5  C   UNL     1      19.615  -0.372  52.942  0.00  0.00    +0.000 A 
ATOM      6  C   UNL     1      18.483  -1.163  53.206  0.00  0.00    +0.000 A 
ATOM      7  C   UNL     1      17.271  -0.908  52.571  0.00  0.00    +0.000 A 
ATOM      8  C   UNL     1      17.172   0.146  51.671  0.00  0.00    +0.000 A 
ATOM      9  C   UNL     1      18.291   0.937  51.407  0.00  0.00    +0.000 A 
ATOM     10  C   UNL     1      19.530   0.680  52.035  0.00  0.00    +0.000 A 
ATOM     11  C   UNL     1      20.745   1.475  51.720  0.00  0.00    +0.000 C 
ATOM     12  O   UNL     1      20.698   2.321  50.838  0.00  0.00    +0.000 OA
ENDROOT
BRANCH   6  13
ATOM     13  O   UNL     1      18.491  -2.221  54.074  0.00  0.00    +0.000 OA
ATOM     14  H   UNL     1      18.340  -2.080  54.987  0.00  0.00    +0.000 HD
ENDBRANCH   6  13
BRANCH   9  15
ATOM     15  O   UNL     1      18.146   1.965  50.517  0.00  0.00    +0.000 OA
ATOM     16  H   UNL     1      18.846   2.181  49.932  0.00  0.00    +0.000 HD
ENDBRANCH   9  15
BRANCH   1  17
ATOM     17  C   UNL     1      23.266   2.081  52.136  0.00  0.00    +0.000 C 
BRANCH  17  18
ATOM     18  O   UNL     1      23.603   2.118  50.703  0.00  0.00    +0.000 OA
BRANCH  18  19
ATOM     19  C   UNL     1      23.916   3.314  50.144  0.00  0.00    +0.000 C 
ATOM     20  O   UNL     1      23.155   4.272  50.067  0.00  0.00    +0.000 OA
BRANCH  19  22
ATOM     21  C   UNL     1      25.992   4.527  49.269  0.00  0.00    +0.000 C 
ATOM     22  C   UNL     1      25.322   3.431  49.673  0.00  0.00    +0.000 C 
BRANCH  21  24
ATOM     23  C   UNL     1      28.020   5.920  48.390  0.00  0.00    +0.000 C 
ATOM     24  C   UNL     1      27.427   4.566  48.780  0.00  0.00    +0.000 C 
ENDBRANCH  21  24
ENDBRANCH  19  22
ENDBRANCH  18  19
ENDBRANCH  17  18
BRANCH  17  25
ATOM     25  C   UNL     1      24.504   1.790  53.026  0.00  0.00    +0.000 C 
BRANCH  25  26
ATOM     26  C   UNL     1      25.600   0.899  52.511  0.00  0.00    +0.000 C 
ATOM     27  C   UNL     1      25.943  -0.240  53.151  0.00  0.00    +0.000 C 
ATOM     28  C   UNL     1      26.851  -1.245  52.508  0.00  0.00    +0.000 C 
ATOM     29  C   UNL     1      25.372  -0.640  54.493  0.00  0.00    +0.000 C 
ENDBRANCH  25  26
ENDBRANCH  17  25
ENDBRANCH   1  17
TORSDOF 9
ENDMDL
MODEL 9
REMARK VINA RESULT:    -7.644      2.802      6.764
REMARK INTER + INTRA:         -12.324
REMARK INTER:                 -11.549
REMARK INTRA:                  -0.776
REMARK UNBOUND:                -1.106
REMARK  Name = 
REMARK  12 active torsions:
REMARK  status: ('A' for Active; 'I' for Inactive)
REMARK    1  A    between atoms: C_1  and  C_2
REMARK    2  A    between atoms: C_2  and  C_3
REMARK    3  A    between atoms: C_4  and  C_5
REMARK    4  A    between atoms: C_5  and  O_7
REMARK    5  A    between atoms: O_7  and  C_8
REMARK    6  A    between atoms: C_8  and  C_9
REMARK    7  A    between atoms: C_8  and  C_14
REMARK    8  A    between atoms: C_9  and  C_10
REMARK    9  A    between atoms: C_11  and  C_12
REMARK   10  A    between atoms: C_11  and  C_13
REMARK   11  A    between atoms: C_19  and  O_20
REMARK   12  A    between atoms: C_23  and  O_24
REMARK                            x       y       z     vdW  Elec       q    Type
REMARK                         _______ _______ _______ _____ _____    ______ ____
ROOT
ATOM      1  C   UNL     1      25.239   3.588  50.504  0.00  0.00    +0.000 C 
ATOM      2  C   UNL     1      26.302   3.625  49.685  0.00  0.00    +0.000 C 
ATOM      3  C   UNL     1      26.834   4.868  49.105  0.00  0.00    +0.000 C 
ATOM      4  O   UNL     1      27.817   4.836  48.369  0.00  0.00    +0.000 OA
ATOM      5  C   UNL     1      26.181   6.142  49.429  0.00  0.00    +0.000 A 
ATOM      6  C   UNL     1      26.678   7.344  48.898  0.00  0.00    +0.000 A 
ATOM      7  C   UNL     1      26.083   8.563  49.208  0.00  0.00    +0.000 A 
ATOM      8  C   UNL     1      24.975   8.595  50.047  0.00  0.00    +0.000 A 
ATOM      9  C   UNL     1      24.473   7.404  50.575  0.00  0.00    +0.000 A 
ATOM     10  C   UNL     1      25.077   6.163  50.278  0.00  0.00    +0.000 A 
ATOM     11  C   UNL     1      24.593   4.895  50.879  0.00  0.00    +0.000 C 
ATOM     12  O   UNL     1      23.700   4.928  51.715  0.00  0.00    +0.000 OA
ENDROOT
BRANCH   6  13
ATOM     13  O   UNL     1      27.765   7.406  48.067  0.00  0.00    +0.000 OA
ATOM     14  H   UNL     1      27.867   8.129  47.482  0.00  0.00    +0.000 HD
ENDBRANCH   6  13
BRANCH   9  15
ATOM     15  O   UNL     1      23.380   7.484  51.393  0.00  0.00    +0.000 OA
ATOM     16  H   UNL     1      22.537   7.674  51.030  0.00  0.00    +0.000 HD
ENDBRANCH   9  15
BRANCH   1  17
ATOM     17  C   UNL     1      24.670   2.279  51.100  0.00  0.00    +0.000 C 
BRANCH  17  18
ATOM     18  O   UNL     1      23.234   2.369  51.416  0.00  0.00    +0.000 OA
BRANCH  18  19
ATOM     19  C   UNL     1      22.447   1.295  51.154  0.00  0.00    +0.000 C 
ATOM     20  O   UNL     1      21.985   1.019  50.053  0.00  0.00    +0.000 OA
BRANCH  19  22
ATOM     21  C   UNL     1      21.675   0.666  53.510  0.00  0.00    +0.000 C 
ATOM     22  C   UNL     1      22.224   0.390  52.312  0.00  0.00    +0.000 C 
BRANCH  21  24
ATOM     23  C   UNL     1      21.747  -1.794  54.386  0.00  0.00    +0.000 C 
ATOM     24  C   UNL     1      21.499  -0.310  54.658  0.00  0.00    +0.000 C 
ENDBRANCH  21  24
ENDBRANCH  19  22
ENDBRANCH  18  19
ENDBRANCH  17  18
BRANCH  17  25
ATOM     25  C   UNL     1      25.498   1.697  52.278  0.00  0.00    +0.000 C 
BRANCH  25  26
ATOM     26  C   UNL     1      26.331   0.463  52.068  0.00  0.00    +0.000 C 
ATOM     27  C   UNL     1      26.211  -0.615  52.873  0.00  0.00    +0.000 C 
ATOM     28  C   UNL     1      26.851  -1.921  52.514  0.00  0.00    +0.000 C 
ATOM     29  C   UNL     1      25.356  -0.626  54.120  0.00  0.00    +0.000 C 
ENDBRANCH  25  26
ENDBRANCH  17  25
ENDBRANCH   1  17
TORSDOF 9
ENDMDL
