MODEL 1
REMARK VINA RESULT:    -7.206      0.000      0.000
REMARK INTER + INTRA:         -10.859
REMARK INTER:                  -9.734
REMARK INTRA:                  -1.126
REMARK UNBOUND:                -1.126
REMARK  Name = 
REMARK  7 active torsions:
REMARK  status: ('A' for Active; 'I' for Inactive)
REMARK    1  A    between atoms: C_1  and  C_2
REMARK    2  A    between atoms: C_5  and  S_6
REMARK    3  A    between atoms: S_6  and  C_7
REMARK    4  A    between atoms: C_13  and  C_14
REMARK    5  A    between atoms: N_15  and  O_16
REMARK    6  A    between atoms: O_16  and  C_17
REMARK    7  A    between atoms: C_17  and  C_18
REMARK                            x       y       z     vdW  Elec       q    Type
REMARK                         _______ _______ _______ _____ _____    ______ ____
ROOT
ATOM      1  C   UNL     1      21.045   0.476  51.463  0.00  0.00    +0.000 A 
ATOM      2  C   UNL     1      19.697   0.221  51.692  0.00  0.00    +0.000 A 
ATOM      3  N   UNL     1      19.204  -0.355  52.809  0.00  0.00    +0.000 NA
ATOM      4  C   UNL     1      20.065  -0.735  53.778  0.00  0.00    +0.000 A 
ATOM      5  C   UNL     1      21.438  -0.543  53.613  0.00  0.00    +0.000 A 
ATOM      6  S   UNL     1      22.683  -0.966  54.728  0.00  0.00    +0.000 S 
ATOM      7  C   UNL     1      23.911  -0.411  53.693  0.00  0.00    +0.000 A 
ATOM      8  C   UNL     1      23.398   0.110  52.527  0.00  0.00    +0.000 A 
ATOM      9  C   UNL     1      21.959   0.055  52.458  0.00  0.00    +0.000 A 
ENDROOT
BRANCH   7  10
ATOM     10  C   UNL     1      25.289  -0.553  54.081  0.00  0.00    +0.000 C 
ATOM     11  N   UNL     1      25.907   0.433  54.647  0.00  0.00    +0.000 NA
BRANCH  11  12
ATOM     12  O   UNL     1      27.248   0.081  54.883  0.00  0.00    +0.000 OA
BRANCH  12  13
ATOM     13  C   UNL     1      27.989   0.374  53.703  0.00  0.00    +0.000 C 
BRANCH  13  14
ATOM     14  C   UNL     1      27.835   1.832  53.291  0.00  0.00    +0.000 C 
ATOM     15  N   UNL     1      28.237   2.773  54.188  0.00  0.00    +0.000 N 
ATOM     16  O   UNL     1      27.416   2.173  52.184  0.00  0.00    +0.000 OA
ATOM     17  H   UNL     1      28.571   2.500  55.073  0.00  0.00    +0.000 HD
ATOM     18  H   UNL     1      28.195   3.728  53.952  0.00  0.00    +0.000 HD
ENDBRANCH  13  14
ENDBRANCH  12  13
ENDBRANCH  11  12
ENDBRANCH   7  10
BRANCH   1  19
ATOM     19  S   UNL     1      21.632   1.228  49.975  0.00  0.00    +0.000 S 
BRANCH  19  24
ATOM     20  C   UNL     1      24.092   6.643  51.415  0.00  0.00    +0.000 C 
ATOM     21  C   UNL     1      23.474   5.314  51.095  0.00  0.00    +0.000 A 
ATOM     22  C   UNL     1      22.182   5.002  51.530  0.00  0.00    +0.000 A 
ATOM     23  C   UNL     1      21.603   3.765  51.226  0.00  0.00    +0.000 A 
ATOM     24  C   UNL     1      22.293   2.817  50.466  0.00  0.00    +0.000 A 
ATOM     25  C   UNL     1      23.594   3.132  50.040  0.00  0.00    +0.000 A 
ATOM     26  C   UNL     1      24.181   4.364  50.353  0.00  0.00    +0.000 A 
ENDBRANCH  19  24
ENDBRANCH   1  19
TORSDOF 6
ENDMDL
MODEL 2
REMARK VINA RESULT:    -7.162      4.396      7.273
REMARK INTER + INTRA:         -10.799
REMARK INTER:                  -9.783
REMARK INTRA:                  -1.016
REMARK UNBOUND:                -1.126
REMARK  Name = 
REMARK  7 active torsions:
REMARK  status: ('A' for Active; 'I' for Inactive)
REMARK    1  A    between atoms: C_1  and  C_2
REMARK    2  A    between atoms: C_5  and  S_6
REMARK    3  A    between atoms: S_6  and  C_7
REMARK    4  A    between atoms: C_13  and  C_14
REMARK    5  A    between atoms: N_15  and  O_16
REMARK    6  A    between atoms: O_16  and  C_17
REMARK    7  A    between atoms: C_17  and  C_18
REMARK                            x       y       z     vdW  Elec       q    Type
REMARK                         _______ _______ _______ _____ _____    ______ ____
ROOT
ATOM      1  C   UNL     1      24.281   4.434  50.501  0.00  0.00    +0.000 A 
ATOM      2  C   UNL     1      23.313   5.039  51.296  0.00  0.00    +0.000 A 
ATOM      3  N   UNL     1      23.235   6.366  51.533  0.00  0.00    +0.000 NA
ATOM      4  C   UNL     1      24.165   7.180  50.987  0.00  0.00    +0.000 A 
ATOM      5  C   UNL     1      25.190   6.647  50.201  0.00  0.00    +0.000 A 
ATOM      6  S   UNL     1      26.462   7.520  49.431  0.00  0.00    +0.000 S 
ATOM      7  C   UNL     1      27.158   6.105  48.797  0.00  0.00    +0.000 A 
ATOM      8  C   UNL     1      26.435   4.985  49.138  0.00  0.00    +0.000 A 
ATOM      9  C   UNL     1      25.278   5.272  49.948  0.00  0.00    +0.000 A 
ENDROOT
BRANCH   7  10
ATOM     10  C   UNL     1      28.378   6.189  48.039  0.00  0.00    +0.000 C 
ATOM     11  N   UNL     1      29.422   5.522  48.417  0.00  0.00    +0.000 NA
BRANCH  11  12
ATOM     12  O   UNL     1      30.500   5.802  47.560  0.00  0.00    +0.000 OA
BRANCH  12  13
ATOM     13  C   UNL     1      31.704   5.533  48.271  0.00  0.00    +0.000 C 
BRANCH  13  14
ATOM     14  C   UNL     1      31.742   6.263  49.607  0.00  0.00    +0.000 C 
ATOM     15  N   UNL     1      31.578   5.510  50.728  0.00  0.00    +0.000 N 
ATOM     16  O   UNL     1      31.961   7.472  49.701  0.00  0.00    +0.000 OA
ATOM     17  H   UNL     1      31.403   4.544  50.651  0.00  0.00    +0.000 HD
ATOM     18  H   UNL     1      31.635   5.930  51.616  0.00  0.00    +0.000 HD
ENDBRANCH  13  14
ENDBRANCH  12  13
ENDBRANCH  11  12
ENDBRANCH   7  10
BRANCH   1  19
ATOM     19  S   UNL     1      24.335   2.688  50.232  0.00  0.00    +0.000 S 
BRANCH  19  24
ATOM     20  C   UNL     1      27.530   0.202  54.821  0.00  0.00    +0.000 C 
ATOM     21  C   UNL     1      26.767   0.842  53.700  0.00  0.00    +0.000 A 
ATOM     22  C   UNL     1      27.417   1.645  52.758  0.00  0.00    +0.000 A 
ATOM     23  C   UNL     1      26.707   2.237  51.707  0.00  0.00    +0.000 A 
ATOM     24  C   UNL     1      25.333   2.026  51.562  0.00  0.00    +0.000 A 
ATOM     25  C   UNL     1      24.683   1.226  52.517  0.00  0.00    +0.000 A 
ATOM     26  C   UNL     1      25.389   0.643  53.576  0.00  0.00    +0.000 A 
ENDBRANCH  19  24
ENDBRANCH   1  19
TORSDOF 6
ENDMDL
MODEL 3
REMARK VINA RESULT:    -7.027      3.844      7.653
REMARK INTER + INTRA:         -10.617
REMARK INTER:                  -9.901
REMARK INTRA:                  -0.716
REMARK UNBOUND:                -1.126
REMARK  Name = 
REMARK  7 active torsions:
REMARK  status: ('A' for Active; 'I' for Inactive)
REMARK    1  A    between atoms: C_1  and  C_2
REMARK    2  A    between atoms: C_5  and  S_6
REMARK    3  A    between atoms: S_6  and  C_7
REMARK    4  A    between atoms: C_13  and  C_14
REMARK    5  A    between atoms: N_15  and  O_16
REMARK    6  A    between atoms: O_16  and  C_17
REMARK    7  A    between atoms: C_17  and  C_18
REMARK                            x       y       z     vdW  Elec       q    Type
REMARK                         _______ _______ _______ _____ _____    ______ ____
ROOT
ATOM      1  C   UNL     1      23.732   1.066  52.137  0.00  0.00    +0.000 A 
ATOM      2  C   UNL     1      24.766   1.898  51.722  0.00  0.00    +0.000 A 
ATOM      3  N   UNL     1      24.653   2.845  50.766  0.00  0.00    +0.000 NA
ATOM      4  C   UNL     1      23.465   2.999  50.142  0.00  0.00    +0.000 A 
ATOM      5  C   UNL     1      22.383   2.182  50.479  0.00  0.00    +0.000 A 
ATOM      6  S   UNL     1      20.802   2.226  49.792  0.00  0.00    +0.000 S 
ATOM      7  C   UNL     1      20.261   0.933  50.754  0.00  0.00    +0.000 A 
ATOM      8  C   UNL     1      21.247   0.482  51.603  0.00  0.00    +0.000 A 
ATOM      9  C   UNL     1      22.491   1.198  51.470  0.00  0.00    +0.000 A 
ENDROOT
BRANCH   7  10
ATOM     10  C   UNL     1      18.922   0.433  50.589  0.00  0.00    +0.000 C 
ATOM     11  N   UNL     1      18.151   0.294  51.620  0.00  0.00    +0.000 NA
BRANCH  11  12
ATOM     12  O   UNL     1      16.921  -0.258  51.222  0.00  0.00    +0.000 OA
BRANCH  12  13
ATOM     13  C   UNL     1      16.210  -0.631  52.397  0.00  0.00    +0.000 C 
BRANCH  13  14
ATOM     14  C   UNL     1      16.925  -1.742  53.156  0.00  0.00    +0.000 C 
ATOM     15  N   UNL     1      17.869  -1.363  54.061  0.00  0.00    +0.000 N 
ATOM     16  O   UNL     1      16.646  -2.933  53.016  0.00  0.00    +0.000 OA
ATOM     17  H   UNL     1      18.090  -0.411  54.172  0.00  0.00    +0.000 HD
ATOM     18  H   UNL     1      18.329  -2.042  54.605  0.00  0.00    +0.000 HD
ENDBRANCH  13  14
ENDBRANCH  12  13
ENDBRANCH  11  12
ENDBRANCH   7  10
BRANCH   1  19
ATOM     19  S   UNL     1      23.943  -0.162  53.391  0.00  0.00    +0.000 S 
BRANCH  19  24
ATOM     20  C   UNL     1      30.005  -0.892  53.792  0.00  0.00    +0.000 C 
ATOM     21  C   UNL     1      28.518  -0.711  53.730  0.00  0.00    +0.000 A 
ATOM     22  C   UNL     1      27.867   0.171  54.598  0.00  0.00    +0.000 A 
ATOM     23  C   UNL     1      26.479   0.345  54.536  0.00  0.00    +0.000 A 
ATOM     24  C   UNL     1      25.712  -0.345  53.594  0.00  0.00    +0.000 A 
ATOM     25  C   UNL     1      26.369  -1.237  52.731  0.00  0.00    +0.000 A 
ATOM     26  C   UNL     1      27.755  -1.422  52.800  0.00  0.00    +0.000 A 
ENDBRANCH  19  24
ENDBRANCH   1  19
TORSDOF 6
ENDMDL
MODEL 4
REMARK VINA RESULT:    -6.988      3.949      6.561
REMARK INTER + INTRA:         -10.565
REMARK INTER:                  -9.971
REMARK INTRA:                  -0.594
REMARK UNBOUND:                -1.126
REMARK  Name = 
REMARK  7 active torsions:
REMARK  status: ('A' for Active; 'I' for Inactive)
REMARK    1  A    between atoms: C_1  and  C_2
REMARK    2  A    between atoms: C_5  and  S_6
REMARK    3  A    between atoms: S_6  and  C_7
REMARK    4  A    between atoms: C_13  and  C_14
REMARK    5  A    between atoms: N_15  and  O_16
REMARK    6  A    between atoms: O_16  and  C_17
REMARK    7  A    between atoms: C_17  and  C_18
REMARK                            x       y       z     vdW  Elec       q    Type
REMARK                         _______ _______ _______ _____ _____    ______ ____
ROOT
ATOM      1  C   UNL     1      22.635   3.827  50.255  0.00  0.00    +0.000 A 
ATOM      2  C   UNL     1      21.650   4.548  50.922  0.00  0.00    +0.000 A 
ATOM      3  N   UNL     1      21.759   5.846  51.279  0.00  0.00    +0.000 NA
ATOM      4  C   UNL     1      22.904   6.504  50.996  0.00  0.00    +0.000 A 
ATOM      5  C   UNL     1      23.955   5.843  50.356  0.00  0.00    +0.000 A 
ATOM      6  S   UNL     1      25.484   6.510  49.921  0.00  0.00    +0.000 S 
ATOM      7  C   UNL     1      26.035   5.036  49.279  0.00  0.00    +0.000 A 
ATOM      8  C   UNL     1      25.076   4.053  49.365  0.00  0.00    +0.000 A 
ATOM      9  C   UNL     1      23.851   4.497  49.980  0.00  0.00    +0.000 A 
ENDROOT
BRANCH   7  10
ATOM     10  C   UNL     1      27.376   4.939  48.765  0.00  0.00    +0.000 C 
ATOM     11  N   UNL     1      28.018   6.011  48.427  0.00  0.00    +0.000 NA
BRANCH  11  12
ATOM     12  O   UNL     1      29.277   5.665  47.905  0.00  0.00    +0.000 OA
BRANCH  12  13
ATOM     13  C   UNL     1      30.256   6.458  48.568  0.00  0.00    +0.000 C 
BRANCH  13  14
ATOM     14  C   UNL     1      31.432   5.614  49.043  0.00  0.00    +0.000 C 
ATOM     15  N   UNL     1      31.706   5.632  50.376  0.00  0.00    +0.000 N 
ATOM     16  O   UNL     1      32.090   4.899  48.286  0.00  0.00    +0.000 OA
ATOM     17  H   UNL     1      31.179   6.204  50.979  0.00  0.00    +0.000 HD
ATOM     18  H   UNL     1      32.430   5.071  50.737  0.00  0.00    +0.000 HD
ENDBRANCH  13  14
ENDBRANCH  12  13
ENDBRANCH  11  12
ENDBRANCH   7  10
BRANCH   1  19
ATOM     19  S   UNL     1      22.438   2.126  49.819  0.00  0.00    +0.000 S 
BRANCH  19  24
ATOM     20  C   UNL     1      22.683  -1.175  54.966  0.00  0.00    +0.000 C 
ATOM     21  C   UNL     1      22.641  -0.339  53.721  0.00  0.00    +0.000 A 
ATOM     22  C   UNL     1      23.747   0.425  53.334  0.00  0.00    +0.000 A 
ATOM     23  C   UNL     1      23.711   1.199  52.169  0.00  0.00    +0.000 A 
ATOM     24  C   UNL     1      22.576   1.215  51.353  0.00  0.00    +0.000 A 
ATOM     25  C   UNL     1      21.465   0.454  51.752  0.00  0.00    +0.000 A 
ATOM     26  C   UNL     1      21.494  -0.312  52.924  0.00  0.00    +0.000 A 
ENDBRANCH  19  24
ENDBRANCH   1  19
TORSDOF 6
ENDMDL
MODEL 5
REMARK VINA RESULT:    -6.863      2.238      4.711
REMARK INTER + INTRA:         -10.396
REMARK INTER:                  -9.740
REMARK INTRA:                  -0.656
REMARK UNBOUND:                -1.126
REMARK  Name = 
REMARK  7 active torsions:
REMARK  status: ('A' for Active; 'I' for Inactive)
REMARK    1  A    between atoms: C_1  and  C_2
REMARK    2  A    between atoms: C_5  and  S_6
REMARK    3  A    between atoms: S_6  and  C_7
REMARK    4  A    between atoms: C_13  and  C_14
REMARK    5  A    between atoms: N_15  and  O_16
REMARK    6  A    between atoms: O_16  and  C_17
REMARK    7  A    between atoms: C_17  and  C_18
REMARK                            x       y       z     vdW  Elec       q    Type
REMARK                         _______ _______ _______ _____ _____    ______ ____
ROOT
ATOM      1  C   UNL     1      21.457   2.950  50.480  0.00  0.00    +0.000 A 
ATOM      2  C   UNL     1      20.903   4.222  50.572  0.00  0.00    +0.000 A 
ATOM      3  N   UNL     1      21.372   5.207  51.368  0.00  0.00    +0.000 NA
ATOM      4  C   UNL     1      22.442   4.955  52.153  0.00  0.00    +0.000 A 
ATOM      5  C   UNL     1      23.039   3.692  52.142  0.00  0.00    +0.000 A 
ATOM      6  S   UNL     1      24.398   3.183  53.072  0.00  0.00    +0.000 S 
ATOM      7  C   UNL     1      24.344   1.607  52.438  0.00  0.00    +0.000 A 
ATOM      8  C   UNL     1      23.331   1.462  51.518  0.00  0.00    +0.000 A 
ATOM      9  C   UNL     1      22.560   2.664  51.319  0.00  0.00    +0.000 A 
ENDROOT
BRANCH   7  10
ATOM     10  C   UNL     1      25.276   0.617  52.908  0.00  0.00    +0.000 C 
ATOM     11  N   UNL     1      26.210   0.951  53.741  0.00  0.00    +0.000 NA
BRANCH  11  12
ATOM     12  O   UNL     1      27.025  -0.162  54.011  0.00  0.00    +0.000 OA
BRANCH  12  13
ATOM     13  C   UNL     1      28.053   0.256  54.903  0.00  0.00    +0.000 C 
BRANCH  13  14
ATOM     14  C   UNL     1      29.134   1.049  54.179  0.00  0.00    +0.000 C 
ATOM     15  N   UNL     1      29.186   2.387  54.423  0.00  0.00    +0.000 N 
ATOM     16  O   UNL     1      29.968   0.522  53.442  0.00  0.00    +0.000 OA
ATOM     17  H   UNL     1      28.518   2.807  55.012  0.00  0.00    +0.000 HD
ATOM     18  H   UNL     1      29.892   2.935  54.011  0.00  0.00    +0.000 HD
ENDBRANCH  13  14
ENDBRANCH  12  13
ENDBRANCH  11  12
ENDBRANCH   7  10
BRANCH   1  19
ATOM     19  S   UNL     1      20.794   1.698  49.423  0.00  0.00    +0.000 S 
BRANCH  19  24
ATOM     20  C   UNL     1      16.962  -1.335  53.107  0.00  0.00    +0.000 C 
ATOM     21  C   UNL     1      17.887  -0.610  52.175  0.00  0.00    +0.000 A 
ATOM     22  C   UNL     1      17.441  -0.163  50.928  0.00  0.00    +0.000 A 
ATOM     23  C   UNL     1      18.301   0.521  50.061  0.00  0.00    +0.000 A 
ATOM     24  C   UNL     1      19.623   0.789  50.428  0.00  0.00    +0.000 A 
ATOM     25  C   UNL     1      20.069   0.330  51.678  0.00  0.00    +0.000 A 
ATOM     26  C   UNL     1      19.213  -0.365  52.541  0.00  0.00    +0.000 A 
ENDBRANCH  19  24
ENDBRANCH   1  19
TORSDOF 6
ENDMDL
MODEL 6
REMARK VINA RESULT:    -6.736      2.909      4.220
REMARK INTER + INTRA:         -10.225
REMARK INTER:                  -9.338
REMARK INTRA:                  -0.887
REMARK UNBOUND:                -1.126
REMARK  Name = 
REMARK  7 active torsions:
REMARK  status: ('A' for Active; 'I' for Inactive)
REMARK    1  A    between atoms: C_1  and  C_2
REMARK    2  A    between atoms: C_5  and  S_6
REMARK    3  A    between atoms: S_6  and  C_7
REMARK    4  A    between atoms: C_13  and  C_14
REMARK    5  A    between atoms: N_15  and  O_16
REMARK    6  A    between atoms: O_16  and  C_17
REMARK    7  A    between atoms: C_17  and  C_18
REMARK                            x       y       z     vdW  Elec       q    Type
REMARK                         _______ _______ _______ _____ _____    ______ ____
ROOT
ATOM      1  C   UNL     1      22.939   4.923  50.624  0.00  0.00    +0.000 A 
ATOM      2  C   UNL     1      21.881   4.942  49.722  0.00  0.00    +0.000 A 
ATOM      3  N   UNL     1      21.133   3.867  49.394  0.00  0.00    +0.000 NA
ATOM      4  C   UNL     1      21.427   2.675  49.957  0.00  0.00    +0.000 A 
ATOM      5  C   UNL     1      22.495   2.564  50.851  0.00  0.00    +0.000 A 
ATOM      6  S   UNL     1      23.023   1.135  51.658  0.00  0.00    +0.000 S 
ATOM      7  C   UNL     1      24.300   1.947  52.432  0.00  0.00    +0.000 A 
ATOM      8  C   UNL     1      24.322   3.285  52.110  0.00  0.00    +0.000 A 
ATOM      9  C   UNL     1      23.276   3.673  51.197  0.00  0.00    +0.000 A 
ENDROOT
BRANCH   7  10
ATOM     10  C   UNL     1      25.206   1.212  53.274  0.00  0.00    +0.000 C 
ATOM     11  N   UNL     1      26.067   1.845  54.005  0.00  0.00    +0.000 NA
BRANCH  11  12
ATOM     12  O   UNL     1      26.873   0.922  54.694  0.00  0.00    +0.000 OA
BRANCH  12  13
ATOM     13  C   UNL     1      27.635   0.203  53.729  0.00  0.00    +0.000 C 
BRANCH  13  14
ATOM     14  C   UNL     1      29.026   0.799  53.556  0.00  0.00    +0.000 C 
ATOM     15  N   UNL     1      29.096   2.125  53.254  0.00  0.00    +0.000 N 
ATOM     16  O   UNL     1      30.058   0.148  53.725  0.00  0.00    +0.000 OA
ATOM     17  H   UNL     1      28.271   2.644  53.119  0.00  0.00    +0.000 HD
ATOM     18  H   UNL     1      29.974   2.565  53.173  0.00  0.00    +0.000 HD
ENDBRANCH  13  14
ENDBRANCH  12  13
ENDBRANCH  11  12
ENDBRANCH   7  10
BRANCH   1  19
ATOM     19  S   UNL     1      23.888   6.364  51.008  0.00  0.00    +0.000 S 
BRANCH  19  24
ATOM     20  C   UNL     1      29.018   6.259  47.674  0.00  0.00    +0.000 C 
ATOM     21  C   UNL     1      27.747   6.259  48.469  0.00  0.00    +0.000 A 
ATOM     22  C   UNL     1      27.088   5.062  48.765  0.00  0.00    +0.000 A 
ATOM     23  C   UNL     1      25.906   5.060  49.514  0.00  0.00    +0.000 A 
ATOM     24  C   UNL     1      25.363   6.253  50.000  0.00  0.00    +0.000 A 
ATOM     25  C   UNL     1      26.024   7.453  49.692  0.00  0.00    +0.000 A 
ATOM     26  C   UNL     1      27.200   7.459  48.932  0.00  0.00    +0.000 A 
ENDBRANCH  19  24
ENDBRANCH   1  19
TORSDOF 6
ENDMDL
MODEL 7
REMARK VINA RESULT:    -6.726      4.504      7.585
REMARK INTER + INTRA:         -10.210
REMARK INTER:                  -9.695
REMARK INTRA:                  -0.515
REMARK UNBOUND:                -1.126
REMARK  Name = 
REMARK  7 active torsions:
REMARK  status: ('A' for Active; 'I' for Inactive)
REMARK    1  A    between atoms: C_1  and  C_2
REMARK    2  A    between atoms: C_5  and  S_6
REMARK    3  A    between atoms: S_6  and  C_7
REMARK    4  A    between atoms: C_13  and  C_14
REMARK    5  A    between atoms: N_15  and  O_16
REMARK    6  A    between atoms: O_16  and  C_17
REMARK    7  A    between atoms: C_17  and  C_18
REMARK                            x       y       z     vdW  Elec       q    Type
REMARK                         _______ _______ _______ _____ _____    ______ ____
ROOT
ATOM      1  C   UNL     1      23.183   0.150  53.216  0.00  0.00    +0.000 A 
ATOM      2  C   UNL     1      23.570  -0.670  54.270  0.00  0.00    +0.000 A 
ATOM      3  N   UNL     1      22.731  -1.452  54.982  0.00  0.00    +0.000 NA
ATOM      4  C   UNL     1      21.415  -1.437  54.679  0.00  0.00    +0.000 A 
ATOM      5  C   UNL     1      20.939  -0.617  53.653  0.00  0.00    +0.000 A 
ATOM      6  S   UNL     1      19.304  -0.459  53.129  0.00  0.00    +0.000 S 
ATOM      7  C   UNL     1      19.708   0.703  51.955  0.00  0.00    +0.000 A 
ATOM      8  C   UNL     1      21.060   0.959  51.936  0.00  0.00    +0.000 A 
ATOM      9  C   UNL     1      21.803   0.197  52.908  0.00  0.00    +0.000 A 
ENDROOT
BRANCH   7  10
ATOM     10  C   UNL     1      18.670   1.303  51.160  0.00  0.00    +0.000 C 
ATOM     11  N   UNL     1      17.776   2.052  51.722  0.00  0.00    +0.000 NA
BRANCH  11  12
ATOM     12  O   UNL     1      16.842   2.477  50.761  0.00  0.00    +0.000 OA
BRANCH  12  13
ATOM     13  C   UNL     1      15.545   2.381  51.341  0.00  0.00    +0.000 C 
BRANCH  13  14
ATOM     14  C   UNL     1      15.334   3.433  52.422  0.00  0.00    +0.000 C 
ATOM     15  N   UNL     1      16.273   4.415  52.519  0.00  0.00    +0.000 N 
ATOM     16  O   UNL     1      14.345   3.450  53.155  0.00  0.00    +0.000 OA
ATOM     17  H   UNL     1      17.063   4.400  51.933  0.00  0.00    +0.000 HD
ATOM     18  H   UNL     1      16.159   5.140  53.175  0.00  0.00    +0.000 HD
ENDBRANCH  13  14
ENDBRANCH  12  13
ENDBRANCH  11  12
ENDBRANCH   7  10
BRANCH   1  19
ATOM     19  S   UNL     1      24.329   1.158  52.324  0.00  0.00    +0.000 S 
BRANCH  19  24
ATOM     20  C   UNL     1      29.893  -0.860  53.883  0.00  0.00    +0.000 C 
ATOM     21  C   UNL     1      28.532  -0.383  53.469  0.00  0.00    +0.000 A 
ATOM     22  C   UNL     1      27.659  -1.225  52.775  0.00  0.00    +0.000 A 
ATOM     23  C   UNL     1      26.386  -0.783  52.395  0.00  0.00    +0.000 A 
ATOM     24  C   UNL     1      25.950   0.506  52.714  0.00  0.00    +0.000 A 
ATOM     25  C   UNL     1      26.835   1.351  53.403  0.00  0.00    +0.000 A 
ATOM     26  C   UNL     1      28.113   0.915  53.773  0.00  0.00    +0.000 A 
ENDBRANCH  19  24
ENDBRANCH   1  19
TORSDOF 6
ENDMDL
MODEL 8
REMARK VINA RESULT:    -6.637      3.281      6.439
REMARK INTER + INTRA:         -10.090
REMARK INTER:                  -9.255
REMARK INTRA:                  -0.836
REMARK UNBOUND:                -1.126
REMARK  Name = 
REMARK  7 active torsions:
REMARK  status: ('A' for Active; 'I' for Inactive)
REMARK    1  A    between atoms: C_1  and  C_2
REMARK    2  A    between atoms: C_5  and  S_6
REMARK    3  A    between atoms: S_6  and  C_7
REMARK    4  A    between atoms: C_13  and  C_14
REMARK    5  A    between atoms: N_15  and  O_16
REMARK    6  A    between atoms: O_16  and  C_17
REMARK    7  A    between atoms: C_17  and  C_18
REMARK                            x       y       z     vdW  Elec       q    Type
REMARK                         _______ _______ _______ _____ _____    ______ ____
ROOT
ATOM      1  C   UNL     1      23.573   1.488  52.631  0.00  0.00    +0.000 A 
ATOM      2  C   UNL     1      22.749   0.437  53.020  0.00  0.00    +0.000 A 
ATOM      3  N   UNL     1      21.730  -0.053  52.281  0.00  0.00    +0.000 NA
ATOM      4  C   UNL     1      21.462   0.516  51.086  0.00  0.00    +0.000 A 
ATOM      5  C   UNL     1      22.223   1.597  50.636  0.00  0.00    +0.000 A 
ATOM      6  S   UNL     1      22.027   2.452  49.151  0.00  0.00    +0.000 S 
ATOM      7  C   UNL     1      23.297   3.525  49.508  0.00  0.00    +0.000 A 
ATOM      8  C   UNL     1      23.883   3.235  50.719  0.00  0.00    +0.000 A 
ATOM      9  C   UNL     1      23.283   2.112  51.394  0.00  0.00    +0.000 A 
ENDROOT
BRANCH   7  10
ATOM     10  C   UNL     1      23.609   4.590  48.593  0.00  0.00    +0.000 C 
ATOM     11  N   UNL     1      24.214   5.652  49.018  0.00  0.00    +0.000 NA
BRANCH  11  12
ATOM     12  O   UNL     1      24.361   6.569  47.963  0.00  0.00    +0.000 OA
BRANCH  12  13
ATOM     13  C   UNL     1      25.078   7.695  48.460  0.00  0.00    +0.000 C 
BRANCH  13  14
ATOM     14  C   UNL     1      26.268   7.270  49.311  0.00  0.00    +0.000 C 
ATOM     15  N   UNL     1      26.090   7.262  50.660  0.00  0.00    +0.000 N 
ATOM     16  O   UNL     1      27.337   6.897  48.826  0.00  0.00    +0.000 OA
ATOM     17  H   UNL     1      25.236   7.560  51.046  0.00  0.00    +0.000 HD
ATOM     18  H   UNL     1      26.817   6.956  51.250  0.00  0.00    +0.000 HD
ENDBRANCH  13  14
ENDBRANCH  12  13
ENDBRANCH  11  12
ENDBRANCH   7  10
BRANCH   1  19
ATOM     19  S   UNL     1      24.890   2.091  53.644  0.00  0.00    +0.000 S 
BRANCH  19  24
ATOM     20  C   UNL     1      29.484  -1.942  53.365  0.00  0.00    +0.000 C 
ATOM     21  C   UNL     1      28.358  -0.952  53.397  0.00  0.00    +0.000 A 
ATOM     22  C   UNL     1      27.326  -1.010  52.455  0.00  0.00    +0.000 A 
ATOM     23  C   UNL     1      26.271  -0.091  52.489  0.00  0.00    +0.000 A 
ATOM     24  C   UNL     1      26.213   0.898  53.475  0.00  0.00    +0.000 A 
ATOM     25  C   UNL     1      27.258   0.959  54.413  0.00  0.00    +0.000 A 
ATOM     26  C   UNL     1      28.320   0.048  54.373  0.00  0.00    +0.000 A 
ENDBRANCH  19  24
ENDBRANCH   1  19
TORSDOF 6
ENDMDL
MODEL 9
REMARK VINA RESULT:    -6.607      1.585      2.178
REMARK INTER + INTRA:         -10.050
REMARK INTER:                  -9.425
REMARK INTRA:                  -0.625
REMARK UNBOUND:                -1.126
REMARK  Name = 
REMARK  7 active torsions:
REMARK  status: ('A' for Active; 'I' for Inactive)
REMARK    1  A    between atoms: C_1  and  C_2
REMARK    2  A    between atoms: C_5  and  S_6
REMARK    3  A    between atoms: S_6  and  C_7
REMARK    4  A    between atoms: C_13  and  C_14
REMARK    5  A    between atoms: N_15  and  O_16
REMARK    6  A    between atoms: O_16  and  C_17
REMARK    7  A    between atoms: C_17  and  C_18
REMARK                            x       y       z     vdW  Elec       q    Type
REMARK                         _______ _______ _______ _____ _____    ______ ____
ROOT
ATOM      1  C   UNL     1      20.426   0.872  50.886  0.00  0.00    +0.000 A 
ATOM      2  C   UNL     1      19.118   0.512  51.192  0.00  0.00    +0.000 A 
ATOM      3  N   UNL     1      18.737  -0.093  52.338  0.00  0.00    +0.000 NA
ATOM      4  C   UNL     1      19.679  -0.397  53.257  0.00  0.00    +0.000 A 
ATOM      5  C   UNL     1      21.021  -0.097  53.013  0.00  0.00    +0.000 A 
ATOM      6  S   UNL     1      22.357  -0.412  54.056  0.00  0.00    +0.000 S 
ATOM      7  C   UNL     1      23.477   0.232  52.950  0.00  0.00    +0.000 A 
ATOM      8  C   UNL     1      22.858   0.702  51.815  0.00  0.00    +0.000 A 
ATOM      9  C   UNL     1      21.427   0.532  51.828  0.00  0.00    +0.000 A 
ENDROOT
BRANCH   7  10
ATOM     10  C   UNL     1      24.881   0.202  53.259  0.00  0.00    +0.000 C 
ATOM     11  N   UNL     1      25.404  -0.853  53.798  0.00  0.00    +0.000 NA
BRANCH  11  12
ATOM     12  O   UNL     1      26.767  -0.629  54.057  0.00  0.00    +0.000 OA
BRANCH  12  13
ATOM     13  C   UNL     1      27.506  -1.093  52.932  0.00  0.00    +0.000 C 
BRANCH  13  14
ATOM     14  C   UNL     1      28.759  -1.848  53.357  0.00  0.00    +0.000 C 
ATOM     15  N   UNL     1      28.701  -3.207  53.327  0.00  0.00    +0.000 N 
ATOM     16  O   UNL     1      29.807  -1.281  53.670  0.00  0.00    +0.000 OA
ATOM     17  H   UNL     1      27.863  -3.659  53.076  0.00  0.00    +0.000 HD
ATOM     18  H   UNL     1      29.498  -3.739  53.554  0.00  0.00    +0.000 HD
ENDBRANCH  13  14
ENDBRANCH  12  13
ENDBRANCH  11  12
ENDBRANCH   7  10
BRANCH   1  19
ATOM     19  S   UNL     1      20.866   1.657  49.365  0.00  0.00    +0.000 S 
BRANCH  19  24
ATOM     20  C   UNL     1      23.950   6.612  51.204  0.00  0.00    +0.000 C 
ATOM     21  C   UNL     1      23.206   5.404  50.719  0.00  0.00    +0.000 A 
ATOM     22  C   UNL     1      23.770   4.551  49.765  0.00  0.00    +0.000 A 
ATOM     23  C   UNL     1      23.079   3.419  49.317  0.00  0.00    +0.000 A 
ATOM     24  C   UNL     1      21.816   3.103  49.825  0.00  0.00    +0.000 A 
ATOM     25  C   UNL     1      21.250   3.968  50.776  0.00  0.00    +0.000 A 
ATOM     26  C   UNL     1      21.934   5.108  51.216  0.00  0.00    +0.000 A 
ENDBRANCH  19  24
ENDBRANCH   1  19
TORSDOF 6
ENDMDL
