MODEL 1
REMARK VINA RESULT:    -9.755      0.000      0.000
REMARK INTER + INTRA:         -11.386
REMARK INTER:                 -11.181
REMARK INTRA:                  -0.205
REMARK UNBOUND:                -0.205
REMARK  Name = 
REMARK  3 active torsions:
REMARK  status: ('A' for Active; 'I' for Inactive)
REMARK    1  A    between atoms: C_4  and  S_5
REMARK    2  A    between atoms: C_8  and  S_9
REMARK    3  A    between atoms: S_9  and  C_12
REMARK                            x       y       z     vdW  Elec       q    Type
REMARK                         _______ _______ _______ _____ _____    ______ ____
ROOT
ATOM      1  N   UNL     1      17.839  -2.372  54.017  0.00  0.00    +0.000 N 
ATOM      2  C   UNL     1      18.792  -1.494  53.547  0.00  0.00    +0.000 A 
ATOM      3  N   UNL     1      18.453  -0.687  52.547  0.00  0.00    +0.000 NA
ATOM      4  C   UNL     1      19.394   0.177  52.127  0.00  0.00    +0.000 A 
ATOM      5  C   UNL     1      20.688   0.239  52.664  0.00  0.00    +0.000 A 
ATOM      6  C   UNL     1      21.716   1.132  52.272  0.00  0.00    +0.000 A 
ATOM      7  C   UNL     1      22.972   1.065  52.874  0.00  0.00    +0.000 A 
ATOM      8  C   UNL     1      23.230   0.103  53.844  0.00  0.00    +0.000 A 
ATOM      9  C   UNL     1      22.202  -0.759  54.237  0.00  0.00    +0.000 A 
ATOM     10  C   UNL     1      20.932  -0.700  53.672  0.00  0.00    +0.000 A 
ATOM     11  N   UNL     1      19.998  -1.549  54.110  0.00  0.00    +0.000 NA
ATOM     12  H   UNL     1      16.933  -2.368  53.631  0.00  0.00    +0.000 HD
ATOM     13  H   UNL     1      18.064  -3.002  54.739  0.00  0.00    +0.000 HD
ENDROOT
BRANCH   7  14
ATOM     14  S   UNL     1      24.261   2.172  52.350  0.00  0.00    +0.000 S 
ATOM     15  O   UNL     1      24.150   2.300  50.908  0.00  0.00    +0.000 OA
ATOM     16  O   UNL     1      24.193   3.347  53.199  0.00  0.00    +0.000 OA
BRANCH  14  17
ATOM     17  C   UNL     1      25.793   1.343  52.704  0.00  0.00    +0.000 A 
ATOM     18  C   UNL     1      26.831   2.052  53.306  0.00  0.00    +0.000 A 
ATOM     19  C   UNL     1      28.019   1.392  53.621  0.00  0.00    +0.000 A 
ATOM     20  C   UNL     1      28.168   0.021  53.359  0.00  0.00    +0.000 A 
ATOM     21  C   UNL     1      29.347  -0.658  53.705  0.00  0.00    +0.000 A 
ATOM     22  C   UNL     1      29.475  -2.028  53.472  0.00  0.00    +0.000 A 
ATOM     23  C   UNL     1      28.433  -2.733  52.876  0.00  0.00    +0.000 A 
ATOM     24  C   UNL     1      27.260  -2.071  52.513  0.00  0.00    +0.000 A 
ATOM     25  C   UNL     1      27.108  -0.696  52.754  0.00  0.00    +0.000 A 
ATOM     26  C   UNL     1      25.921  -0.022  52.425  0.00  0.00    +0.000 A 
ENDBRANCH  14  17
ENDBRANCH   7  14
BRANCH   4  27
ATOM     27  S   UNL     1      18.855   1.240  50.802  0.00  0.00    +0.000 S 
ATOM     28  H   UNL     1      17.787   1.975  51.216  0.00  0.00    +0.000 HD
ENDBRANCH   4  27
TORSDOF 3
ENDMDL
MODEL 2
REMARK VINA RESULT:    -9.059      4.339      6.238
REMARK INTER + INTRA:         -10.588
REMARK INTER:                 -10.691
REMARK INTRA:                   0.103
REMARK UNBOUND:                -0.205
REMARK  Name = 
REMARK  3 active torsions:
REMARK  status: ('A' for Active; 'I' for Inactive)
REMARK    1  A    between atoms: C_4  and  S_5
REMARK    2  A    between atoms: C_8  and  S_9
REMARK    3  A    between atoms: S_9  and  C_12
REMARK                            x       y       z     vdW  Elec       q    Type
REMARK                         _______ _______ _______ _____ _____    ______ ____
ROOT
ATOM      1  N   UNL     1      24.966  -1.737  55.855  0.00  0.00    +0.000 N 
ATOM      2  C   UNL     1      24.863  -0.781  54.867  0.00  0.00    +0.000 A 
ATOM      3  N   UNL     1      25.914   0.005  54.653  0.00  0.00    +0.000 NA
ATOM      4  C   UNL     1      25.794   0.910  53.665  0.00  0.00    +0.000 A 
ATOM      5  C   UNL     1      24.634   1.072  52.895  0.00  0.00    +0.000 A 
ATOM      6  C   UNL     1      24.454   1.998  51.836  0.00  0.00    +0.000 A 
ATOM      7  C   UNL     1      23.231   2.072  51.170  0.00  0.00    +0.000 A 
ATOM      8  C   UNL     1      22.174   1.257  51.558  0.00  0.00    +0.000 A 
ATOM      9  C   UNL     1      22.370   0.335  52.590  0.00  0.00    +0.000 A 
ATOM     10  C   UNL     1      23.586   0.220  53.258  0.00  0.00    +0.000 A 
ATOM     11  N   UNL     1      23.700  -0.695  54.224  0.00  0.00    +0.000 NA
ATOM     12  H   UNL     1      25.806  -1.837  56.358  0.00  0.00    +0.000 HD
ATOM     13  H   UNL     1      24.198  -2.318  56.058  0.00  0.00    +0.000 HD
ENDROOT
BRANCH   7  14
ATOM     14  S   UNL     1      23.009   3.259  49.865  0.00  0.00    +0.000 S 
ATOM     15  O   UNL     1      22.544   2.526  48.701  0.00  0.00    +0.000 OA
ATOM     16  O   UNL     1      22.225   4.354  50.404  0.00  0.00    +0.000 OA
BRANCH  14  17
ATOM     17  C   UNL     1      24.628   3.891  49.495  0.00  0.00    +0.000 A 
ATOM     18  C   UNL     1      25.727   3.036  49.555  0.00  0.00    +0.000 A 
ATOM     19  C   UNL     1      26.992   3.521  49.226  0.00  0.00    +0.000 A 
ATOM     20  C   UNL     1      27.164   4.852  48.812  0.00  0.00    +0.000 A 
ATOM     21  C   UNL     1      28.429   5.338  48.445  0.00  0.00    +0.000 A 
ATOM     22  C   UNL     1      28.586   6.653  48.003  0.00  0.00    +0.000 A 
ATOM     23  C   UNL     1      27.484   7.502  47.938  0.00  0.00    +0.000 A 
ATOM     24  C   UNL     1      26.222   7.039  48.314  0.00  0.00    +0.000 A 
ATOM     25  C   UNL     1      26.043   5.715  48.745  0.00  0.00    +0.000 A 
ATOM     26  C   UNL     1      24.775   5.224  49.094  0.00  0.00    +0.000 A 
ENDBRANCH  14  17
ENDBRANCH   7  14
BRANCH   4  27
ATOM     27  S   UNL     1      27.252   1.908  53.424  0.00  0.00    +0.000 S 
ATOM     28  H   UNL     1      26.986   3.193  53.784  0.00  0.00    +0.000 HD
ENDBRANCH   4  27
TORSDOF 3
ENDMDL
MODEL 3
REMARK VINA RESULT:    -9.023      1.486      2.157
REMARK INTER + INTRA:         -10.547
REMARK INTER:                 -10.342
REMARK INTRA:                  -0.205
REMARK UNBOUND:                -0.205
REMARK  Name = 
REMARK  3 active torsions:
REMARK  status: ('A' for Active; 'I' for Inactive)
REMARK    1  A    between atoms: C_4  and  S_5
REMARK    2  A    between atoms: C_8  and  S_9
REMARK    3  A    between atoms: S_9  and  C_12
REMARK                            x       y       z     vdW  Elec       q    Type
REMARK                         _______ _______ _______ _____ _____    ______ ____
ROOT
ATOM      1  N   UNL     1      18.773  -2.194  54.018  0.00  0.00    +0.000 N 
ATOM      2  C   UNL     1      19.932  -1.475  53.821  0.00  0.00    +0.000 A 
ATOM      3  N   UNL     1      20.965  -1.733  54.617  0.00  0.00    +0.000 NA
ATOM      4  C   UNL     1      22.091  -1.035  54.384  0.00  0.00    +0.000 A 
ATOM      5  C   UNL     1      22.207  -0.056  53.387  0.00  0.00    +0.000 A 
ATOM      6  C   UNL     1      23.367   0.702  53.088  0.00  0.00    +0.000 A 
ATOM      7  C   UNL     1      23.334   1.668  52.084  0.00  0.00    +0.000 A 
ATOM      8  C   UNL     1      22.155   1.912  51.387  0.00  0.00    +0.000 A 
ATOM      9  C   UNL     1      21.023   1.144  51.677  0.00  0.00    +0.000 A 
ATOM     10  C   UNL     1      21.032   0.156  52.658  0.00  0.00    +0.000 A 
ATOM     11  N   UNL     1      19.915  -0.545  52.867  0.00  0.00    +0.000 NA
ATOM     12  H   UNL     1      18.738  -2.892  54.712  0.00  0.00    +0.000 HD
ATOM     13  H   UNL     1      17.980  -2.010  53.464  0.00  0.00    +0.000 HD
ENDROOT
BRANCH   7  14
ATOM     14  S   UNL     1      24.788   2.633  51.740  0.00  0.00    +0.000 S 
ATOM     15  O   UNL     1      24.859   2.793  50.298  0.00  0.00    +0.000 OA
ATOM     16  O   UNL     1      24.749   3.797  52.606  0.00  0.00    +0.000 OA
BRANCH  14  17
ATOM     17  C   UNL     1      26.169   1.636  52.243  0.00  0.00    +0.000 A 
ATOM     18  C   UNL     1      27.264   2.244  52.855  0.00  0.00    +0.000 A 
ATOM     19  C   UNL     1      28.332   1.457  53.287  0.00  0.00    +0.000 A 
ATOM     20  C   UNL     1      28.302   0.061  53.134  0.00  0.00    +0.000 A 
ATOM     21  C   UNL     1      29.356  -0.741  53.598  0.00  0.00    +0.000 A 
ATOM     22  C   UNL     1      29.304  -2.129  53.471  0.00  0.00    +0.000 A 
ATOM     23  C   UNL     1      28.205  -2.733  52.864  0.00  0.00    +0.000 A 
ATOM     24  C   UNL     1      27.155  -1.949  52.385  0.00  0.00    +0.000 A 
ATOM     25  C   UNL     1      27.184  -0.551  52.518  0.00  0.00    +0.000 A 
ATOM     26  C   UNL     1      26.120   0.248  52.071  0.00  0.00    +0.000 A 
ENDBRANCH  14  17
ENDBRANCH   7  14
BRANCH   4  27
ATOM     27  S   UNL     1      23.437  -1.456  55.475  0.00  0.00    +0.000 S 
ATOM     28  H   UNL     1      23.023  -2.402  56.360  0.00  0.00    +0.000 HD
ENDBRANCH   4  27
TORSDOF 3
ENDMDL
MODEL 4
REMARK VINA RESULT:    -8.872      4.117      5.566
REMARK INTER + INTRA:         -10.373
REMARK INTER:                 -10.647
REMARK INTRA:                   0.274
REMARK UNBOUND:                -0.205
REMARK  Name = 
REMARK  3 active torsions:
REMARK  status: ('A' for Active; 'I' for Inactive)
REMARK    1  A    between atoms: C_4  and  S_5
REMARK    2  A    between atoms: C_8  and  S_9
REMARK    3  A    between atoms: S_9  and  C_12
REMARK                            x       y       z     vdW  Elec       q    Type
REMARK                         _______ _______ _______ _____ _____    ______ ____
ROOT
ATOM      1  N   UNL     1      23.091  -1.964  55.895  0.00  0.00    +0.000 N 
ATOM      2  C   UNL     1      22.841  -1.106  54.846  0.00  0.00    +0.000 A 
ATOM      3  N   UNL     1      21.590  -1.014  54.404  0.00  0.00    +0.000 NA
ATOM      4  C   UNL     1      21.372  -0.149  53.397  0.00  0.00    +0.000 A 
ATOM      5  C   UNL     1      22.382   0.615  52.795  0.00  0.00    +0.000 A 
ATOM      6  C   UNL     1      22.211   1.549  51.742  0.00  0.00    +0.000 A 
ATOM      7  C   UNL     1      23.312   2.221  51.215  0.00  0.00    +0.000 A 
ATOM      8  C   UNL     1      24.589   1.961  51.703  0.00  0.00    +0.000 A 
ATOM      9  C   UNL     1      24.742   1.053  52.755  0.00  0.00    +0.000 A 
ATOM     10  C   UNL     1      23.659   0.384  53.317  0.00  0.00    +0.000 A 
ATOM     11  N   UNL     1      23.884  -0.458  54.329  0.00  0.00    +0.000 NA
ATOM     12  H   UNL     1      22.351  -2.465  56.308  0.00  0.00    +0.000 HD
ATOM     13  H   UNL     1      24.009  -2.077  56.230  0.00  0.00    +0.000 HD
ENDROOT
BRANCH   7  14
ATOM     14  S   UNL     1      23.088   3.367  49.874  0.00  0.00    +0.000 S 
ATOM     15  O   UNL     1      22.616   2.598  48.735  0.00  0.00    +0.000 OA
ATOM     16  O   UNL     1      22.307   4.480  50.382  0.00  0.00    +0.000 OA
BRANCH  14  17
ATOM     17  C   UNL     1      24.706   3.984  49.479  0.00  0.00    +0.000 A 
ATOM     18  C   UNL     1      25.795   3.114  49.501  0.00  0.00    +0.000 A 
ATOM     19  C   UNL     1      27.059   3.588  49.152  0.00  0.00    +0.000 A 
ATOM     20  C   UNL     1      27.239   4.923  48.755  0.00  0.00    +0.000 A 
ATOM     21  C   UNL     1      28.502   5.399  48.368  0.00  0.00    +0.000 A 
ATOM     22  C   UNL     1      28.667   6.718  47.944  0.00  0.00    +0.000 A 
ATOM     23  C   UNL     1      27.575   7.582  47.917  0.00  0.00    +0.000 A 
ATOM     24  C   UNL     1      26.316   7.130  48.313  0.00  0.00    +0.000 A 
ATOM     25  C   UNL     1      26.129   5.801  48.727  0.00  0.00    +0.000 A 
ATOM     26  C   UNL     1      24.862   5.321  49.096  0.00  0.00    +0.000 A 
ENDBRANCH  14  17
ENDBRANCH   7  14
BRANCH   4  27
ATOM     27  S   UNL     1      19.669  -0.065  52.878  0.00  0.00    +0.000 S 
ATOM     28  H   UNL     1      19.197   1.196  53.072  0.00  0.00    +0.000 HD
ENDBRANCH   4  27
TORSDOF 3
ENDMDL
MODEL 5
REMARK VINA RESULT:    -8.677      2.900      4.638
REMARK INTER + INTRA:         -10.150
REMARK INTER:                  -9.951
REMARK INTRA:                  -0.199
REMARK UNBOUND:                -0.205
REMARK  Name = 
REMARK  3 active torsions:
REMARK  status: ('A' for Active; 'I' for Inactive)
REMARK    1  A    between atoms: C_4  and  S_5
REMARK    2  A    between atoms: C_8  and  S_9
REMARK    3  A    between atoms: S_9  and  C_12
REMARK                            x       y       z     vdW  Elec       q    Type
REMARK                         _______ _______ _______ _____ _____    ______ ____
ROOT
ATOM      1  N   UNL     1      18.065  -1.250  53.738  0.00  0.00    +0.000 N 
ATOM      2  C   UNL     1      19.316  -0.800  53.374  0.00  0.00    +0.000 A 
ATOM      3  N   UNL     1      19.416  -0.079  52.262  0.00  0.00    +0.000 NA
ATOM      4  C   UNL     1      20.645   0.369  51.947  0.00  0.00    +0.000 A 
ATOM      5  C   UNL     1      21.792   0.091  52.703  0.00  0.00    +0.000 A 
ATOM      6  C   UNL     1      23.108   0.543  52.427  0.00  0.00    +0.000 A 
ATOM      7  C   UNL     1      24.166   0.165  53.251  0.00  0.00    +0.000 A 
ATOM      8  C   UNL     1      23.942  -0.679  54.334  0.00  0.00    +0.000 A 
ATOM      9  C   UNL     1      22.638  -1.102  54.607  0.00  0.00    +0.000 A 
ATOM     10  C   UNL     1      21.557  -0.722  53.817  0.00  0.00    +0.000 A 
ATOM     11  N   UNL     1      20.339  -1.155  54.151  0.00  0.00    +0.000 NA
ATOM     12  H   UNL     1      17.279  -1.013  53.195  0.00  0.00    +0.000 HD
ATOM     13  H   UNL     1      17.958  -1.808  54.542  0.00  0.00    +0.000 HD
ENDROOT
BRANCH   7  14
ATOM     14  S   UNL     1      25.815   0.714  52.876  0.00  0.00    +0.000 S 
ATOM     15  O   UNL     1      26.398   1.186  54.120  0.00  0.00    +0.000 OA
ATOM     16  O   UNL     1      26.461  -0.341  52.118  0.00  0.00    +0.000 OA
BRANCH  14  17
ATOM     17  C   UNL     1      25.633   2.115  51.798  0.00  0.00    +0.000 A 
ATOM     18  C   UNL     1      26.452   2.224  50.675  0.00  0.00    +0.000 A 
ATOM     19  C   UNL     1      26.282   3.302  49.806  0.00  0.00    +0.000 A 
ATOM     20  C   UNL     1      25.282   4.260  50.038  0.00  0.00    +0.000 A 
ATOM     21  C   UNL     1      25.082   5.328  49.150  0.00  0.00    +0.000 A 
ATOM     22  C   UNL     1      24.065   6.257  49.370  0.00  0.00    +0.000 A 
ATOM     23  C   UNL     1      23.246   6.140  50.490  0.00  0.00    +0.000 A 
ATOM     24  C   UNL     1      23.440   5.093  51.391  0.00  0.00    +0.000 A 
ATOM     25  C   UNL     1      24.449   4.140  51.177  0.00  0.00    +0.000 A 
ATOM     26  C   UNL     1      24.635   3.061  52.056  0.00  0.00    +0.000 A 
ENDBRANCH  14  17
ENDBRANCH   7  14
BRANCH   4  27
ATOM     27  S   UNL     1      20.693   1.347  50.457  0.00  0.00    +0.000 S 
ATOM     28  H   UNL     1      21.941   1.863  50.293  0.00  0.00    +0.000 HD
ENDBRANCH   4  27
TORSDOF 3
ENDMDL
MODEL 6
REMARK VINA RESULT:    -8.647      1.526      2.516
REMARK INTER + INTRA:         -10.115
REMARK INTER:                 -10.137
REMARK INTRA:                   0.022
REMARK UNBOUND:                -0.205
REMARK  Name = 
REMARK  3 active torsions:
REMARK  status: ('A' for Active; 'I' for Inactive)
REMARK    1  A    between atoms: C_4  and  S_5
REMARK    2  A    between atoms: C_8  and  S_9
REMARK    3  A    between atoms: S_9  and  C_12
REMARK                            x       y       z     vdW  Elec       q    Type
REMARK                         _______ _______ _______ _____ _____    ______ ____
ROOT
ATOM      1  N   UNL     1      17.501  -1.082  52.565  0.00  0.00    +0.000 N 
ATOM      2  C   UNL     1      18.758  -0.543  52.732  0.00  0.00    +0.000 A 
ATOM      3  N   UNL     1      19.579  -1.138  53.591  0.00  0.00    +0.000 NA
ATOM      4  C   UNL     1      20.808  -0.606  53.713  0.00  0.00    +0.000 A 
ATOM      5  C   UNL     1      21.236   0.532  53.016  0.00  0.00    +0.000 A 
ATOM      6  C   UNL     1      22.519   1.131  53.095  0.00  0.00    +0.000 A 
ATOM      7  C   UNL     1      22.801   2.284  52.364  0.00  0.00    +0.000 A 
ATOM      8  C   UNL     1      21.818   2.868  51.573  0.00  0.00    +0.000 A 
ATOM      9  C   UNL     1      20.563   2.258  51.488  0.00  0.00    +0.000 A 
ATOM     10  C   UNL     1      20.259   1.093  52.187  0.00  0.00    +0.000 A 
ATOM     11  N   UNL     1      19.042   0.561  52.043  0.00  0.00    +0.000 NA
ATOM     12  H   UNL     1      17.246  -1.897  53.054  0.00  0.00    +0.000 HD
ATOM     13  H   UNL     1      16.858  -0.651  51.957  0.00  0.00    +0.000 HD
ENDROOT
BRANCH   7  14
ATOM     14  S   UNL     1      24.405   3.041  52.496  0.00  0.00    +0.000 S 
ATOM     15  O   UNL     1      24.681   3.673  51.218  0.00  0.00    +0.000 OA
ATOM     16  O   UNL     1      24.414   3.824  53.718  0.00  0.00    +0.000 OA
BRANCH  14  17
ATOM     17  C   UNL     1      25.562   1.709  52.704  0.00  0.00    +0.000 A 
ATOM     18  C   UNL     1      25.199   0.421  52.313  0.00  0.00    +0.000 A 
ATOM     19  C   UNL     1      26.122  -0.618  52.438  0.00  0.00    +0.000 A 
ATOM     20  C   UNL     1      27.414  -0.374  52.929  0.00  0.00    +0.000 A 
ATOM     21  C   UNL     1      28.359  -1.407  53.025  0.00  0.00    +0.000 A 
ATOM     22  C   UNL     1      29.652  -1.150  53.482  0.00  0.00    +0.000 A 
ATOM     23  C   UNL     1      30.012   0.139  53.866  0.00  0.00    +0.000 A 
ATOM     24  C   UNL     1      29.080   1.175  53.790  0.00  0.00    +0.000 A 
ATOM     25  C   UNL     1      27.779   0.938  53.317  0.00  0.00    +0.000 A 
ATOM     26  C   UNL     1      26.841   1.976  53.204  0.00  0.00    +0.000 A 
ENDBRANCH  14  17
ENDBRANCH   7  14
BRANCH   4  27
ATOM     27  S   UNL     1      21.857  -1.475  54.864  0.00  0.00    +0.000 S 
ATOM     28  H   UNL     1      21.088  -2.218  55.706  0.00  0.00    +0.000 HD
ENDBRANCH   4  27
TORSDOF 3
ENDMDL
MODEL 7
REMARK VINA RESULT:    -8.527      4.576      7.143
REMARK INTER + INTRA:          -9.978
REMARK INTER:                  -9.409
REMARK INTRA:                  -0.569
REMARK UNBOUND:                -0.205
REMARK  Name = 
REMARK  3 active torsions:
REMARK  status: ('A' for Active; 'I' for Inactive)
REMARK    1  A    between atoms: C_4  and  S_5
REMARK    2  A    between atoms: C_8  and  S_9
REMARK    3  A    between atoms: S_9  and  C_12
REMARK                            x       y       z     vdW  Elec       q    Type
REMARK                         _______ _______ _______ _____ _____    ______ ____
ROOT
ATOM      1  N   UNL     1      12.206   4.912  54.388  0.00  0.00    +0.000 N 
ATOM      2  C   UNL     1      13.051   4.008  53.781  0.00  0.00    +0.000 A 
ATOM      3  N   UNL     1      12.712   2.723  53.815  0.00  0.00    +0.000 NA
ATOM      4  C   UNL     1      13.542   1.868  53.192  0.00  0.00    +0.000 A 
ATOM      5  C   UNL     1      14.727   2.259  52.554  0.00  0.00    +0.000 A 
ATOM      6  C   UNL     1      15.634   1.407  51.872  0.00  0.00    +0.000 A 
ATOM      7  C   UNL     1      16.795   1.929  51.304  0.00  0.00    +0.000 A 
ATOM      8  C   UNL     1      17.084   3.284  51.425  0.00  0.00    +0.000 A 
ATOM      9  C   UNL     1      16.173   4.117  52.081  0.00  0.00    +0.000 A 
ATOM     10  C   UNL     1      14.994   3.630  52.638  0.00  0.00    +0.000 A 
ATOM     11  N   UNL     1      14.167   4.491  53.237  0.00  0.00    +0.000 NA
ATOM     12  H   UNL     1      11.370   4.602  54.804  0.00  0.00    +0.000 HD
ATOM     13  H   UNL     1      12.439   5.868  54.405  0.00  0.00    +0.000 HD
ENDROOT
BRANCH   7  14
ATOM     14  S   UNL     1      17.937   0.844  50.480  0.00  0.00    +0.000 S 
ATOM     15  O   UNL     1      17.167  -0.280  49.978  0.00  0.00    +0.000 OA
ATOM     16  O   UNL     1      18.726   1.656  49.573  0.00  0.00    +0.000 OA
BRANCH  14  17
ATOM     17  C   UNL     1      19.030   0.232  51.740  0.00  0.00    +0.000 A 
ATOM     18  C   UNL     1      18.544  -0.664  52.690  0.00  0.00    +0.000 A 
ATOM     19  C   UNL     1      19.412  -1.177  53.655  0.00  0.00    +0.000 A 
ATOM     20  C   UNL     1      20.769  -0.817  53.663  0.00  0.00    +0.000 A 
ATOM     21  C   UNL     1      21.655  -1.356  54.609  0.00  0.00    +0.000 A 
ATOM     22  C   UNL     1      23.009  -1.019  54.588  0.00  0.00    +0.000 A 
ATOM     23  C   UNL     1      23.491  -0.128  53.634  0.00  0.00    +0.000 A 
ATOM     24  C   UNL     1      22.621   0.428  52.695  0.00  0.00    +0.000 A 
ATOM     25  C   UNL     1      21.258   0.088  52.690  0.00  0.00    +0.000 A 
ATOM     26  C   UNL     1      20.377   0.613  51.731  0.00  0.00    +0.000 A 
ENDBRANCH  14  17
ENDBRANCH   7  14
BRANCH   4  27
ATOM     27  S   UNL     1      13.007   0.168  53.260  0.00  0.00    +0.000 S 
ATOM     28  H   UNL     1      11.764   0.106  53.811  0.00  0.00    +0.000 HD
ENDBRANCH   4  27
TORSDOF 3
ENDMDL
MODEL 8
REMARK VINA RESULT:    -8.481      4.097      7.298
REMARK INTER + INTRA:          -9.926
REMARK INTER:                  -9.368
REMARK INTRA:                  -0.558
REMARK UNBOUND:                -0.205
REMARK  Name = 
REMARK  3 active torsions:
REMARK  status: ('A' for Active; 'I' for Inactive)
REMARK    1  A    between atoms: C_4  and  S_5
REMARK    2  A    between atoms: C_8  and  S_9
REMARK    3  A    between atoms: S_9  and  C_12
REMARK                            x       y       z     vdW  Elec       q    Type
REMARK                         _______ _______ _______ _____ _____    ______ ____
ROOT
ATOM      1  N   UNL     1      29.795   1.335  53.996  0.00  0.00    +0.000 N 
ATOM      2  C   UNL     1      28.444   1.172  53.777  0.00  0.00    +0.000 A 
ATOM      3  N   UNL     1      27.885   1.876  52.798  0.00  0.00    +0.000 NA
ATOM      4  C   UNL     1      26.571   1.676  52.590  0.00  0.00    +0.000 A 
ATOM      5  C   UNL     1      25.786   0.806  53.358  0.00  0.00    +0.000 A 
ATOM      6  C   UNL     1      24.403   0.546  53.180  0.00  0.00    +0.000 A 
ATOM      7  C   UNL     1      23.736  -0.326  54.039  0.00  0.00    +0.000 A 
ATOM      8  C   UNL     1      24.418  -0.926  55.092  0.00  0.00    +0.000 A 
ATOM      9  C   UNL     1      25.785  -0.678  55.246  0.00  0.00    +0.000 A 
ATOM     10  C   UNL     1      26.483   0.169  54.390  0.00  0.00    +0.000 A 
ATOM     11  N   UNL     1      27.792   0.344  54.593  0.00  0.00    +0.000 NA
ATOM     12  H   UNL     1      30.318   1.937  53.419  0.00  0.00    +0.000 HD
ATOM     13  H   UNL     1      30.236   0.849  54.730  0.00  0.00    +0.000 HD
ENDROOT
BRANCH   7  14
ATOM     14  S   UNL     1      21.996  -0.618  53.822  0.00  0.00    +0.000 S 
ATOM     15  O   UNL     1      21.858  -1.943  53.243  0.00  0.00    +0.000 OA
ATOM     16  O   UNL     1      21.343  -0.295  55.078  0.00  0.00    +0.000 OA
BRANCH  14  17
ATOM     17  C   UNL     1      21.446   0.562  52.613  0.00  0.00    +0.000 A 
ATOM     18  C   UNL     1      20.852   1.750  53.037  0.00  0.00    +0.000 A 
ATOM     19  C   UNL     1      20.457   2.694  52.090  0.00  0.00    +0.000 A 
ATOM     20  C   UNL     1      20.674   2.471  50.721  0.00  0.00    +0.000 A 
ATOM     21  C   UNL     1      20.311   3.432  49.764  0.00  0.00    +0.000 A 
ATOM     22  C   UNL     1      20.560   3.217  48.408  0.00  0.00    +0.000 A 
ATOM     23  C   UNL     1      21.159   2.031  47.990  0.00  0.00    +0.000 A 
ATOM     24  C   UNL     1      21.513   1.059  48.927  0.00  0.00    +0.000 A 
ATOM     25  C   UNL     1      21.284   1.266  50.297  0.00  0.00    +0.000 A 
ATOM     26  C   UNL     1      21.665   0.312  51.254  0.00  0.00    +0.000 A 
ENDBRANCH  14  17
ENDBRANCH   7  14
BRANCH   4  27
ATOM     27  S   UNL     1      25.902   2.636  51.245  0.00  0.00    +0.000 S 
ATOM     28  H   UNL     1      24.837   1.982  50.707  0.00  0.00    +0.000 HD
ENDBRANCH   4  27
TORSDOF 3
ENDMDL
MODEL 9
REMARK VINA RESULT:    -8.170      4.388      7.377
REMARK INTER + INTRA:          -9.569
REMARK INTER:                  -8.941
REMARK INTRA:                  -0.628
REMARK UNBOUND:                -0.205
REMARK  Name = 
REMARK  3 active torsions:
REMARK  status: ('A' for Active; 'I' for Inactive)
REMARK    1  A    between atoms: C_4  and  S_5
REMARK    2  A    between atoms: C_8  and  S_9
REMARK    3  A    between atoms: S_9  and  C_12
REMARK                            x       y       z     vdW  Elec       q    Type
REMARK                         _______ _______ _______ _____ _____    ______ ____
ROOT
ATOM      1  N   UNL     1      28.322  -0.920  54.036  0.00  0.00    +0.000 N 
ATOM      2  C   UNL     1      27.180  -0.335  53.533  0.00  0.00    +0.000 A 
ATOM      3  N   UNL     1      27.324   0.670  52.675  0.00  0.00    +0.000 NA
ATOM      4  C   UNL     1      26.193   1.204  52.180  0.00  0.00    +0.000 A 
ATOM      5  C   UNL     1      24.908   0.776  52.543  0.00  0.00    +0.000 A 
ATOM      6  C   UNL     1      23.683   1.291  52.048  0.00  0.00    +0.000 A 
ATOM      7  C   UNL     1      22.470   0.790  52.519  0.00  0.00    +0.000 A 
ATOM      8  C   UNL     1      22.456  -0.200  53.496  0.00  0.00    +0.000 A 
ATOM      9  C   UNL     1      23.670  -0.713  53.962  0.00  0.00    +0.000 A 
ATOM     10  C   UNL     1      24.896  -0.250  53.493  0.00  0.00    +0.000 A 
ATOM     11  N   UNL     1      26.013  -0.800  53.976  0.00  0.00    +0.000 NA
ATOM     12  H   UNL     1      29.207  -0.608  53.738  0.00  0.00    +0.000 HD
ATOM     13  H   UNL     1      28.252  -1.648  54.694  0.00  0.00    +0.000 HD
ENDROOT
BRANCH   7  14
ATOM     14  S   UNL     1      20.942   1.465  51.912  0.00  0.00    +0.000 S 
ATOM     15  O   UNL     1      20.102   0.342  51.535  0.00  0.00    +0.000 OA
ATOM     16  O   UNL     1      20.478   2.432  52.890  0.00  0.00    +0.000 OA
BRANCH  14  17
ATOM     17  C   UNL     1      21.352   2.357  50.431  0.00  0.00    +0.000 A 
ATOM     18  C   UNL     1      21.496   1.661  49.232  0.00  0.00    +0.000 A 
ATOM     19  C   UNL     1      21.778   2.364  48.061  0.00  0.00    +0.000 A 
ATOM     20  C   UNL     1      21.893   3.764  48.076  0.00  0.00    +0.000 A 
ATOM     21  C   UNL     1      22.142   4.482  46.896  0.00  0.00    +0.000 A 
ATOM     22  C   UNL     1      22.221   5.875  46.913  0.00  0.00    +0.000 A 
ATOM     23  C   UNL     1      22.070   6.566  48.112  0.00  0.00    +0.000 A 
ATOM     24  C   UNL     1      21.837   5.867  49.297  0.00  0.00    +0.000 A 
ATOM     25  C   UNL     1      21.738   4.466  49.295  0.00  0.00    +0.000 A 
ATOM     26  C   UNL     1      21.470   3.750  50.473  0.00  0.00    +0.000 A 
ENDBRANCH  14  17
ENDBRANCH   7  14
BRANCH   4  27
ATOM     27  S   UNL     1      26.470   2.528  51.019  0.00  0.00    +0.000 S 
ATOM     28  H   UNL     1      27.193   3.512  51.618  0.00  0.00    +0.000 HD
ENDBRANCH   4  27
TORSDOF 3
ENDMDL
