MODEL 1
REMARK VINA RESULT:    -9.207      0.000      0.000
REMARK INTER + INTRA:         -15.078
REMARK INTER:                 -13.513
REMARK INTRA:                  -1.565
REMARK UNBOUND:                -1.565
REMARK  Name = 
REMARK  11 active torsions:
REMARK  status: ('A' for Active; 'I' for Inactive)
REMARK    1  A    between atoms: C_1  and  C_2
REMARK    2  A    between atoms: C_2  and  C_3
REMARK    3  A    between atoms: C_4  and  C_5
REMARK    4  A    between atoms: C_5  and  C_6
REMARK    5  A    between atoms: C_6  and  O_7
REMARK    6  A    between atoms: C_6  and  C_17
REMARK    7  A    between atoms: O_7  and  C_8
REMARK    8  A    between atoms: C_8  and  C_10
REMARK    9  A    between atoms: C_10  and  C_11
REMARK   10  A    between atoms: C_22  and  O_23
REMARK   11  A    between atoms: C_26  and  O_27
REMARK                            x       y       z     vdW  Elec       q    Type
REMARK                         _______ _______ _______ _____ _____    ______ ____
ROOT
ATOM      1  C   UNL     1      24.990   2.057  51.561  0.00  0.00    +0.000 C 
ENDROOT
BRANCH   1   2
ATOM      2  C   UNL     1      25.652   1.007  52.418  0.00  0.00    +0.000 C 
ATOM      3  C   UNL     1      25.560  -0.309  52.187  0.00  0.00    +0.000 C 
ATOM      4  C   UNL     1      26.588  -1.235  52.685  0.00  0.00    +0.000 C 
ATOM      5  O   UNL     1      26.495  -2.441  52.493  0.00  0.00    +0.000 OA
ATOM      6  C   UNL     1      27.826  -0.642  53.227  0.00  0.00    +0.000 A 
ATOM      7  C   UNL     1      28.994  -1.407  53.288  0.00  0.00    +0.000 A 
ATOM      8  C   UNL     1      30.180  -0.840  53.749  0.00  0.00    +0.000 A 
ATOM      9  C   UNL     1      30.213   0.502  54.123  0.00  0.00    +0.000 A 
ATOM     10  C   UNL     1      29.057   1.278  54.021  0.00  0.00    +0.000 A 
ATOM     11  C   UNL     1      27.855   0.707  53.588  0.00  0.00    +0.000 A 
ATOM     12  C   UNL     1      26.633   1.519  53.405  0.00  0.00    +0.000 C 
ATOM     13  O   UNL     1      26.423   2.568  53.997  0.00  0.00    +0.000 OA
BRANCH   7  14
ATOM     14  O   UNL     1      29.064  -2.704  52.861  0.00  0.00    +0.000 OA
ATOM     15  H   UNL     1      29.568  -2.921  52.102  0.00  0.00    +0.000 HD
ENDBRANCH   7  14
BRANCH  10  16
ATOM     16  O   UNL     1      29.133   2.615  54.292  0.00  0.00    +0.000 OA
ATOM     17  H   UNL     1      29.912   3.091  54.082  0.00  0.00    +0.000 HD
ENDBRANCH  10  16
ENDBRANCH   1   2
BRANCH   1  18
ATOM     18  C   UNL     1      26.019   2.723  50.611  0.00  0.00    +0.000 C 
BRANCH  18  22
ATOM     19  C   UNL     1      27.606   4.540  48.783  0.00  0.00    +0.000 C 
ATOM     20  C   UNL     1      26.193   4.820  49.221  0.00  0.00    +0.000 C 
ATOM     21  C   UNL     1      25.576   6.111  48.776  0.00  0.00    +0.000 C 
ATOM     22  C   UNL     1      25.493   3.995  50.022  0.00  0.00    +0.000 C 
ENDBRANCH  18  22
ENDBRANCH   1  18
BRANCH   1  23
ATOM     23  O   UNL     1      23.766   1.573  50.986  0.00  0.00    +0.000 OA
BRANCH  23  24
ATOM     24  C   UNL     1      22.612   2.242  51.197  0.00  0.00    +0.000 C 
ATOM     25  O   UNL     1      21.917   2.739  50.319  0.00  0.00    +0.000 OA
BRANCH  24  26
ATOM     26  C   UNL     1      22.274   2.260  52.665  0.00  0.00    +0.000 C 
BRANCH  26  27
ATOM     27  C   UNL     1      21.665   0.958  53.125  0.00  0.00    +0.000 A 
ATOM     28  C   UNL     1      22.409   0.053  53.892  0.00  0.00    +0.000 A 
ATOM     29  C   UNL     1      21.823  -1.128  54.352  0.00  0.00    +0.000 A 
ATOM     30  C   UNL     1      20.497  -1.422  54.039  0.00  0.00    +0.000 A 
ATOM     31  C   UNL     1      19.757  -0.543  53.253  0.00  0.00    +0.000 A 
ATOM     32  C   UNL     1      20.336   0.642  52.803  0.00  0.00    +0.000 A 
ENDBRANCH  26  27
ENDBRANCH  24  26
ENDBRANCH  23  24
ENDBRANCH   1  23
TORSDOF 9
ENDMDL
MODEL 2
REMARK VINA RESULT:    -8.941      1.790      2.510
REMARK INTER + INTRA:         -14.688
REMARK INTER:                 -12.621
REMARK INTRA:                  -2.067
REMARK UNBOUND:                -1.565
REMARK  Name = 
REMARK  11 active torsions:
REMARK  status: ('A' for Active; 'I' for Inactive)
REMARK    1  A    between atoms: C_1  and  C_2
REMARK    2  A    between atoms: C_2  and  C_3
REMARK    3  A    between atoms: C_4  and  C_5
REMARK    4  A    between atoms: C_5  and  C_6
REMARK    5  A    between atoms: C_6  and  O_7
REMARK    6  A    between atoms: C_6  and  C_17
REMARK    7  A    between atoms: O_7  and  C_8
REMARK    8  A    between atoms: C_8  and  C_10
REMARK    9  A    between atoms: C_10  and  C_11
REMARK   10  A    between atoms: C_22  and  O_23
REMARK   11  A    between atoms: C_26  and  O_27
REMARK                            x       y       z     vdW  Elec       q    Type
REMARK                         _______ _______ _______ _____ _____    ______ ____
ROOT
ATOM      1  C   UNL     1      25.129   2.673  52.277  0.00  0.00    +0.000 C 
ENDROOT
BRANCH   1   2
ATOM      2  C   UNL     1      25.674   1.457  52.982  0.00  0.00    +0.000 C 
ATOM      3  C   UNL     1      25.204   0.216  52.797  0.00  0.00    +0.000 C 
ATOM      4  C   UNL     1      26.047  -0.958  53.068  0.00  0.00    +0.000 C 
ATOM      5  O   UNL     1      25.612  -2.093  52.921  0.00  0.00    +0.000 OA
ATOM      6  C   UNL     1      27.482  -0.716  53.313  0.00  0.00    +0.000 A 
ATOM      7  C   UNL     1      28.403  -1.751  53.126  0.00  0.00    +0.000 A 
ATOM      8  C   UNL     1      29.765  -1.518  53.304  0.00  0.00    +0.000 A 
ATOM      9  C   UNL     1      30.217  -0.244  53.641  0.00  0.00    +0.000 A 
ATOM     10  C   UNL     1      29.302   0.800  53.786  0.00  0.00    +0.000 A 
ATOM     11  C   UNL     1      27.930   0.567  53.638  0.00  0.00    +0.000 A 
ATOM     12  C   UNL     1      26.944   1.665  53.719  0.00  0.00    +0.000 C 
ATOM     13  O   UNL     1      27.141   2.708  54.327  0.00  0.00    +0.000 OA
BRANCH   7  14
ATOM     14  O   UNL     1      28.047  -3.006  52.713  0.00  0.00    +0.000 OA
ATOM     15  H   UNL     1      27.774  -3.148  51.829  0.00  0.00    +0.000 HD
ENDBRANCH   7  14
BRANCH  10  16
ATOM     16  O   UNL     1      29.771   2.062  54.013  0.00  0.00    +0.000 OA
ATOM     17  H   UNL     1      30.051   2.311  54.871  0.00  0.00    +0.000 HD
ENDBRANCH  10  16
ENDBRANCH   1   2
BRANCH   1  18
ATOM     18  C   UNL     1      25.161   2.480  50.739  0.00  0.00    +0.000 C 
BRANCH  18  22
ATOM     19  C   UNL     1      25.048   5.002  49.067  0.00  0.00    +0.000 C 
ATOM     20  C   UNL     1      26.318   4.248  49.361  0.00  0.00    +0.000 C 
ATOM     21  C   UNL     1      27.578   4.749  48.724  0.00  0.00    +0.000 C 
ATOM     22  C   UNL     1      26.356   3.137  50.119  0.00  0.00    +0.000 C 
ENDBRANCH  18  22
ENDBRANCH   1  18
BRANCH   1  23
ATOM     23  O   UNL     1      23.897   3.118  52.868  0.00  0.00    +0.000 OA
BRANCH  23  24
ATOM     24  C   UNL     1      23.274   4.213  52.382  0.00  0.00    +0.000 C 
ATOM     25  O   UNL     1      23.810   5.295  52.181  0.00  0.00    +0.000 OA
BRANCH  24  26
ATOM     26  C   UNL     1      21.829   3.907  52.081  0.00  0.00    +0.000 C 
BRANCH  26  27
ATOM     27  C   UNL     1      21.681   2.918  50.951  0.00  0.00    +0.000 A 
ATOM     28  C   UNL     1      21.771   3.339  49.618  0.00  0.00    +0.000 A 
ATOM     29  C   UNL     1      21.679   2.409  48.579  0.00  0.00    +0.000 A 
ATOM     30  C   UNL     1      21.482   1.059  48.862  0.00  0.00    +0.000 A 
ATOM     31  C   UNL     1      21.363   0.635  50.182  0.00  0.00    +0.000 A 
ATOM     32  C   UNL     1      21.466   1.558  51.220  0.00  0.00    +0.000 A 
ENDBRANCH  26  27
ENDBRANCH  24  26
ENDBRANCH  23  24
ENDBRANCH   1  23
TORSDOF 9
ENDMDL
MODEL 3
REMARK VINA RESULT:    -8.919      0.979      5.596
REMARK INTER + INTRA:         -14.656
REMARK INTER:                 -13.696
REMARK INTRA:                  -0.960
REMARK UNBOUND:                -1.565
REMARK  Name = 
REMARK  11 active torsions:
REMARK  status: ('A' for Active; 'I' for Inactive)
REMARK    1  A    between atoms: C_1  and  C_2
REMARK    2  A    between atoms: C_2  and  C_3
REMARK    3  A    between atoms: C_4  and  C_5
REMARK    4  A    between atoms: C_5  and  C_6
REMARK    5  A    between atoms: C_6  and  O_7
REMARK    6  A    between atoms: C_6  and  C_17
REMARK    7  A    between atoms: O_7  and  C_8
REMARK    8  A    between atoms: C_8  and  C_10
REMARK    9  A    between atoms: C_10  and  C_11
REMARK   10  A    between atoms: C_22  and  O_23
REMARK   11  A    between atoms: C_26  and  O_27
REMARK                            x       y       z     vdW  Elec       q    Type
REMARK                         _______ _______ _______ _____ _____    ______ ____
ROOT
ATOM      1  C   UNL     1      24.462   1.764  52.006  0.00  0.00    +0.000 C 
ENDROOT
BRANCH   1   2
ATOM      2  C   UNL     1      25.308   0.777  52.770  0.00  0.00    +0.000 C 
ATOM      3  C   UNL     1      25.316  -0.541  52.529  0.00  0.00    +0.000 C 
ATOM      4  C   UNL     1      26.474  -1.368  52.899  0.00  0.00    +0.000 C 
ATOM      5  O   UNL     1      26.475  -2.575  52.699  0.00  0.00    +0.000 OA
ATOM      6  C   UNL     1      27.702  -0.662  53.316  0.00  0.00    +0.000 A 
ATOM      7  C   UNL     1      28.937  -1.312  53.241  0.00  0.00    +0.000 A 
ATOM      8  C   UNL     1      30.107  -0.637  53.582  0.00  0.00    +0.000 A 
ATOM      9  C   UNL     1      30.053   0.699  53.972  0.00  0.00    +0.000 A 
ATOM     10  C   UNL     1      28.825   1.362  54.006  0.00  0.00    +0.000 A 
ATOM     11  C   UNL     1      27.643   0.682  53.694  0.00  0.00    +0.000 A 
ATOM     12  C   UNL     1      26.337   1.374  53.656  0.00  0.00    +0.000 C 
ATOM     13  O   UNL     1      26.093   2.395  54.283  0.00  0.00    +0.000 OA
BRANCH   7  14
ATOM     14  O   UNL     1      29.083  -2.595  52.787  0.00  0.00    +0.000 OA
ATOM     15  H   UNL     1      28.659  -2.863  51.996  0.00  0.00    +0.000 HD
ENDBRANCH   7  14
BRANCH  10  16
ATOM     16  O   UNL     1      28.804   2.698  54.289  0.00  0.00    +0.000 OA
ATOM     17  H   UNL     1      29.558   3.110  54.661  0.00  0.00    +0.000 HD
ENDBRANCH  10  16
ENDBRANCH   1   2
BRANCH   1  18
ATOM     18  C   UNL     1      23.223   2.188  52.837  0.00  0.00    +0.000 C 
BRANCH  18  22
ATOM     19  C   UNL     1      21.660  -0.037  54.168  0.00  0.00    +0.000 C 
ATOM     20  C   UNL     1      21.261   0.603  52.864  0.00  0.00    +0.000 C 
ATOM     21  C   UNL     1      20.059   0.048  52.163  0.00  0.00    +0.000 C 
ATOM     22  C   UNL     1      21.957   1.603  52.292  0.00  0.00    +0.000 C 
ENDBRANCH  18  22
ENDBRANCH   1  18
BRANCH   1  23
ATOM     23  O   UNL     1      25.262   2.804  51.421  0.00  0.00    +0.000 OA
BRANCH  23  24
ATOM     24  C   UNL     1      25.211   3.025  50.090  0.00  0.00    +0.000 C 
ATOM     25  O   UNL     1      24.182   3.107  49.431  0.00  0.00    +0.000 OA
BRANCH  24  26
ATOM     26  C   UNL     1      26.599   3.196  49.530  0.00  0.00    +0.000 C 
BRANCH  26  27
ATOM     27  C   UNL     1      26.867   4.618  49.100  0.00  0.00    +0.000 A 
ATOM     28  C   UNL     1      25.906   5.618  49.301  0.00  0.00    +0.000 A 
ATOM     29  C   UNL     1      26.181   6.940  48.943  0.00  0.00    +0.000 A 
ATOM     30  C   UNL     1      27.408   7.271  48.370  0.00  0.00    +0.000 A 
ATOM     31  C   UNL     1      28.358   6.280  48.140  0.00  0.00    +0.000 A 
ATOM     32  C   UNL     1      28.091   4.963  48.508  0.00  0.00    +0.000 A 
ENDBRANCH  26  27
ENDBRANCH  24  26
ENDBRANCH  23  24
ENDBRANCH   1  23
TORSDOF 9
ENDMDL
MODEL 4
REMARK VINA RESULT:    -8.897      2.620      6.187
REMARK INTER + INTRA:         -14.623
REMARK INTER:                 -12.117
REMARK INTRA:                  -2.506
REMARK UNBOUND:                -1.565
REMARK  Name = 
REMARK  11 active torsions:
REMARK  status: ('A' for Active; 'I' for Inactive)
REMARK    1  A    between atoms: C_1  and  C_2
REMARK    2  A    between atoms: C_2  and  C_3
REMARK    3  A    between atoms: C_4  and  C_5
REMARK    4  A    between atoms: C_5  and  C_6
REMARK    5  A    between atoms: C_6  and  O_7
REMARK    6  A    between atoms: C_6  and  C_17
REMARK    7  A    between atoms: O_7  and  C_8
REMARK    8  A    between atoms: C_8  and  C_10
REMARK    9  A    between atoms: C_10  and  C_11
REMARK   10  A    between atoms: C_22  and  O_23
REMARK   11  A    between atoms: C_26  and  O_27
REMARK                            x       y       z     vdW  Elec       q    Type
REMARK                         _______ _______ _______ _____ _____    ______ ____
ROOT
ATOM      1  C   UNL     1      24.498   3.011  51.861  0.00  0.00    +0.000 C 
ENDROOT
BRANCH   1   2
ATOM      2  C   UNL     1      24.290   1.572  52.258  0.00  0.00    +0.000 C 
ATOM      3  C   UNL     1      25.062   0.924  53.142  0.00  0.00    +0.000 C 
ATOM      4  C   UNL     1      24.551  -0.244  53.875  0.00  0.00    +0.000 C 
ATOM      5  O   UNL     1      25.261  -0.850  54.667  0.00  0.00    +0.000 OA
ATOM      6  C   UNL     1      23.104  -0.521  53.780  0.00  0.00    +0.000 A 
ATOM      7  C   UNL     1      22.478  -1.291  54.765  0.00  0.00    +0.000 A 
ATOM      8  C   UNL     1      21.104  -1.513  54.713  0.00  0.00    +0.000 A 
ATOM      9  C   UNL     1      20.343  -0.944  53.694  0.00  0.00    +0.000 A 
ATOM     10  C   UNL     1      20.961  -0.140  52.735  0.00  0.00    +0.000 A 
ATOM     11  C   UNL     1      22.345   0.063  52.764  0.00  0.00    +0.000 A 
ATOM     12  C   UNL     1      23.016   0.963  51.802  0.00  0.00    +0.000 C 
ATOM     13  O   UNL     1      22.565   1.234  50.698  0.00  0.00    +0.000 OA
BRANCH   7  14
ATOM     14  O   UNL     1      23.141  -1.812  55.843  0.00  0.00    +0.000 OA
ATOM     15  H   UNL     1      24.059  -1.984  55.789  0.00  0.00    +0.000 HD
ENDBRANCH   7  14
BRANCH  10  16
ATOM     16  O   UNL     1      20.185   0.494  51.806  0.00  0.00    +0.000 OA
ATOM     17  H   UNL     1      19.858   0.020  51.067  0.00  0.00    +0.000 HD
ENDBRANCH  10  16
ENDBRANCH   1   2
BRANCH   1  18
ATOM     18  C   UNL     1      23.845   3.967  52.894  0.00  0.00    +0.000 C 
BRANCH  18  22
ATOM     19  C   UNL     1      21.059   4.177  51.729  0.00  0.00    +0.000 C 
ATOM     20  C   UNL     1      22.062   5.299  51.708  0.00  0.00    +0.000 C 
ATOM     21  C   UNL     1      21.668   6.562  51.004  0.00  0.00    +0.000 C 
ATOM     22  C   UNL     1      23.292   5.198  52.244  0.00  0.00    +0.000 C 
ENDBRANCH  18  22
ENDBRANCH   1  18
BRANCH   1  23
ATOM     23  O   UNL     1      25.861   3.264  51.486  0.00  0.00    +0.000 OA
BRANCH  23  24
ATOM     24  C   UNL     1      26.174   3.474  50.189  0.00  0.00    +0.000 C 
ATOM     25  O   UNL     1      26.594   2.618  49.420  0.00  0.00    +0.000 OA
BRANCH  24  26
ATOM     26  C   UNL     1      25.896   4.904  49.804  0.00  0.00    +0.000 C 
BRANCH  26  27
ATOM     27  C   UNL     1      24.651   5.033  48.959  0.00  0.00    +0.000 A 
ATOM     28  C   UNL     1      23.782   3.947  48.797  0.00  0.00    +0.000 A 
ATOM     29  C   UNL     1      22.609   4.090  48.053  0.00  0.00    +0.000 A 
ATOM     30  C   UNL     1      22.302   5.311  47.455  0.00  0.00    +0.000 A 
ATOM     31  C   UNL     1      23.173   6.389  47.587  0.00  0.00    +0.000 A 
ATOM     32  C   UNL     1      24.337   6.252  48.339  0.00  0.00    +0.000 A 
ENDBRANCH  26  27
ENDBRANCH  24  26
ENDBRANCH  23  24
ENDBRANCH   1  23
TORSDOF 9
ENDMDL
MODEL 5
REMARK VINA RESULT:    -8.737      2.672      6.859
REMARK INTER + INTRA:         -14.388
REMARK INTER:                 -12.527
REMARK INTRA:                  -1.862
REMARK UNBOUND:                -1.565
REMARK  Name = 
REMARK  11 active torsions:
REMARK  status: ('A' for Active; 'I' for Inactive)
REMARK    1  A    between atoms: C_1  and  C_2
REMARK    2  A    between atoms: C_2  and  C_3
REMARK    3  A    between atoms: C_4  and  C_5
REMARK    4  A    between atoms: C_5  and  C_6
REMARK    5  A    between atoms: C_6  and  O_7
REMARK    6  A    between atoms: C_6  and  C_17
REMARK    7  A    between atoms: O_7  and  C_8
REMARK    8  A    between atoms: C_8  and  C_10
REMARK    9  A    between atoms: C_10  and  C_11
REMARK   10  A    between atoms: C_22  and  O_23
REMARK   11  A    between atoms: C_26  and  O_27
REMARK                            x       y       z     vdW  Elec       q    Type
REMARK                         _______ _______ _______ _____ _____    ______ ____
ROOT
ATOM      1  C   UNL     1      24.280   3.144  51.661  0.00  0.00    +0.000 C 
ENDROOT
BRANCH   1   2
ATOM      2  C   UNL     1      24.148   1.704  52.089  0.00  0.00    +0.000 C 
ATOM      3  C   UNL     1      24.981   1.104  52.950  0.00  0.00    +0.000 C 
ATOM      4  C   UNL     1      24.550  -0.071  53.722  0.00  0.00    +0.000 C 
ATOM      5  O   UNL     1      25.315  -0.634  54.494  0.00  0.00    +0.000 OA
ATOM      6  C   UNL     1      23.113  -0.408  53.692  0.00  0.00    +0.000 A 
ATOM      7  C   UNL     1      22.559  -1.185  54.714  0.00  0.00    +0.000 A 
ATOM      8  C   UNL     1      21.195  -1.463  54.722  0.00  0.00    +0.000 A 
ATOM      9  C   UNL     1      20.370  -0.944  53.726  0.00  0.00    +0.000 A 
ATOM     10  C   UNL     1      20.915  -0.133  52.730  0.00  0.00    +0.000 A 
ATOM     11  C   UNL     1      22.289   0.127  52.698  0.00  0.00    +0.000 A 
ATOM     12  C   UNL     1      22.883   1.037  51.696  0.00  0.00    +0.000 C 
ATOM     13  O   UNL     1      22.377   1.269  50.607  0.00  0.00    +0.000 OA
BRANCH   7  14
ATOM     14  O   UNL     1      23.286  -1.660  55.771  0.00  0.00    +0.000 OA
ATOM     15  H   UNL     1      22.901  -1.700  56.623  0.00  0.00    +0.000 HD
ENDBRANCH   7  14
BRANCH  10  16
ATOM     16  O   UNL     1      20.076   0.453  51.824  0.00  0.00    +0.000 OA
ATOM     17  H   UNL     1      20.345   0.550  50.932  0.00  0.00    +0.000 HD
ENDBRANCH  10  16
ENDBRANCH   1   2
BRANCH   1  18
ATOM     18  C   UNL     1      23.570   4.086  52.668  0.00  0.00    +0.000 C 
BRANCH  18  22
ATOM     19  C   UNL     1      20.824   4.475  51.453  0.00  0.00    +0.000 C 
ATOM     20  C   UNL     1      21.895   5.533  51.459  0.00  0.00    +0.000 C 
ATOM     21  C   UNL     1      21.594   6.822  50.757  0.00  0.00    +0.000 C 
ATOM     22  C   UNL     1      23.107   5.352  52.017  0.00  0.00    +0.000 C 
ENDBRANCH  18  22
ENDBRANCH   1  18
BRANCH   1  23
ATOM     23  O   UNL     1      25.630   3.462  51.288  0.00  0.00    +0.000 OA
BRANCH  23  24
ATOM     24  C   UNL     1      25.984   3.469  49.985  0.00  0.00    +0.000 C 
ATOM     25  O   UNL     1      26.763   2.681  49.464  0.00  0.00    +0.000 OA
BRANCH  24  26
ATOM     26  C   UNL     1      25.255   4.562  49.246  0.00  0.00    +0.000 C 
BRANCH  26  27
ATOM     27  C   UNL     1      26.031   5.857  49.236  0.00  0.00    +0.000 A 
ATOM     28  C   UNL     1      25.626   6.937  50.030  0.00  0.00    +0.000 A 
ATOM     29  C   UNL     1      26.376   8.115  50.051  0.00  0.00    +0.000 A 
ATOM     30  C   UNL     1      27.524   8.229  49.269  0.00  0.00    +0.000 A 
ATOM     31  C   UNL     1      27.919   7.172  48.454  0.00  0.00    +0.000 A 
ATOM     32  C   UNL     1      27.180   5.991  48.442  0.00  0.00    +0.000 A 
ENDBRANCH  26  27
ENDBRANCH  24  26
ENDBRANCH  23  24
ENDBRANCH   1  23
TORSDOF 9
ENDMDL
MODEL 6
REMARK VINA RESULT:    -8.666      3.081      7.298
REMARK INTER + INTRA:         -14.285
REMARK INTER:                 -12.391
REMARK INTRA:                  -1.893
REMARK UNBOUND:                -1.565
REMARK  Name = 
REMARK  11 active torsions:
REMARK  status: ('A' for Active; 'I' for Inactive)
REMARK    1  A    between atoms: C_1  and  C_2
REMARK    2  A    between atoms: C_2  and  C_3
REMARK    3  A    between atoms: C_4  and  C_5
REMARK    4  A    between atoms: C_5  and  C_6
REMARK    5  A    between atoms: C_6  and  O_7
REMARK    6  A    between atoms: C_6  and  C_17
REMARK    7  A    between atoms: O_7  and  C_8
REMARK    8  A    between atoms: C_8  and  C_10
REMARK    9  A    between atoms: C_10  and  C_11
REMARK   10  A    between atoms: C_22  and  O_23
REMARK   11  A    between atoms: C_26  and  O_27
REMARK                            x       y       z     vdW  Elec       q    Type
REMARK                         _______ _______ _______ _____ _____    ______ ____
ROOT
ATOM      1  C   UNL     1      23.699   3.155  51.712  0.00  0.00    +0.000 C 
ENDROOT
BRANCH   1   2
ATOM      2  C   UNL     1      23.237   1.741  51.963  0.00  0.00    +0.000 C 
ATOM      3  C   UNL     1      23.664   0.989  52.986  0.00  0.00    +0.000 C 
ATOM      4  C   UNL     1      22.850  -0.126  53.493  0.00  0.00    +0.000 C 
ATOM      5  O   UNL     1      23.247  -0.829  54.413  0.00  0.00    +0.000 OA
ATOM      6  C   UNL     1      21.463  -0.228  52.999  0.00  0.00    +0.000 A 
ATOM      7  C   UNL     1      20.512  -0.939  53.737  0.00  0.00    +0.000 A 
ATOM      8  C   UNL     1      19.189  -0.997  53.307  0.00  0.00    +0.000 A 
ATOM      9  C   UNL     1      18.800  -0.321  52.152  0.00  0.00    +0.000 A 
ATOM     10  C   UNL     1      19.739   0.425  51.438  0.00  0.00    +0.000 A 
ATOM     11  C   UNL     1      21.077   0.463  51.848  0.00  0.00    +0.000 A 
ATOM     12  C   UNL     1      22.078   1.297  51.150  0.00  0.00    +0.000 C 
ATOM     13  O   UNL     1      21.976   1.643  49.982  0.00  0.00    +0.000 OA
BRANCH   7  14
ATOM     14  O   UNL     1      20.795  -1.558  54.924  0.00  0.00    +0.000 OA
ATOM     15  H   UNL     1      21.090  -1.055  55.657  0.00  0.00    +0.000 HD
ENDBRANCH   7  14
BRANCH  10  16
ATOM     16  O   UNL     1      19.320   1.166  50.369  0.00  0.00    +0.000 OA
ATOM     17  H   UNL     1      19.934   1.434  49.715  0.00  0.00    +0.000 HD
ENDBRANCH  10  16
ENDBRANCH   1   2
BRANCH   1  18
ATOM     18  C   UNL     1      22.823   4.168  52.494  0.00  0.00    +0.000 C 
BRANCH  18  22
ATOM     19  C   UNL     1      20.217   4.539  51.000  0.00  0.00    +0.000 C 
ATOM     20  C   UNL     1      21.340   5.541  50.985  0.00  0.00    +0.000 C 
ATOM     21  C   UNL     1      21.172   6.754  50.121  0.00  0.00    +0.000 C 
ATOM     22  C   UNL     1      22.488   5.370  51.668  0.00  0.00    +0.000 C 
ENDBRANCH  18  22
ENDBRANCH   1  18
BRANCH   1  23
ATOM     23  O   UNL     1      25.125   3.273  51.833  0.00  0.00    +0.000 OA
BRANCH  23  24
ATOM     24  C   UNL     1      25.926   2.788  50.860  0.00  0.00    +0.000 C 
ATOM     25  O   UNL     1      26.847   2.000  51.035  0.00  0.00    +0.000 OA
BRANCH  24  26
ATOM     26  C   UNL     1      25.503   3.320  49.515  0.00  0.00    +0.000 C 
BRANCH  26  27
ATOM     27  C   UNL     1      26.247   4.580  49.143  0.00  0.00    +0.000 A 
ATOM     28  C   UNL     1      27.595   4.529  48.765  0.00  0.00    +0.000 A 
ATOM     29  C   UNL     1      28.262   5.693  48.378  0.00  0.00    +0.000 A 
ATOM     30  C   UNL     1      27.595   6.917  48.378  0.00  0.00    +0.000 A 
ATOM     31  C   UNL     1      26.263   6.983  48.779  0.00  0.00    +0.000 A 
ATOM     32  C   UNL     1      25.593   5.821  49.154  0.00  0.00    +0.000 A 
ENDBRANCH  26  27
ENDBRANCH  24  26
ENDBRANCH  23  24
ENDBRANCH   1  23
TORSDOF 9
ENDMDL
MODEL 7
REMARK VINA RESULT:    -8.576      2.483      6.427
REMARK INTER + INTRA:         -14.152
REMARK INTER:                 -12.098
REMARK INTRA:                  -2.054
REMARK UNBOUND:                -1.565
REMARK  Name = 
REMARK  11 active torsions:
REMARK  status: ('A' for Active; 'I' for Inactive)
REMARK    1  A    between atoms: C_1  and  C_2
REMARK    2  A    between atoms: C_2  and  C_3
REMARK    3  A    between atoms: C_4  and  C_5
REMARK    4  A    between atoms: C_5  and  C_6
REMARK    5  A    between atoms: C_6  and  O_7
REMARK    6  A    between atoms: C_6  and  C_17
REMARK    7  A    between atoms: O_7  and  C_8
REMARK    8  A    between atoms: C_8  and  C_10
REMARK    9  A    between atoms: C_10  and  C_11
REMARK   10  A    between atoms: C_22  and  O_23
REMARK   11  A    between atoms: C_26  and  O_27
REMARK                            x       y       z     vdW  Elec       q    Type
REMARK                         _______ _______ _______ _____ _____    ______ ____
ROOT
ATOM      1  C   UNL     1      23.218   3.193  51.572  0.00  0.00    +0.000 C 
ENDROOT
BRANCH   1   2
ATOM      2  C   UNL     1      22.800   1.765  51.820  0.00  0.00    +0.000 C 
ATOM      3  C   UNL     1      23.295   1.006  52.807  0.00  0.00    +0.000 C 
ATOM      4  C   UNL     1      22.533  -0.136  53.334  0.00  0.00    +0.000 C 
ATOM      5  O   UNL     1      22.992  -0.845  54.220  0.00  0.00    +0.000 OA
ATOM      6  C   UNL     1      21.125  -0.262  52.909  0.00  0.00    +0.000 A 
ATOM      7  C   UNL     1      20.229  -1.007  53.682  0.00  0.00    +0.000 A 
ATOM      8  C   UNL     1      18.888  -1.087  53.317  0.00  0.00    +0.000 A 
ATOM      9  C   UNL     1      18.426  -0.401  52.196  0.00  0.00    +0.000 A 
ATOM     10  C   UNL     1      19.311   0.378  51.449  0.00  0.00    +0.000 A 
ATOM     11  C   UNL     1      20.666   0.440  51.791  0.00  0.00    +0.000 A 
ATOM     12  C   UNL     1      21.612   1.309  51.059  0.00  0.00    +0.000 C 
ATOM     13  O   UNL     1      21.443   1.671  49.904  0.00  0.00    +0.000 OA
BRANCH   7  14
ATOM     14  O   UNL     1      20.586  -1.639  54.841  0.00  0.00    +0.000 OA
ATOM     15  H   UNL     1      20.737  -1.141  55.619  0.00  0.00    +0.000 HD
ENDBRANCH   7  14
BRANCH  10  16
ATOM     16  O   UNL     1      18.821   1.127  50.416  0.00  0.00    +0.000 OA
ATOM     17  H   UNL     1      17.960   0.961  50.085  0.00  0.00    +0.000 HD
ENDBRANCH  10  16
ENDBRANCH   1   2
BRANCH   1  18
ATOM     18  C   UNL     1      22.285   4.179  52.324  0.00  0.00    +0.000 C 
BRANCH  18  22
ATOM     19  C   UNL     1      23.527   6.680  51.157  0.00  0.00    +0.000 C 
ATOM     20  C   UNL     1      22.118   6.233  50.871  0.00  0.00    +0.000 C 
ATOM     21  C   UNL     1      21.273   7.126  50.014  0.00  0.00    +0.000 C 
ATOM     22  C   UNL     1      21.584   5.110  51.384  0.00  0.00    +0.000 C 
ENDBRANCH  18  22
ENDBRANCH   1  18
BRANCH   1  23
ATOM     23  O   UNL     1      24.635   3.363  51.730  0.00  0.00    +0.000 OA
BRANCH  23  24
ATOM     24  C   UNL     1      25.465   3.085  50.701  0.00  0.00    +0.000 C 
ATOM     25  O   UNL     1      25.164   3.158  49.516  0.00  0.00    +0.000 OA
BRANCH  24  26
ATOM     26  C   UNL     1      26.832   2.709  51.213  0.00  0.00    +0.000 C 
BRANCH  26  27
ATOM     27  C   UNL     1      26.778   1.550  52.178  0.00  0.00    +0.000 A 
ATOM     28  C   UNL     1      26.870   1.765  53.559  0.00  0.00    +0.000 A 
ATOM     29  C   UNL     1      26.772   0.692  54.447  0.00  0.00    +0.000 A 
ATOM     30  C   UNL     1      26.598  -0.604  53.964  0.00  0.00    +0.000 A 
ATOM     31  C   UNL     1      26.534  -0.833  52.593  0.00  0.00    +0.000 A 
ATOM     32  C   UNL     1      26.619   0.238  51.706  0.00  0.00    +0.000 A 
ENDBRANCH  26  27
ENDBRANCH  24  26
ENDBRANCH  23  24
ENDBRANCH   1  23
TORSDOF 9
ENDMDL
MODEL 8
REMARK VINA RESULT:    -8.566      2.400      7.314
REMARK INTER + INTRA:         -14.137
REMARK INTER:                 -12.598
REMARK INTRA:                  -1.538
REMARK UNBOUND:                -1.565
REMARK  Name = 
REMARK  11 active torsions:
REMARK  status: ('A' for Active; 'I' for Inactive)
REMARK    1  A    between atoms: C_1  and  C_2
REMARK    2  A    between atoms: C_2  and  C_3
REMARK    3  A    between atoms: C_4  and  C_5
REMARK    4  A    between atoms: C_5  and  C_6
REMARK    5  A    between atoms: C_6  and  O_7
REMARK    6  A    between atoms: C_6  and  C_17
REMARK    7  A    between atoms: O_7  and  C_8
REMARK    8  A    between atoms: C_8  and  C_10
REMARK    9  A    between atoms: C_10  and  C_11
REMARK   10  A    between atoms: C_22  and  O_23
REMARK   11  A    between atoms: C_26  and  O_27
REMARK                            x       y       z     vdW  Elec       q    Type
REMARK                         _______ _______ _______ _____ _____    ______ ____
ROOT
ATOM      1  C   UNL     1      23.601   2.363  52.081  0.00  0.00    +0.000 C 
ENDROOT
BRANCH   1   2
ATOM      2  C   UNL     1      22.686   1.167  52.157  0.00  0.00    +0.000 C 
ATOM      3  C   UNL     1      22.453   0.478  53.283  0.00  0.00    +0.000 C 
ATOM      4  C   UNL     1      21.219  -0.306  53.445  0.00  0.00    +0.000 C 
ATOM      5  O   UNL     1      21.014  -0.954  54.463  0.00  0.00    +0.000 OA
ATOM      6  C   UNL     1      20.158  -0.112  52.437  0.00  0.00    +0.000 A 
ATOM      7  C   UNL     1      18.836  -0.442  52.747  0.00  0.00    +0.000 A 
ATOM      8  C   UNL     1      17.820  -0.213  51.823  0.00  0.00    +0.000 A 
ATOM      9  C   UNL     1      18.114   0.375  50.594  0.00  0.00    +0.000 A 
ATOM     10  C   UNL     1      19.428   0.744  50.300  0.00  0.00    +0.000 A 
ATOM     11  C   UNL     1      20.458   0.490  51.212  0.00  0.00    +0.000 A 
ATOM     12  C   UNL     1      21.845   0.931  50.958  0.00  0.00    +0.000 C 
ATOM     13  O   UNL     1      22.300   1.126  49.839  0.00  0.00    +0.000 OA
BRANCH   7  14
ATOM     14  O   UNL     1      18.454  -0.943  53.962  0.00  0.00    +0.000 OA
ATOM     15  H   UNL     1      18.901  -0.678  54.740  0.00  0.00    +0.000 HD
ENDBRANCH   7  14
BRANCH  10  16
ATOM     16  O   UNL     1      19.681   1.413  49.136  0.00  0.00    +0.000 OA
ATOM     17  H   UNL     1      20.564   1.537  48.850  0.00  0.00    +0.000 HD
ENDBRANCH  10  16
ENDBRANCH   1   2
BRANCH   1  18
ATOM     18  C   UNL     1      22.857   3.654  52.512  0.00  0.00    +0.000 C 
BRANCH  18  22
ATOM     19  C   UNL     1      20.081   4.160  51.417  0.00  0.00    +0.000 C 
ATOM     20  C   UNL     1      21.333   4.764  50.838  0.00  0.00    +0.000 C 
ATOM     21  C   UNL     1      21.186   5.605  49.606  0.00  0.00    +0.000 C 
ATOM     22  C   UNL     1      22.560   4.543  51.345  0.00  0.00    +0.000 C 
ENDBRANCH  18  22
ENDBRANCH   1  18
BRANCH   1  23
ATOM     23  O   UNL     1      24.875   2.092  52.687  0.00  0.00    +0.000 OA
BRANCH  23  24
ATOM     24  C   UNL     1      25.808   1.391  52.007  0.00  0.00    +0.000 C 
ATOM     25  O   UNL     1      26.457   1.819  51.061  0.00  0.00    +0.000 OA
BRANCH  24  26
ATOM     26  C   UNL     1      25.971   0.016  52.601  0.00  0.00    +0.000 C 
BRANCH  26  27
ATOM     27  C   UNL     1      27.395  -0.255  53.025  0.00  0.00    +0.000 A 
ATOM     28  C   UNL     1      27.952  -1.532  52.879  0.00  0.00    +0.000 A 
ATOM     29  C   UNL     1      29.284  -1.762  53.230  0.00  0.00    +0.000 A 
ATOM     30  C   UNL     1      30.064  -0.726  53.742  0.00  0.00    +0.000 A 
ATOM     31  C   UNL     1      29.511   0.539  53.917  0.00  0.00    +0.000 A 
ATOM     32  C   UNL     1      28.186   0.774  53.556  0.00  0.00    +0.000 A 
ENDBRANCH  26  27
ENDBRANCH  24  26
ENDBRANCH  23  24
ENDBRANCH   1  23
TORSDOF 9
ENDMDL
MODEL 9
REMARK VINA RESULT:    -8.497      2.012      5.937
REMARK INTER + INTRA:         -14.036
REMARK INTER:                 -12.448
REMARK INTRA:                  -1.588
REMARK UNBOUND:                -1.565
REMARK  Name = 
REMARK  11 active torsions:
REMARK  status: ('A' for Active; 'I' for Inactive)
REMARK    1  A    between atoms: C_1  and  C_2
REMARK    2  A    between atoms: C_2  and  C_3
REMARK    3  A    between atoms: C_4  and  C_5
REMARK    4  A    between atoms: C_5  and  C_6
REMARK    5  A    between atoms: C_6  and  O_7
REMARK    6  A    between atoms: C_6  and  C_17
REMARK    7  A    between atoms: O_7  and  C_8
REMARK    8  A    between atoms: C_8  and  C_10
REMARK    9  A    between atoms: C_10  and  C_11
REMARK   10  A    between atoms: C_22  and  O_23
REMARK   11  A    between atoms: C_26  and  O_27
REMARK                            x       y       z     vdW  Elec       q    Type
REMARK                         _______ _______ _______ _____ _____    ______ ____
ROOT
ATOM      1  C   UNL     1      25.934   1.647  52.674  0.00  0.00    +0.000 C 
ENDROOT
BRANCH   1   2
ATOM      2  C   UNL     1      25.152   2.688  51.913  0.00  0.00    +0.000 C 
ATOM      3  C   UNL     1      24.136   3.386  52.438  0.00  0.00    +0.000 C 
ATOM      4  C   UNL     1      23.757   4.695  51.887  0.00  0.00    +0.000 C 
ATOM      5  O   UNL     1      22.815   5.326  52.350  0.00  0.00    +0.000 OA
ATOM      6  C   UNL     1      24.678   5.308  50.909  0.00  0.00    +0.000 A 
ATOM      7  C   UNL     1      24.643   6.689  50.693  0.00  0.00    +0.000 A 
ATOM      8  C   UNL     1      25.544   7.283  49.812  0.00  0.00    +0.000 A 
ATOM      9  C   UNL     1      26.502   6.507  49.164  0.00  0.00    +0.000 A 
ATOM     10  C   UNL     1      26.565   5.135  49.412  0.00  0.00    +0.000 A 
ATOM     11  C   UNL     1      25.645   4.526  50.273  0.00  0.00    +0.000 A 
ATOM     12  C   UNL     1      25.730   3.089  50.607  0.00  0.00    +0.000 C 
ATOM     13  O   UNL     1      26.260   2.256  49.886  0.00  0.00    +0.000 OA
BRANCH   7  14
ATOM     14  O   UNL     1      23.790   7.530  51.353  0.00  0.00    +0.000 OA
ATOM     15  H   UNL     1      23.999   8.439  51.437  0.00  0.00    +0.000 HD
ENDBRANCH   7  14
BRANCH  10  16
ATOM     16  O   UNL     1      27.576   4.408  48.850  0.00  0.00    +0.000 OA
ATOM     17  H   UNL     1      27.807   4.543  47.953  0.00  0.00    +0.000 HD
ENDBRANCH  10  16
ENDBRANCH   1   2
BRANCH   1  18
ATOM     18  C   UNL     1      27.301   2.214  53.138  0.00  0.00    +0.000 C 
BRANCH  18  22
ATOM     19  C   UNL     1      28.170   0.137  55.162  0.00  0.00    +0.000 C 
ATOM     20  C   UNL     1      28.821   0.319  53.817  0.00  0.00    +0.000 C 
ATOM     21  C   UNL     1      30.011  -0.538  53.505  0.00  0.00    +0.000 C 
ATOM     22  C   UNL     1      28.414   1.236  52.920  0.00  0.00    +0.000 C 
ENDBRANCH  18  22
ENDBRANCH   1  18
BRANCH   1  23
ATOM     23  O   UNL     1      25.118   0.985  53.653  0.00  0.00    +0.000 OA
BRANCH  23  24
ATOM     24  C   UNL     1      24.894  -0.343  53.557  0.00  0.00    +0.000 C 
ATOM     25  O   UNL     1      25.577  -1.125  52.908  0.00  0.00    +0.000 OA
BRANCH  24  26
ATOM     26  C   UNL     1      23.706  -0.740  54.394  0.00  0.00    +0.000 C 
BRANCH  26  27
ATOM     27  C   UNL     1      22.399  -0.488  53.682  0.00  0.00    +0.000 A 
ATOM     28  C   UNL     1      21.181  -0.822  54.287  0.00  0.00    +0.000 A 
ATOM     29  C   UNL     1      19.975  -0.543  53.641  0.00  0.00    +0.000 A 
ATOM     30  C   UNL     1      19.975   0.057  52.384  0.00  0.00    +0.000 A 
ATOM     31  C   UNL     1      21.181   0.367  51.761  0.00  0.00    +0.000 A 
ATOM     32  C   UNL     1      22.385   0.101  52.409  0.00  0.00    +0.000 A 
ENDBRANCH  26  27
ENDBRANCH  24  26
ENDBRANCH  23  24
ENDBRANCH   1  23
TORSDOF 9
ENDMDL
