MODEL 1
REMARK VINA RESULT:    -8.932      0.000      0.000
REMARK INTER + INTRA:         -12.341
REMARK INTER:                 -11.543
REMARK INTRA:                  -0.799
REMARK UNBOUND:                -0.799
REMARK  Name = 
REMARK  5 active torsions:
REMARK  status: ('A' for Active; 'I' for Inactive)
REMARK    1  A    between atoms: C_1  and  C_20
REMARK    2  A    between atoms: N_5  and  C_6
REMARK    3  A    between atoms: C_6  and  C_7
REMARK    4  A    between atoms: C_10  and  C_11
REMARK    5  A    between atoms: C_23  and  C_24
REMARK                            x       y       z     vdW  Elec       q    Type
REMARK                         _______ _______ _______ _____ _____    ______ ____
ROOT
ATOM      1  C   UNL     1      23.737   6.585  49.643  0.00  0.00    +0.000 C 
ATOM      2  C   UNL     1      23.517   5.419  50.280  0.00  0.00    +0.000 C 
ATOM      3  C   UNL     1      24.594   4.506  50.816  0.00  0.00    +0.000 C 
ATOM      4  C   UNL     1      24.309   3.040  50.453  0.00  0.00    +0.000 C 
ATOM      5  N   UNL     1      22.984   2.542  50.869  0.00  0.00    +0.000 N 
ATOM      6  C   UNL     1      21.928   3.409  50.321  0.00  0.00    +0.000 C 
ATOM      7  C   UNL     1      22.107   4.923  50.541  0.00  0.00    +0.000 C 
ATOM      8  H   UNL     1      22.869   1.609  50.472  0.00  0.00    +0.000 HD
ENDROOT
BRANCH   1   9
ATOM      9  C   UNL     1      25.052   7.203  49.443  0.00  0.00    +0.000 A 
ATOM     10  C   UNL     1      25.515   8.210  50.298  0.00  0.00    +0.000 A 
ATOM     11  C   UNL     1      26.789   8.760  50.117  0.00  0.00    +0.000 A 
ATOM     12  C   UNL     1      27.605   8.301  49.075  0.00  0.00    +0.000 A 
ATOM     13  C   UNL     1      27.140   7.300  48.218  0.00  0.00    +0.000 A 
ATOM     14  C   UNL     1      25.865   6.760  48.397  0.00  0.00    +0.000 A 
BRANCH  12  15
ATOM     15  C   UNL     1      28.969   8.842  48.877  0.00  0.00    +0.000 C 
ATOM     16  N   UNL     1      29.536   8.842  47.693  0.00  0.00    +0.000 N 
ATOM     17  C   UNL     1      30.873   9.454  47.921  0.00  0.00    +0.000 C 
ATOM     18  C   UNL     1      30.784  10.149  49.279  0.00  0.00    +0.000 C 
ATOM     19  N   UNL     1      29.701   9.412  49.896  0.00  0.00    +0.000 N 
ATOM     20  H   UNL     1      29.160   8.511  46.845  0.00  0.00    +0.000 HD
ATOM     21  H   UNL     1      29.521   9.334  50.861  0.00  0.00    +0.000 HD
ENDBRANCH  12  15
ENDBRANCH   1   9
BRANCH   5  22
ATOM     22  C   UNL     1      22.858   2.329  52.323  0.00  0.00    +0.000 C 
BRANCH  22  23
ATOM     23  C   UNL     1      24.053   1.576  52.888  0.00  0.00    +0.000 A 
ATOM     24  C   UNL     1      25.116   2.266  53.491  0.00  0.00    +0.000 A 
ATOM     25  C   UNL     1      26.302   1.598  53.808  0.00  0.00    +0.000 A 
ATOM     26  C   UNL     1      26.434   0.236  53.521  0.00  0.00    +0.000 A 
ATOM     27  C   UNL     1      25.342  -0.482  53.026  0.00  0.00    +0.000 A 
ATOM     28  C   UNL     1      24.154   0.185  52.721  0.00  0.00    +0.000 A 
BRANCH  26  29
ATOM     29  C   UNL     1      27.763  -0.413  53.636  0.00  0.00    +0.000 C 
ATOM     30  N   UNL     1      28.835   0.257  53.972  0.00  0.00    +0.000 N 
ATOM     31  C   UNL     1      29.953  -0.716  53.846  0.00  0.00    +0.000 C 
ATOM     32  C   UNL     1      29.359  -2.026  53.324  0.00  0.00    +0.000 C 
ATOM     33  N   UNL     1      27.944  -1.741  53.320  0.00  0.00    +0.000 N 
ATOM     34  H   UNL     1      28.890   1.200  54.248  0.00  0.00    +0.000 HD
ATOM     35  H   UNL     1      27.227  -2.387  53.123  0.00  0.00    +0.000 HD
ENDBRANCH  26  29
ENDBRANCH  22  23
ENDBRANCH   5  22
TORSDOF 5
ENDMDL
MODEL 2
REMARK VINA RESULT:    -8.762      1.234      8.457
REMARK INTER + INTRA:         -12.122
REMARK INTER:                 -11.767
REMARK INTRA:                  -0.355
REMARK UNBOUND:                -0.799
REMARK  Name = 
REMARK  5 active torsions:
REMARK  status: ('A' for Active; 'I' for Inactive)
REMARK    1  A    between atoms: C_1  and  C_20
REMARK    2  A    between atoms: N_5  and  C_6
REMARK    3  A    between atoms: C_6  and  C_7
REMARK    4  A    between atoms: C_10  and  C_11
REMARK    5  A    between atoms: C_23  and  C_24
REMARK                            x       y       z     vdW  Elec       q    Type
REMARK                         _______ _______ _______ _____ _____    ______ ____
ROOT
ATOM      1  C   UNL     1      22.947   2.306  51.874  0.00  0.00    +0.000 C 
ATOM      2  C   UNL     1      22.945   3.546  51.345  0.00  0.00    +0.000 C 
ATOM      3  C   UNL     1      24.172   4.400  51.133  0.00  0.00    +0.000 C 
ATOM      4  C   UNL     1      23.930   5.844  51.601  0.00  0.00    +0.000 C 
ATOM      5  N   UNL     1      22.754   6.504  51.000  0.00  0.00    +0.000 N 
ATOM      6  C   UNL     1      21.549   5.692  51.234  0.00  0.00    +0.000 C 
ATOM      7  C   UNL     1      21.657   4.196  50.879  0.00  0.00    +0.000 C 
ATOM      8  H   UNL     1      22.632   7.400  51.472  0.00  0.00    +0.000 HD
ENDROOT
BRANCH   1   9
ATOM      9  C   UNL     1      24.146   1.550  52.249  0.00  0.00    +0.000 A 
ATOM     10  C   UNL     1      24.151   0.716  53.374  0.00  0.00    +0.000 A 
ATOM     11  C   UNL     1      25.291  -0.030  53.694  0.00  0.00    +0.000 A 
ATOM     12  C   UNL     1      26.432   0.058  52.886  0.00  0.00    +0.000 A 
ATOM     13  C   UNL     1      26.428   0.894  51.767  0.00  0.00    +0.000 A 
ATOM     14  C   UNL     1      25.292   1.644  51.455  0.00  0.00    +0.000 A 
BRANCH  12  15
ATOM     15  C   UNL     1      27.643  -0.742  53.182  0.00  0.00    +0.000 C 
ATOM     16  N   UNL     1      27.739  -1.996  52.807  0.00  0.00    +0.000 N 
ATOM     17  C   UNL     1      29.078  -2.427  53.291  0.00  0.00    +0.000 C 
ATOM     18  C   UNL     1      29.840  -1.140  53.602  0.00  0.00    +0.000 C 
ATOM     19  N   UNL     1      28.746  -0.217  53.819  0.00  0.00    +0.000 N 
ATOM     20  H   UNL     1      27.073  -2.530  52.315  0.00  0.00    +0.000 HD
ATOM     21  H   UNL     1      28.783   0.627  54.326  0.00  0.00    +0.000 HD
ENDBRANCH  12  15
ENDBRANCH   1   9
BRANCH   5  22
ATOM     22  C   UNL     1      22.938   6.870  49.583  0.00  0.00    +0.000 C 
BRANCH  22  23
ATOM     23  C   UNL     1      24.314   7.465  49.328  0.00  0.00    +0.000 A 
ATOM     24  C   UNL     1      25.241   6.804  48.509  0.00  0.00    +0.000 A 
ATOM     25  C   UNL     1      26.570   7.237  48.453  0.00  0.00    +0.000 A 
ATOM     26  C   UNL     1      26.979   8.332  49.220  0.00  0.00    +0.000 A 
ATOM     27  C   UNL     1      26.039   9.064  49.949  0.00  0.00    +0.000 A 
ATOM     28  C   UNL     1      24.710   8.637  49.993  0.00  0.00    +0.000 A 
BRANCH  26  29
ATOM     29  C   UNL     1      28.425   8.641  49.345  0.00  0.00    +0.000 C 
ATOM     30  N   UNL     1      28.856   9.847  49.613  0.00  0.00    +0.000 N 
ATOM     31  C   UNL     1      30.338   9.755  49.525  0.00  0.00    +0.000 C 
ATOM     32  C   UNL     1      30.681   8.324  49.101  0.00  0.00    +0.000 C 
ATOM     33  N   UNL     1      29.386   7.684  49.112  0.00  0.00    +0.000 N 
ATOM     34  H   UNL     1      28.317  10.642  49.827  0.00  0.00    +0.000 HD
ATOM     35  H   UNL     1      29.219   6.723  48.974  0.00  0.00    +0.000 HD
ENDBRANCH  26  29
ENDBRANCH  22  23
ENDBRANCH   5  22
TORSDOF 5
ENDMDL
MODEL 3
REMARK VINA RESULT:    -8.616      5.858     10.597
REMARK INTER + INTRA:         -11.933
REMARK INTER:                 -11.154
REMARK INTRA:                  -0.779
REMARK UNBOUND:                -0.799
REMARK  Name = 
REMARK  5 active torsions:
REMARK  status: ('A' for Active; 'I' for Inactive)
REMARK    1  A    between atoms: C_1  and  C_20
REMARK    2  A    between atoms: N_5  and  C_6
REMARK    3  A    between atoms: C_6  and  C_7
REMARK    4  A    between atoms: C_10  and  C_11
REMARK    5  A    between atoms: C_23  and  C_24
REMARK                            x       y       z     vdW  Elec       q    Type
REMARK                         _______ _______ _______ _____ _____    ______ ____
ROOT
ATOM      1  C   UNL     1      22.255   1.539  53.093  0.00  0.00    +0.000 C 
ATOM      2  C   UNL     1      21.198   1.288  52.297  0.00  0.00    +0.000 C 
ATOM      3  C   UNL     1      21.190   0.309  51.148  0.00  0.00    +0.000 C 
ATOM      4  C   UNL     1      20.523   0.918  49.905  0.00  0.00    +0.000 C 
ATOM      5  N   UNL     1      19.159   1.440  50.123  0.00  0.00    +0.000 N 
ATOM      6  C   UNL     1      19.167   2.420  51.220  0.00  0.00    +0.000 C 
ATOM      7  C   UNL     1      19.868   1.981  52.521  0.00  0.00    +0.000 C 
ATOM      8  H   UNL     1      18.875   1.918  49.268  0.00  0.00    +0.000 HD
ENDROOT
BRANCH   1   9
ATOM      9  C   UNL     1      23.544   0.842  53.030  0.00  0.00    +0.000 A 
ATOM     10  C   UNL     1      24.566   1.288  52.184  0.00  0.00    +0.000 A 
ATOM     11  C   UNL     1      25.804   0.635  52.167  0.00  0.00    +0.000 A 
ATOM     12  C   UNL     1      26.021  -0.470  53.000  0.00  0.00    +0.000 A 
ATOM     13  C   UNL     1      24.999  -0.918  53.840  0.00  0.00    +0.000 A 
ATOM     14  C   UNL     1      23.763  -0.270  53.848  0.00  0.00    +0.000 A 
BRANCH  12  15
ATOM     15  C   UNL     1      27.330  -1.163  53.026  0.00  0.00    +0.000 C 
ATOM     16  N   UNL     1      28.435  -0.519  53.317  0.00  0.00    +0.000 N 
ATOM     17  C   UNL     1      29.502  -1.553  53.230  0.00  0.00    +0.000 C 
ATOM     18  C   UNL     1      28.778  -2.899  53.263  0.00  0.00    +0.000 C 
ATOM     19  N   UNL     1      27.462  -2.515  52.794  0.00  0.00    +0.000 N 
ATOM     20  H   UNL     1      28.536   0.434  53.542  0.00  0.00    +0.000 HD
ATOM     21  H   UNL     1      26.790  -3.108  52.387  0.00  0.00    +0.000 HD
ENDBRANCH  12  15
ENDBRANCH   1   9
BRANCH   5  22
ATOM     22  C   UNL     1      18.141   0.386  50.297  0.00  0.00    +0.000 C 
BRANCH  22  23
ATOM     23  C   UNL     1      16.816   0.956  50.777  0.00  0.00    +0.000 A 
ATOM     24  C   UNL     1      16.237   2.063  50.139  0.00  0.00    +0.000 A 
ATOM     25  C   UNL     1      15.141   2.716  50.711  0.00  0.00    +0.000 A 
ATOM     26  C   UNL     1      14.621   2.268  51.929  0.00  0.00    +0.000 A 
ATOM     27  C   UNL     1      15.119   1.101  52.514  0.00  0.00    +0.000 A 
ATOM     28  C   UNL     1      16.204   0.443  51.933  0.00  0.00    +0.000 A 
BRANCH  26  29
ATOM     29  C   UNL     1      13.623   3.097  52.650  0.00  0.00    +0.000 C 
ATOM     30  N   UNL     1      13.169   4.221  52.157  0.00  0.00    +0.000 N 
ATOM     31  C   UNL     1      12.307   4.790  53.227  0.00  0.00    +0.000 C 
ATOM     32  C   UNL     1      12.392   3.847  54.429  0.00  0.00    +0.000 C 
ATOM     33  N   UNL     1      13.182   2.757  53.908  0.00  0.00    +0.000 N 
ATOM     34  H   UNL     1      13.358   4.606  51.271  0.00  0.00    +0.000 HD
ATOM     35  H   UNL     1      13.374   1.912  54.376  0.00  0.00    +0.000 HD
ENDBRANCH  26  29
ENDBRANCH  22  23
ENDBRANCH   5  22
TORSDOF 5
ENDMDL
MODEL 4
REMARK VINA RESULT:    -8.575      5.013      7.208
REMARK INTER + INTRA:         -11.880
REMARK INTER:                 -10.996
REMARK INTRA:                  -0.884
REMARK UNBOUND:                -0.799
REMARK  Name = 
REMARK  5 active torsions:
REMARK  status: ('A' for Active; 'I' for Inactive)
REMARK    1  A    between atoms: C_1  and  C_20
REMARK    2  A    between atoms: N_5  and  C_6
REMARK    3  A    between atoms: C_6  and  C_7
REMARK    4  A    between atoms: C_10  and  C_11
REMARK    5  A    between atoms: C_23  and  C_24
REMARK                            x       y       z     vdW  Elec       q    Type
REMARK                         _______ _______ _______ _____ _____    ______ ____
ROOT
ATOM      1  C   UNL     1      23.279   2.813  49.090  0.00  0.00    +0.000 C 
ATOM      2  C   UNL     1      22.611   2.277  50.129  0.00  0.00    +0.000 C 
ATOM      3  C   UNL     1      22.752   2.712  51.568  0.00  0.00    +0.000 C 
ATOM      4  C   UNL     1      22.873   1.499  52.504  0.00  0.00    +0.000 C 
ATOM      5  N   UNL     1      21.782   0.512  52.388  0.00  0.00    +0.000 N 
ATOM      6  C   UNL     1      21.661   0.059  50.993  0.00  0.00    +0.000 C 
ATOM      7  C   UNL     1      21.601   1.165  49.921  0.00  0.00    +0.000 C 
ATOM      8  H   UNL     1      22.034  -0.291  52.964  0.00  0.00    +0.000 HD
ENDROOT
BRANCH   1   9
ATOM      9  C   UNL     1      24.188   3.961  49.171  0.00  0.00    +0.000 A 
ATOM     10  C   UNL     1      25.537   3.793  49.505  0.00  0.00    +0.000 A 
ATOM     11  C   UNL     1      26.399   4.894  49.538  0.00  0.00    +0.000 A 
ATOM     12  C   UNL     1      25.910   6.172  49.236  0.00  0.00    +0.000 A 
ATOM     13  C   UNL     1      24.563   6.340  48.908  0.00  0.00    +0.000 A 
ATOM     14  C   UNL     1      23.704   5.240  48.885  0.00  0.00    +0.000 A 
BRANCH  12  15
ATOM     15  C   UNL     1      26.805   7.352  49.234  0.00  0.00    +0.000 C 
ATOM     16  N   UNL     1      26.878   8.153  50.271  0.00  0.00    +0.000 N 
ATOM     17  C   UNL     1      27.864   9.192  49.870  0.00  0.00    +0.000 C 
ATOM     18  C   UNL     1      28.605   8.616  48.664  0.00  0.00    +0.000 C 
ATOM     19  N   UNL     1      27.637   7.655  48.178  0.00  0.00    +0.000 N 
ATOM     20  H   UNL     1      26.389   8.081  51.123  0.00  0.00    +0.000 HD
ATOM     21  H   UNL     1      27.583   7.288  47.266  0.00  0.00    +0.000 HD
ENDBRANCH  12  15
ENDBRANCH   1   9
BRANCH   5  22
ATOM     22  C   UNL     1      20.501   0.972  52.959  0.00  0.00    +0.000 C 
BRANCH  22  23
ATOM     23  C   UNL     1      19.398  -0.057  52.771  0.00  0.00    +0.000 A 
ATOM     24  C   UNL     1      18.392   0.135  51.812  0.00  0.00    +0.000 A 
ATOM     25  C   UNL     1      17.267  -0.695  51.792  0.00  0.00    +0.000 A 
ATOM     26  C   UNL     1      17.140  -1.720  52.734  0.00  0.00    +0.000 A 
ATOM     27  C   UNL     1      18.187  -1.989  53.619  0.00  0.00    +0.000 A 
ATOM     28  C   UNL     1      19.315  -1.167  53.629  0.00  0.00    +0.000 A 
BRANCH  26  29
ATOM     29  C   UNL     1      15.849  -2.440  52.865  0.00  0.00    +0.000 C 
ATOM     30  N   UNL     1      15.792  -3.716  53.150  0.00  0.00    +0.000 N 
ATOM     31  C   UNL     1      14.350  -4.067  53.061  0.00  0.00    +0.000 C 
ATOM     32  C   UNL     1      13.601  -2.808  52.617  0.00  0.00    +0.000 C 
ATOM     33  N   UNL     1      14.649  -1.813  52.617  0.00  0.00    +0.000 N 
ATOM     34  H   UNL     1      16.541  -4.313  53.375  0.00  0.00    +0.000 HD
ATOM     35  H   UNL     1      14.525  -0.849  52.465  0.00  0.00    +0.000 HD
ENDBRANCH  26  29
ENDBRANCH  22  23
ENDBRANCH   5  22
TORSDOF 5
ENDMDL
MODEL 5
REMARK VINA RESULT:    -8.396      1.743      8.524
REMARK INTER + INTRA:         -11.648
REMARK INTER:                 -11.413
REMARK INTRA:                  -0.235
REMARK UNBOUND:                -0.799
REMARK  Name = 
REMARK  5 active torsions:
REMARK  status: ('A' for Active; 'I' for Inactive)
REMARK    1  A    between atoms: C_1  and  C_20
REMARK    2  A    between atoms: N_5  and  C_6
REMARK    3  A    between atoms: C_6  and  C_7
REMARK    4  A    between atoms: C_10  and  C_11
REMARK    5  A    between atoms: C_23  and  C_24
REMARK                            x       y       z     vdW  Elec       q    Type
REMARK                         _______ _______ _______ _____ _____    ______ ____
ROOT
ATOM      1  C   UNL     1      22.584   1.005  52.440  0.00  0.00    +0.000 C 
ATOM      2  C   UNL     1      22.206   2.195  51.934  0.00  0.00    +0.000 C 
ATOM      3  C   UNL     1      23.145   3.322  51.576  0.00  0.00    +0.000 C 
ATOM      4  C   UNL     1      22.615   4.669  52.092  0.00  0.00    +0.000 C 
ATOM      5  N   UNL     1      21.245   5.007  51.658  0.00  0.00    +0.000 N 
ATOM      6  C   UNL     1      20.320   3.925  52.034  0.00  0.00    +0.000 C 
ATOM      7  C   UNL     1      20.748   2.497  51.647  0.00  0.00    +0.000 C 
ATOM      8  H   UNL     1      20.967   5.853  52.155  0.00  0.00    +0.000 HD
ENDROOT
BRANCH   1   9
ATOM      9  C   UNL     1      23.971   0.576  52.646  0.00  0.00    +0.000 A 
ATOM     10  C   UNL     1      25.012   1.100  51.869  0.00  0.00    +0.000 A 
ATOM     11  C   UNL     1      26.335   0.710  52.107  0.00  0.00    +0.000 A 
ATOM     12  C   UNL     1      26.619  -0.208  53.125  0.00  0.00    +0.000 A 
ATOM     13  C   UNL     1      25.580  -0.735  53.896  0.00  0.00    +0.000 A 
ATOM     14  C   UNL     1      24.260  -0.350  53.651  0.00  0.00    +0.000 A 
BRANCH  12  15
ATOM     15  C   UNL     1      28.012  -0.617  53.420  0.00  0.00    +0.000 C 
ATOM     16  N   UNL     1      28.403  -1.860  53.268  0.00  0.00    +0.000 N 
ATOM     17  C   UNL     1      29.837  -1.850  53.665  0.00  0.00    +0.000 C 
ATOM     18  C   UNL     1      30.261  -0.382  53.651  0.00  0.00    +0.000 C 
ATOM     19  N   UNL     1      28.982   0.276  53.822  0.00  0.00    +0.000 N 
ATOM     20  H   UNL     1      27.867  -2.627  52.960  0.00  0.00    +0.000 HD
ATOM     21  H   UNL     1      28.833   1.188  54.161  0.00  0.00    +0.000 HD
ENDBRANCH  12  15
ENDBRANCH   1   9
BRANCH   5  22
ATOM     22  C   UNL     1      21.148   5.381  50.234  0.00  0.00    +0.000 C 
BRANCH  22  23
ATOM     23  C   UNL     1      22.291   6.290  49.811  0.00  0.00    +0.000 A 
ATOM     24  C   UNL     1      23.246   5.856  48.879  0.00  0.00    +0.000 A 
ATOM     25  C   UNL     1      24.408   6.601  48.658  0.00  0.00    +0.000 A 
ATOM     26  C   UNL     1      24.624   7.784  49.372  0.00  0.00    +0.000 A 
ATOM     27  C   UNL     1      23.628   8.280  50.217  0.00  0.00    +0.000 A 
ATOM     28  C   UNL     1      22.463   7.541  50.426  0.00  0.00    +0.000 A 
BRANCH  26  29
ATOM     29  C   UNL     1      25.952   8.443  49.316  0.00  0.00    +0.000 C 
ATOM     30  N   UNL     1      26.840   8.295  50.265  0.00  0.00    +0.000 N 
ATOM     31  C   UNL     1      27.957   9.205  49.893  0.00  0.00    +0.000 C 
ATOM     32  C   UNL     1      27.537   9.942  48.619  0.00  0.00    +0.000 C 
ATOM     33  N   UNL     1      26.284   9.303  48.294  0.00  0.00    +0.000 N 
ATOM     34  H   UNL     1      26.782   7.709  51.053  0.00  0.00    +0.000 HD
ATOM     35  H   UNL     1      25.755   9.457  47.478  0.00  0.00    +0.000 HD
ENDBRANCH  26  29
ENDBRANCH  22  23
ENDBRANCH   5  22
TORSDOF 5
ENDMDL
MODEL 6
REMARK VINA RESULT:    -8.377      5.138     11.186
REMARK INTER + INTRA:         -11.625
REMARK INTER:                 -11.540
REMARK INTRA:                  -0.084
REMARK UNBOUND:                -0.799
REMARK  Name = 
REMARK  5 active torsions:
REMARK  status: ('A' for Active; 'I' for Inactive)
REMARK    1  A    between atoms: C_1  and  C_20
REMARK    2  A    between atoms: N_5  and  C_6
REMARK    3  A    between atoms: C_6  and  C_7
REMARK    4  A    between atoms: C_10  and  C_11
REMARK    5  A    between atoms: C_23  and  C_24
REMARK                            x       y       z     vdW  Elec       q    Type
REMARK                         _______ _______ _______ _____ _____    ______ ____
ROOT
ATOM      1  C   UNL     1      20.675  -0.186  53.364  0.00  0.00    +0.000 C 
ATOM      2  C   UNL     1      21.417   0.652  52.614  0.00  0.00    +0.000 C 
ATOM      3  C   UNL     1      20.993   1.230  51.284  0.00  0.00    +0.000 C 
ATOM      4  C   UNL     1      22.130   1.142  50.254  0.00  0.00    +0.000 C 
ATOM      5  N   UNL     1      23.404   1.754  50.679  0.00  0.00    +0.000 N 
ATOM      6  C   UNL     1      23.839   1.170  51.958  0.00  0.00    +0.000 C 
ATOM      7  C   UNL     1      22.782   1.120  53.078  0.00  0.00    +0.000 C 
ATOM      8  H   UNL     1      24.103   1.529  49.971  0.00  0.00    +0.000 HD
ENDROOT
BRANCH   1   9
ATOM      9  C   UNL     1      19.304  -0.605  53.058  0.00  0.00    +0.000 A 
ATOM     10  C   UNL     1      18.511   0.118  52.159  0.00  0.00    +0.000 A 
ATOM     11  C   UNL     1      17.219  -0.320  51.847  0.00  0.00    +0.000 A 
ATOM     12  C   UNL     1      16.716  -1.486  52.437  0.00  0.00    +0.000 A 
ATOM     13  C   UNL     1      17.506  -2.205  53.338  0.00  0.00    +0.000 A 
ATOM     14  C   UNL     1      18.791  -1.760  53.654  0.00  0.00    +0.000 A 
BRANCH  12  15
ATOM     15  C   UNL     1      15.364  -1.991  52.104  0.00  0.00    +0.000 C 
ATOM     16  N   UNL     1      14.756  -1.629  50.999  0.00  0.00    +0.000 N 
ATOM     17  C   UNL     1      13.449  -2.338  51.045  0.00  0.00    +0.000 C 
ATOM     18  C   UNL     1      13.608  -3.433  52.099  0.00  0.00    +0.000 C 
ATOM     19  N   UNL     1      14.689  -2.893  52.897  0.00  0.00    +0.000 N 
ATOM     20  H   UNL     1      15.091  -1.025  50.297  0.00  0.00    +0.000 HD
ATOM     21  H   UNL     1      14.900  -3.125  53.831  0.00  0.00    +0.000 HD
ENDBRANCH  12  15
ENDBRANCH   1   9
BRANCH   5  22
ATOM     22  C   UNL     1      23.378   3.229  50.697  0.00  0.00    +0.000 C 
BRANCH  22  23
ATOM     23  C   UNL     1      24.535   3.824  49.911  0.00  0.00    +0.000 A 
ATOM     24  C   UNL     1      25.776   3.172  49.857  0.00  0.00    +0.000 A 
ATOM     25  C   UNL     1      26.893   3.821  49.322  0.00  0.00    +0.000 A 
ATOM     26  C   UNL     1      26.776   5.130  48.843  0.00  0.00    +0.000 A 
ATOM     27  C   UNL     1      25.523   5.744  48.790  0.00  0.00    +0.000 A 
ATOM     28  C   UNL     1      24.406   5.088  49.312  0.00  0.00    +0.000 A 
BRANCH  26  29
ATOM     29  C   UNL     1      27.999   5.898  48.501  0.00  0.00    +0.000 C 
ATOM     30  N   UNL     1      27.949   7.013  47.819  0.00  0.00    +0.000 N 
ATOM     31  C   UNL     1      29.370   7.386  47.585  0.00  0.00    +0.000 C 
ATOM     32  C   UNL     1      30.236   6.275  48.184  0.00  0.00    +0.000 C 
ATOM     33  N   UNL     1      29.253   5.432  48.823  0.00  0.00    +0.000 N 
ATOM     34  H   UNL     1      27.145   7.499  47.525  0.00  0.00    +0.000 HD
ATOM     35  H   UNL     1      29.448   4.653  49.394  0.00  0.00    +0.000 HD
ENDBRANCH  26  29
ENDBRANCH  22  23
ENDBRANCH   5  22
TORSDOF 5
ENDMDL
MODEL 7
REMARK VINA RESULT:    -8.226      5.191      8.060
REMARK INTER + INTRA:         -11.429
REMARK INTER:                 -10.858
REMARK INTRA:                  -0.571
REMARK UNBOUND:                -0.799
REMARK  Name = 
REMARK  5 active torsions:
REMARK  status: ('A' for Active; 'I' for Inactive)
REMARK    1  A    between atoms: C_1  and  C_20
REMARK    2  A    between atoms: N_5  and  C_6
REMARK    3  A    between atoms: C_6  and  C_7
REMARK    4  A    between atoms: C_10  and  C_11
REMARK    5  A    between atoms: C_23  and  C_24
REMARK                            x       y       z     vdW  Elec       q    Type
REMARK                         _______ _______ _______ _____ _____    ______ ____
ROOT
ATOM      1  C   UNL     1      24.705   2.005  51.722  0.00  0.00    +0.000 C 
ATOM      2  C   UNL     1      23.426   1.582  51.733  0.00  0.00    +0.000 C 
ATOM      3  C   UNL     1      22.290   2.234  50.981  0.00  0.00    +0.000 C 
ATOM      4  C   UNL     1      21.045   2.376  51.872  0.00  0.00    +0.000 C 
ATOM      5  N   UNL     1      20.576   1.120  52.489  0.00  0.00    +0.000 N 
ATOM      6  C   UNL     1      21.670   0.496  53.251  0.00  0.00    +0.000 C 
ATOM      7  C   UNL     1      23.015   0.349  52.514  0.00  0.00    +0.000 C 
ATOM      8  H   UNL     1      19.829   1.360  53.141  0.00  0.00    +0.000 HD
ENDROOT
BRANCH   1   9
ATOM      9  C   UNL     1      25.221   3.113  50.913  0.00  0.00    +0.000 A 
ATOM     10  C   UNL     1      24.618   4.377  50.949  0.00  0.00    +0.000 A 
ATOM     11  C   UNL     1      25.148   5.434  50.202  0.00  0.00    +0.000 A 
ATOM     12  C   UNL     1      26.287   5.228  49.413  0.00  0.00    +0.000 A 
ATOM     13  C   UNL     1      26.885   3.966  49.373  0.00  0.00    +0.000 A 
ATOM     14  C   UNL     1      26.348   2.912  50.113  0.00  0.00    +0.000 A 
BRANCH  12  15
ATOM     15  C   UNL     1      26.889   6.335  48.635  0.00  0.00    +0.000 C 
ATOM     16  N   UNL     1      26.160   7.085  47.843  0.00  0.00    +0.000 N 
ATOM     17  C   UNL     1      27.125   8.055  47.257  0.00  0.00    +0.000 C 
ATOM     18  C   UNL     1      28.367   7.990  48.144  0.00  0.00    +0.000 C 
ATOM     19  N   UNL     1      28.222   6.672  48.726  0.00  0.00    +0.000 N 
ATOM     20  H   UNL     1      25.192   7.020  47.675  0.00  0.00    +0.000 HD
ATOM     21  H   UNL     1      28.941   6.121  49.113  0.00  0.00    +0.000 HD
ENDBRANCH  12  15
ENDBRANCH   1   9
BRANCH   5  22
ATOM     22  C   UNL     1      19.934   0.193  51.537  0.00  0.00    +0.000 C 
BRANCH  22  23
ATOM     23  C   UNL     1      18.436   0.088  51.775  0.00  0.00    +0.000 A 
ATOM     24  C   UNL     1      17.567   1.097  51.334  0.00  0.00    +0.000 A 
ATOM     25  C   UNL     1      16.230   1.107  51.743  0.00  0.00    +0.000 A 
ATOM     26  C   UNL     1      15.755   0.108  52.599  0.00  0.00    +0.000 A 
ATOM     27  C   UNL     1      16.583  -0.961  52.951  0.00  0.00    +0.000 A 
ATOM     28  C   UNL     1      17.914  -0.975  52.531  0.00  0.00    +0.000 A 
BRANCH  26  29
ATOM     29  C   UNL     1      14.414   0.250  53.219  0.00  0.00    +0.000 C 
ATOM     30  N   UNL     1      13.607  -0.770  53.367  0.00  0.00    +0.000 N 
ATOM     31  C   UNL     1      12.345  -0.189  53.898  0.00  0.00    +0.000 C 
ATOM     32  C   UNL     1      12.537   1.328  53.968  0.00  0.00    +0.000 C 
ATOM     33  N   UNL     1      13.926   1.478  53.601  0.00  0.00    +0.000 N 
ATOM     34  H   UNL     1      13.795  -1.715  53.169  0.00  0.00    +0.000 HD
ATOM     35  H   UNL     1      14.438   2.319  53.620  0.00  0.00    +0.000 HD
ENDBRANCH  26  29
ENDBRANCH  22  23
ENDBRANCH   5  22
TORSDOF 5
ENDMDL
MODEL 8
REMARK VINA RESULT:    -8.150      4.286     10.286
REMARK INTER + INTRA:         -11.331
REMARK INTER:                 -10.478
REMARK INTRA:                  -0.853
REMARK UNBOUND:                -0.799
REMARK  Name = 
REMARK  5 active torsions:
REMARK  status: ('A' for Active; 'I' for Inactive)
REMARK    1  A    between atoms: C_1  and  C_20
REMARK    2  A    between atoms: N_5  and  C_6
REMARK    3  A    between atoms: C_6  and  C_7
REMARK    4  A    between atoms: C_10  and  C_11
REMARK    5  A    between atoms: C_23  and  C_24
REMARK                            x       y       z     vdW  Elec       q    Type
REMARK                         _______ _______ _______ _____ _____    ______ ____
ROOT
ATOM      1  C   UNL     1      20.065   3.052  52.161  0.00  0.00    +0.000 C 
ATOM      2  C   UNL     1      21.155   3.557  51.551  0.00  0.00    +0.000 C 
ATOM      3  C   UNL     1      21.668   3.129  50.197  0.00  0.00    +0.000 C 
ATOM      4  C   UNL     1      23.191   2.923  50.220  0.00  0.00    +0.000 C 
ATOM      5  N   UNL     1      23.968   4.082  50.702  0.00  0.00    +0.000 N 
ATOM      6  C   UNL     1      23.495   4.482  52.037  0.00  0.00    +0.000 C 
ATOM      7  C   UNL     1      21.973   4.660  52.195  0.00  0.00    +0.000 C 
ATOM      8  H   UNL     1      24.940   3.785  50.783  0.00  0.00    +0.000 HD
ENDROOT
BRANCH   1   9
ATOM      9  C   UNL     1      19.149   2.068  51.575  0.00  0.00    +0.000 A 
ATOM     10  C   UNL     1      19.231   0.712  51.916  0.00  0.00    +0.000 A 
ATOM     11  C   UNL     1      18.323  -0.206  51.379  0.00  0.00    +0.000 A 
ATOM     12  C   UNL     1      17.327   0.232  50.496  0.00  0.00    +0.000 A 
ATOM     13  C   UNL     1      17.249   1.584  50.153  0.00  0.00    +0.000 A 
ATOM     14  C   UNL     1      18.162   2.496  50.684  0.00  0.00    +0.000 A 
BRANCH  12  15
ATOM     15  C   UNL     1      16.333  -0.712  49.935  0.00  0.00    +0.000 C 
ATOM     16  N   UNL     1      15.493  -1.356  50.710  0.00  0.00    +0.000 N 
ATOM     17  C   UNL     1      14.686  -2.187  49.775  0.00  0.00    +0.000 C 
ATOM     18  C   UNL     1      14.924  -1.595  48.386  0.00  0.00    +0.000 C 
ATOM     19  N   UNL     1      16.198  -0.935  48.582  0.00  0.00    +0.000 N 
ATOM     20  H   UNL     1      15.415  -1.302  51.690  0.00  0.00    +0.000 HD
ATOM     21  H   UNL     1      16.845  -0.691  47.881  0.00  0.00    +0.000 HD
ENDBRANCH  12  15
ENDBRANCH   1   9
BRANCH   5  22
ATOM     22  C   UNL     1      24.016   5.204  49.746  0.00  0.00    +0.000 C 
BRANCH  22  23
ATOM     23  C   UNL     1      25.402   5.374  49.145  0.00  0.00    +0.000 A 
ATOM     24  C   UNL     1      26.339   4.331  49.194  0.00  0.00    +0.000 A 
ATOM     25  C   UNL     1      27.672   4.561  48.841  0.00  0.00    +0.000 A 
ATOM     26  C   UNL     1      28.078   5.838  48.442  0.00  0.00    +0.000 A 
ATOM     27  C   UNL     1      27.131   6.853  48.283  0.00  0.00    +0.000 A 
ATOM     28  C   UNL     1      25.798   6.617  48.623  0.00  0.00    +0.000 A 
BRANCH  26  29
ATOM     29  C   UNL     1      29.524   6.138  48.301  0.00  0.00    +0.000 C 
ATOM     30  N   UNL     1      30.408   5.715  49.168  0.00  0.00    +0.000 N 
ATOM     31  C   UNL     1      31.693   6.329  48.739  0.00  0.00    +0.000 C 
ATOM     32  C   UNL     1      31.391   7.219  47.531  0.00  0.00    +0.000 C 
ATOM     33  N   UNL     1      29.996   6.940  47.287  0.00  0.00    +0.000 N 
ATOM     34  H   UNL     1      30.255   5.120  49.937  0.00  0.00    +0.000 HD
ATOM     35  H   UNL     1      29.469   7.270  46.523  0.00  0.00    +0.000 HD
ENDBRANCH  26  29
ENDBRANCH  22  23
ENDBRANCH   5  22
TORSDOF 5
ENDMDL
MODEL 9
REMARK VINA RESULT:    -8.062      5.073      8.725
REMARK INTER + INTRA:         -11.217
REMARK INTER:                 -10.932
REMARK INTRA:                  -0.285
REMARK UNBOUND:                -0.799
REMARK  Name = 
REMARK  5 active torsions:
REMARK  status: ('A' for Active; 'I' for Inactive)
REMARK    1  A    between atoms: C_1  and  C_20
REMARK    2  A    between atoms: N_5  and  C_6
REMARK    3  A    between atoms: C_6  and  C_7
REMARK    4  A    between atoms: C_10  and  C_11
REMARK    5  A    between atoms: C_23  and  C_24
REMARK                            x       y       z     vdW  Elec       q    Type
REMARK                         _______ _______ _______ _____ _____    ______ ____
ROOT
ATOM      1  C   UNL     1      24.274   0.481  53.222  0.00  0.00    +0.000 C 
ATOM      2  C   UNL     1      22.989   0.078  53.248  0.00  0.00    +0.000 C 
ATOM      3  C   UNL     1      21.874   0.681  52.427  0.00  0.00    +0.000 C 
ATOM      4  C   UNL     1      20.619   0.914  53.283  0.00  0.00    +0.000 C 
ATOM      5  N   UNL     1      20.121  -0.279  53.996  0.00  0.00    +0.000 N 
ATOM      6  C   UNL     1      21.195  -0.851  54.824  0.00  0.00    +0.000 C 
ATOM      7  C   UNL     1      22.548  -1.079  54.123  0.00  0.00    +0.000 C 
ATOM      8  H   UNL     1      19.369   0.026  54.614  0.00  0.00    +0.000 HD
ENDROOT
BRANCH   1   9
ATOM      9  C   UNL     1      24.818   1.510  52.330  0.00  0.00    +0.000 A 
ATOM     10  C   UNL     1      24.139   2.716  52.119  0.00  0.00    +0.000 A 
ATOM     11  C   UNL     1      24.693   3.704  51.297  0.00  0.00    +0.000 A 
ATOM     12  C   UNL     1      25.933   3.486  50.684  0.00  0.00    +0.000 A 
ATOM     13  C   UNL     1      26.608   2.281  50.891  0.00  0.00    +0.000 A 
ATOM     14  C   UNL     1      26.048   1.294  51.704  0.00  0.00    +0.000 A 
BRANCH  12  15
ATOM     15  C   UNL     1      26.558   4.525  49.833  0.00  0.00    +0.000 C 
ATOM     16  N   UNL     1      27.575   4.244  49.053  0.00  0.00    +0.000 N 
ATOM     17  C   UNL     1      27.900   5.534  48.387  0.00  0.00    +0.000 C 
ATOM     18  C   UNL     1      26.679   6.429  48.598  0.00  0.00    +0.000 C 
ATOM     19  N   UNL     1      26.091   5.820  49.773  0.00  0.00    +0.000 N 
ATOM     20  H   UNL     1      28.021   3.374  48.935  0.00  0.00    +0.000 HD
ATOM     21  H   UNL     1      25.475   6.251  50.409  0.00  0.00    +0.000 HD
ENDBRANCH  12  15
ENDBRANCH   1   9
BRANCH   5  22
ATOM     22  C   UNL     1      19.479  -1.273  53.115  0.00  0.00    +0.000 C 
BRANCH  22  23
ATOM     23  C   UNL     1      18.188  -0.742  52.514  0.00  0.00    +0.000 A 
ATOM     24  C   UNL     1      18.210   0.081  51.378  0.00  0.00    +0.000 A 
ATOM     25  C   UNL     1      17.050   0.741  50.961  0.00  0.00    +0.000 A 
ATOM     26  C   UNL     1      15.861   0.585  51.680  0.00  0.00    +0.000 A 
ATOM     27  C   UNL     1      15.803  -0.319  52.743  0.00  0.00    +0.000 A 
ATOM     28  C   UNL     1      16.959  -0.988  53.150  0.00  0.00    +0.000 A 
BRANCH  26  29
ATOM     29  C   UNL     1      14.703   1.463  51.383  0.00  0.00    +0.000 C 
ATOM     30  N   UNL     1      14.554   2.046  50.221  0.00  0.00    +0.000 N 
ATOM     31  C   UNL     1      13.362   2.921  50.378  0.00  0.00    +0.000 C 
ATOM     32  C   UNL     1      12.893   2.795  51.830  0.00  0.00    +0.000 C 
ATOM     33  N   UNL     1      13.766   1.766  52.345  0.00  0.00    +0.000 N 
ATOM     34  H   UNL     1      15.111   1.930  49.418  0.00  0.00    +0.000 HD
ATOM     35  H   UNL     1      13.703   1.351  53.236  0.00  0.00    +0.000 HD
ENDBRANCH  26  29
ENDBRANCH  22  23
ENDBRANCH   5  22
TORSDOF 5
ENDMDL
