MODEL 1
REMARK VINA RESULT:    -6.806      0.000      0.000
REMARK INTER + INTRA:         -14.607
REMARK INTER:                 -12.376
REMARK INTRA:                  -2.231
REMARK UNBOUND:                -2.231
REMARK  Name = 
REMARK  18 active torsions:
REMARK  status: ('A' for Active; 'I' for Inactive)
REMARK    1  A    between atoms: C_1  and  C_2
REMARK    2  A    between atoms: C_2  and  C_3
REMARK    3  A    between atoms: C_3  and  C_4
REMARK    4  A    between atoms: C_4  and  C_5
REMARK    5  A    between atoms: C_5  and  C_6
REMARK    6  A    between atoms: C_5  and  O_7
REMARK    7  A    between atoms: C_5  and  C_8
REMARK    8  A    between atoms: C_8  and  C_9
REMARK    9  A    between atoms: C_10  and  C_11
REMARK   10  A    between atoms: C_12  and  O_13
REMARK   11  A    between atoms: C_17  and  C_18
REMARK   12  A    between atoms: C_18  and  C_19
REMARK   13  A    between atoms: C_19  and  C_20
REMARK   14  A    between atoms: C_21  and  C_22
REMARK   15  A    between atoms: C_22  and  C_23
REMARK   16  A    between atoms: C_23  and  C_24
REMARK   17  A    between atoms: C_24  and  O_26
REMARK   18  A    between atoms: O_26  and  C_27
REMARK                            x       y       z     vdW  Elec       q    Type
REMARK                         _______ _______ _______ _____ _____    ______ ____
ROOT
ATOM      1  C   UNL     1      22.768  -0.128  52.981  0.00  0.00    +0.000 C 
ATOM      2  C   UNL     1      21.821  -0.570  54.121  0.00  0.00    +0.000 C 
ATOM      3  C   UNL     1      20.703   0.464  54.227  0.00  0.00    +0.000 C 
ATOM      4  C   UNL     1      20.994   1.400  53.093  0.00  0.00    +0.000 C 
ATOM      5  O   UNL     1      20.471   2.501  52.976  0.00  0.00    +0.000 OA
ATOM      6  C   UNL     1      21.944   0.812  52.082  0.00  0.00    +0.000 C 
ENDROOT
BRANCH   1   8
ATOM      7  C   UNL     1      24.527   1.671  52.979  0.00  0.00    +0.000 C 
ATOM      8  C   UNL     1      23.965   0.599  53.558  0.00  0.00    +0.000 C 
BRANCH   7   9
ATOM      9  C   UNL     1      25.785   2.337  53.479  0.00  0.00    +0.000 C 
BRANCH   9  10
ATOM     10  C   UNL     1      27.072   1.726  52.866  0.00  0.00    +0.000 C 
ATOM     11  C   UNL     1      26.830   1.199  51.445  0.00  0.00    +0.000 C 
BRANCH  10  12
ATOM     12  O   UNL     1      28.052   2.778  52.788  0.00  0.00    +0.000 OA
ATOM     13  H   UNL     1      28.023   3.182  51.906  0.00  0.00    +0.000 HD
ENDBRANCH  10  12
BRANCH  10  14
ATOM     14  C   UNL     1      27.683   0.644  53.785  0.00  0.00    +0.000 C 
BRANCH  14  15
ATOM     15  C   UNL     1      29.130   0.879  54.224  0.00  0.00    +0.000 C 
BRANCH  15  17
ATOM     16  C   UNL     1      29.343  -1.499  53.401  0.00  0.00    +0.000 C 
ATOM     17  C   UNL     1      30.059  -0.174  53.616  0.00  0.00    +0.000 C 
ENDBRANCH  15  17
ENDBRANCH  14  15
ENDBRANCH  10  14
ENDBRANCH   9  10
ENDBRANCH   7   9
ENDBRANCH   1   8
BRANCH   2  18
ATOM     18  O   UNL     1      21.287  -1.873  53.897  0.00  0.00    +0.000 OA
ATOM     19  H   UNL     1      20.434  -1.957  54.350  0.00  0.00    +0.000 HD
ENDBRANCH   2  18
BRANCH   6  20
ATOM     20  C   UNL     1      21.165   0.067  50.986  0.00  0.00    +0.000 C 
BRANCH  20  21
ATOM     21  C   UNL     1      20.565   0.970  49.897  0.00  0.00    +0.000 C 
BRANCH  21  22
ATOM     22  C   UNL     1      21.417   1.071  48.666  0.00  0.00    +0.000 C 
ATOM     23  C   UNL     1      22.390   1.972  48.453  0.00  0.00    +0.000 C 
BRANCH  23  24
ATOM     24  C   UNL     1      22.832   3.051  49.397  0.00  0.00    +0.000 C 
BRANCH  24  25
ATOM     25  C   UNL     1      24.354   3.077  49.513  0.00  0.00    +0.000 C 
BRANCH  25  26
ATOM     26  C   UNL     1      24.818   4.292  50.270  0.00  0.00    +0.000 C 
ATOM     27  O   UNL     1      25.927   4.801  50.185  0.00  0.00    +0.000 OA
BRANCH  26  28
ATOM     28  O   UNL     1      23.805   4.751  51.059  0.00  0.00    +0.000 OA
ATOM     29  C   UNL     1      23.856   6.155  51.308  0.00  0.00    +0.000 C 
ENDBRANCH  26  28
ENDBRANCH  25  26
ENDBRANCH  24  25
ENDBRANCH  23  24
ENDBRANCH  21  22
ENDBRANCH  20  21
ENDBRANCH   6  20
TORSDOF 15
ENDMDL
MODEL 2
REMARK VINA RESULT:    -6.738      1.254      4.677
REMARK INTER + INTRA:         -14.483
REMARK INTER:                 -11.960
REMARK INTRA:                  -2.523
REMARK UNBOUND:                -2.231
REMARK  Name = 
REMARK  18 active torsions:
REMARK  status: ('A' for Active; 'I' for Inactive)
REMARK    1  A    between atoms: C_1  and  C_2
REMARK    2  A    between atoms: C_2  and  C_3
REMARK    3  A    between atoms: C_3  and  C_4
REMARK    4  A    between atoms: C_4  and  C_5
REMARK    5  A    between atoms: C_5  and  C_6
REMARK    6  A    between atoms: C_5  and  O_7
REMARK    7  A    between atoms: C_5  and  C_8
REMARK    8  A    between atoms: C_8  and  C_9
REMARK    9  A    between atoms: C_10  and  C_11
REMARK   10  A    between atoms: C_12  and  O_13
REMARK   11  A    between atoms: C_17  and  C_18
REMARK   12  A    between atoms: C_18  and  C_19
REMARK   13  A    between atoms: C_19  and  C_20
REMARK   14  A    between atoms: C_21  and  C_22
REMARK   15  A    between atoms: C_22  and  C_23
REMARK   16  A    between atoms: C_23  and  C_24
REMARK   17  A    between atoms: C_24  and  O_26
REMARK   18  A    between atoms: O_26  and  C_27
REMARK                            x       y       z     vdW  Elec       q    Type
REMARK                         _______ _______ _______ _____ _____    ______ ____
ROOT
ATOM      1  C   UNL     1      23.153   4.263  51.583  0.00  0.00    +0.000 C 
ATOM      2  C   UNL     1      23.095   5.810  51.556  0.00  0.00    +0.000 C 
ATOM      3  C   UNL     1      24.111   6.296  50.526  0.00  0.00    +0.000 C 
ATOM      4  C   UNL     1      24.639   5.023  49.938  0.00  0.00    +0.000 C 
ATOM      5  O   UNL     1      25.648   4.966  49.245  0.00  0.00    +0.000 OA
ATOM      6  C   UNL     1      23.761   3.835  50.235  0.00  0.00    +0.000 C 
ENDROOT
BRANCH   1   8
ATOM      7  C   UNL     1      24.704   2.645  52.724  0.00  0.00    +0.000 C 
ATOM      8  C   UNL     1      24.023   3.800  52.733  0.00  0.00    +0.000 C 
BRANCH   7   9
ATOM      9  C   UNL     1      25.484   2.116  53.902  0.00  0.00    +0.000 C 
BRANCH   9  10
ATOM     10  C   UNL     1      26.973   1.842  53.562  0.00  0.00    +0.000 C 
ATOM     11  C   UNL     1      27.220   1.847  52.046  0.00  0.00    +0.000 C 
BRANCH  10  12
ATOM     12  O   UNL     1      27.749   2.908  54.140  0.00  0.00    +0.000 OA
ATOM     13  H   UNL     1      27.154   3.554  54.554  0.00  0.00    +0.000 HD
ENDBRANCH  10  12
BRANCH  10  14
ATOM     14  C   UNL     1      27.479   0.541  54.224  0.00  0.00    +0.000 C 
BRANCH  14  15
ATOM     15  C   UNL     1      27.306  -0.739  53.402  0.00  0.00    +0.000 C 
BRANCH  15  17
ATOM     16  C   UNL     1      29.811  -0.558  53.661  0.00  0.00    +0.000 C 
ATOM     17  C   UNL     1      28.658  -1.409  53.150  0.00  0.00    +0.000 C 
ENDBRANCH  15  17
ENDBRANCH  14  15
ENDBRANCH  10  14
ENDBRANCH   9  10
ENDBRANCH   7   9
ENDBRANCH   1   8
BRANCH   2  18
ATOM     18  O   UNL     1      21.789   6.290  51.247  0.00  0.00    +0.000 OA
ATOM     19  H   UNL     1      21.569   6.066  50.330  0.00  0.00    +0.000 HD
ENDBRANCH   2  18
BRANCH   6  20
ATOM     20  C   UNL     1      22.708   3.659  49.130  0.00  0.00    +0.000 C 
BRANCH  20  21
ATOM     21  C   UNL     1      22.619   2.239  48.548  0.00  0.00    +0.000 C 
BRANCH  21  22
ATOM     22  C   UNL     1      21.326   1.544  48.855  0.00  0.00    +0.000 C 
ATOM     23  C   UNL     1      21.039   0.876  49.984  0.00  0.00    +0.000 C 
BRANCH  23  24
ATOM     24  C   UNL     1      21.942   0.692  51.168  0.00  0.00    +0.000 C 
BRANCH  24  25
ATOM     25  C   UNL     1      21.247   1.138  52.451  0.00  0.00    +0.000 C 
BRANCH  25  26
ATOM     26  C   UNL     1      21.572   0.211  53.592  0.00  0.00    +0.000 C 
ATOM     27  O   UNL     1      21.022   0.210  54.685  0.00  0.00    +0.000 OA
BRANCH  26  28
ATOM     28  O   UNL     1      22.566  -0.642  53.216  0.00  0.00    +0.000 OA
ATOM     29  C   UNL     1      23.535  -0.887  54.236  0.00  0.00    +0.000 C 
ENDBRANCH  26  28
ENDBRANCH  25  26
ENDBRANCH  24  25
ENDBRANCH  23  24
ENDBRANCH  21  22
ENDBRANCH  20  21
ENDBRANCH   6  20
TORSDOF 15
ENDMDL
MODEL 3
REMARK VINA RESULT:    -6.572      1.896      6.345
REMARK INTER + INTRA:         -14.182
REMARK INTER:                 -11.677
REMARK INTRA:                  -2.505
REMARK UNBOUND:                -2.231
REMARK  Name = 
REMARK  18 active torsions:
REMARK  status: ('A' for Active; 'I' for Inactive)
REMARK    1  A    between atoms: C_1  and  C_2
REMARK    2  A    between atoms: C_2  and  C_3
REMARK    3  A    between atoms: C_3  and  C_4
REMARK    4  A    between atoms: C_4  and  C_5
REMARK    5  A    between atoms: C_5  and  C_6
REMARK    6  A    between atoms: C_5  and  O_7
REMARK    7  A    between atoms: C_5  and  C_8
REMARK    8  A    between atoms: C_8  and  C_9
REMARK    9  A    between atoms: C_10  and  C_11
REMARK   10  A    between atoms: C_12  and  O_13
REMARK   11  A    between atoms: C_17  and  C_18
REMARK   12  A    between atoms: C_18  and  C_19
REMARK   13  A    between atoms: C_19  and  C_20
REMARK   14  A    between atoms: C_21  and  C_22
REMARK   15  A    between atoms: C_22  and  C_23
REMARK   16  A    between atoms: C_23  and  C_24
REMARK   17  A    between atoms: C_24  and  O_26
REMARK   18  A    between atoms: O_26  and  C_27
REMARK                            x       y       z     vdW  Elec       q    Type
REMARK                         _______ _______ _______ _____ _____    ______ ____
ROOT
ATOM      1  C   UNL     1      26.423  -0.255  52.867  0.00  0.00    +0.000 C 
ATOM      2  C   UNL     1      27.605  -1.243  52.713  0.00  0.00    +0.000 C 
ATOM      3  C   UNL     1      28.720  -0.785  53.649  0.00  0.00    +0.000 C 
ATOM      4  C   UNL     1      28.109   0.379  54.367  0.00  0.00    +0.000 C 
ATOM      5  O   UNL     1      28.757   1.178  55.032  0.00  0.00    +0.000 OA
ATOM      6  C   UNL     1      26.608   0.421  54.239  0.00  0.00    +0.000 C 
ENDROOT
BRANCH   1   8
ATOM      7  C   UNL     1      25.856   1.967  51.833  0.00  0.00    +0.000 C 
ATOM      8  C   UNL     1      26.462   0.772  51.756  0.00  0.00    +0.000 C 
BRANCH   7   9
ATOM      9  C   UNL     1      25.790   2.955  50.696  0.00  0.00    +0.000 C 
BRANCH   9  10
ATOM     10  C   UNL     1      24.639   3.981  50.858  0.00  0.00    +0.000 C 
ATOM     11  C   UNL     1      23.852   3.753  52.156  0.00  0.00    +0.000 C 
BRANCH  10  12
ATOM     12  O   UNL     1      25.236   5.290  50.927  0.00  0.00    +0.000 OA
ATOM     13  H   UNL     1      25.158   5.727  50.064  0.00  0.00    +0.000 HD
ENDBRANCH  10  12
BRANCH  10  14
ATOM     14  C   UNL     1      23.714   4.002  49.620  0.00  0.00    +0.000 C 
BRANCH  14  15
ATOM     15  C   UNL     1      22.363   3.299  49.783  0.00  0.00    +0.000 C 
BRANCH  15  17
ATOM     16  C   UNL     1      22.389   2.002  47.616  0.00  0.00    +0.000 C 
ATOM     17  C   UNL     1      22.392   1.913  49.135  0.00  0.00    +0.000 C 
ENDBRANCH  15  17
ENDBRANCH  14  15
ENDBRANCH  10  14
ENDBRANCH   9  10
ENDBRANCH   7   9
ENDBRANCH   1   8
BRANCH   2  18
ATOM     18  O   UNL     1      27.220  -2.585  53.001  0.00  0.00    +0.000 OA
ATOM     19  H   UNL     1      26.336  -2.591  53.400  0.00  0.00    +0.000 HD
ENDBRANCH   2  18
BRANCH   6  20
ATOM     20  C   UNL     1      25.951  -0.361  55.387  0.00  0.00    +0.000 C 
BRANCH  20  21
ATOM     21  C   UNL     1      24.884  -1.375  54.946  0.00  0.00    +0.000 C 
BRANCH  21  22
ATOM     22  C   UNL     1      23.516  -1.082  55.488  0.00  0.00    +0.000 C 
ATOM     23  C   UNL     1      22.395  -0.943  54.763  0.00  0.00    +0.000 C 
BRANCH  23  24
ATOM     24  C   UNL     1      22.274  -1.059  53.272  0.00  0.00    +0.000 C 
BRANCH  24  25
ATOM     25  C   UNL     1      22.403   0.310  52.611  0.00  0.00    +0.000 C 
BRANCH  25  26
ATOM     26  C   UNL     1      21.051   0.934  52.389  0.00  0.00    +0.000 C 
ATOM     27  O   UNL     1      20.678   2.004  52.848  0.00  0.00    +0.000 OA
BRANCH  26  28
ATOM     28  O   UNL     1      20.305   0.127  51.582  0.00  0.00    +0.000 OA
ATOM     29  C   UNL     1      18.940   0.011  51.981  0.00  0.00    +0.000 C 
ENDBRANCH  26  28
ENDBRANCH  25  26
ENDBRANCH  24  25
ENDBRANCH  23  24
ENDBRANCH  21  22
ENDBRANCH  20  21
ENDBRANCH   6  20
TORSDOF 15
ENDMDL
MODEL 4
REMARK VINA RESULT:    -6.571      2.278      5.753
REMARK INTER + INTRA:         -14.180
REMARK INTER:                 -11.534
REMARK INTRA:                  -2.646
REMARK UNBOUND:                -2.231
REMARK  Name = 
REMARK  18 active torsions:
REMARK  status: ('A' for Active; 'I' for Inactive)
REMARK    1  A    between atoms: C_1  and  C_2
REMARK    2  A    between atoms: C_2  and  C_3
REMARK    3  A    between atoms: C_3  and  C_4
REMARK    4  A    between atoms: C_4  and  C_5
REMARK    5  A    between atoms: C_5  and  C_6
REMARK    6  A    between atoms: C_5  and  O_7
REMARK    7  A    between atoms: C_5  and  C_8
REMARK    8  A    between atoms: C_8  and  C_9
REMARK    9  A    between atoms: C_10  and  C_11
REMARK   10  A    between atoms: C_12  and  O_13
REMARK   11  A    between atoms: C_17  and  C_18
REMARK   12  A    between atoms: C_18  and  C_19
REMARK   13  A    between atoms: C_19  and  C_20
REMARK   14  A    between atoms: C_21  and  C_22
REMARK   15  A    between atoms: C_22  and  C_23
REMARK   16  A    between atoms: C_23  and  C_24
REMARK   17  A    between atoms: C_24  and  O_26
REMARK   18  A    between atoms: O_26  and  C_27
REMARK                            x       y       z     vdW  Elec       q    Type
REMARK                         _______ _______ _______ _____ _____    ______ ____
ROOT
ATOM      1  C   UNL     1      24.304   2.223  51.755  0.00  0.00    +0.000 C 
ATOM      2  C   UNL     1      24.422   2.608  53.249  0.00  0.00    +0.000 C 
ATOM      3  C   UNL     1      25.607   1.845  53.835  0.00  0.00    +0.000 C 
ATOM      4  C   UNL     1      26.176   1.131  52.647  0.00  0.00    +0.000 C 
ATOM      5  O   UNL     1      26.991   0.221  52.733  0.00  0.00    +0.000 OA
ATOM      6  C   UNL     1      25.690   1.698  51.338  0.00  0.00    +0.000 C 
ENDROOT
BRANCH   1   8
ATOM      7  C   UNL     1      22.086   1.350  50.949  0.00  0.00    +0.000 C 
ATOM      8  C   UNL     1      23.252   1.147  51.582  0.00  0.00    +0.000 C 
BRANCH   7   9
ATOM      9  C   UNL     1      20.983   0.325  50.865  0.00  0.00    +0.000 C 
BRANCH   9  10
ATOM     10  C   UNL     1      19.842   0.587  51.883  0.00  0.00    +0.000 C 
ATOM     11  C   UNL     1      19.735   2.075  52.247  0.00  0.00    +0.000 C 
BRANCH  10  12
ATOM     12  O   UNL     1      18.607   0.195  51.255  0.00  0.00    +0.000 OA
ATOM     13  H   UNL     1      18.631  -0.755  51.060  0.00  0.00    +0.000 HD
ENDBRANCH  10  12
BRANCH  10  14
ATOM     14  C   UNL     1      19.982  -0.304  53.138  0.00  0.00    +0.000 C 
BRANCH  14  15
ATOM     15  C   UNL     1      20.846   0.264  54.267  0.00  0.00    +0.000 C 
BRANCH  15  17
ATOM     16  C   UNL     1      23.084  -0.902  54.355  0.00  0.00    +0.000 C 
ATOM     17  C   UNL     1      21.675  -0.843  54.924  0.00  0.00    +0.000 C 
ENDBRANCH  15  17
ENDBRANCH  14  15
ENDBRANCH  10  14
ENDBRANCH   9  10
ENDBRANCH   7   9
ENDBRANCH   1   8
BRANCH   2  18
ATOM     18  O   UNL     1      24.586   4.014  53.427  0.00  0.00    +0.000 OA
ATOM     19  H   UNL     1      23.718   4.446  53.410  0.00  0.00    +0.000 HD
ENDBRANCH   2  18
BRANCH   6  20
ATOM     20  C   UNL     1      26.634   2.811  50.855  0.00  0.00    +0.000 C 
BRANCH  20  21
ATOM     21  C   UNL     1      26.400   3.266  49.406  0.00  0.00    +0.000 C 
BRANCH  21  22
ATOM     22  C   UNL     1      27.147   4.515  49.041  0.00  0.00    +0.000 C 
ATOM     23  C   UNL     1      26.597   5.698  48.724  0.00  0.00    +0.000 C 
BRANCH  23  24
ATOM     24  C   UNL     1      25.132   6.019  48.676  0.00  0.00    +0.000 C 
BRANCH  24  25
ATOM     25  C   UNL     1      24.629   6.452  50.050  0.00  0.00    +0.000 C 
BRANCH  25  26
ATOM     26  C   UNL     1      23.499   5.573  50.515  0.00  0.00    +0.000 C 
ATOM     27  O   UNL     1      22.969   5.620  51.615  0.00  0.00    +0.000 OA
BRANCH  26  28
ATOM     28  O   UNL     1      23.145   4.721  49.512  0.00  0.00    +0.000 OA
ATOM     29  C   UNL     1      21.740   4.667  49.267  0.00  0.00    +0.000 C 
ENDBRANCH  26  28
ENDBRANCH  25  26
ENDBRANCH  24  25
ENDBRANCH  23  24
ENDBRANCH  21  22
ENDBRANCH  20  21
ENDBRANCH   6  20
TORSDOF 15
ENDMDL
MODEL 5
REMARK VINA RESULT:    -6.486      1.935      5.455
REMARK INTER + INTRA:         -14.025
REMARK INTER:                 -11.408
REMARK INTRA:                  -2.617
REMARK UNBOUND:                -2.231
REMARK  Name = 
REMARK  18 active torsions:
REMARK  status: ('A' for Active; 'I' for Inactive)
REMARK    1  A    between atoms: C_1  and  C_2
REMARK    2  A    between atoms: C_2  and  C_3
REMARK    3  A    between atoms: C_3  and  C_4
REMARK    4  A    between atoms: C_4  and  C_5
REMARK    5  A    between atoms: C_5  and  C_6
REMARK    6  A    between atoms: C_5  and  O_7
REMARK    7  A    between atoms: C_5  and  C_8
REMARK    8  A    between atoms: C_8  and  C_9
REMARK    9  A    between atoms: C_10  and  C_11
REMARK   10  A    between atoms: C_12  and  O_13
REMARK   11  A    between atoms: C_17  and  C_18
REMARK   12  A    between atoms: C_18  and  C_19
REMARK   13  A    between atoms: C_19  and  C_20
REMARK   14  A    between atoms: C_21  and  C_22
REMARK   15  A    between atoms: C_22  and  C_23
REMARK   16  A    between atoms: C_23  and  C_24
REMARK   17  A    between atoms: C_24  and  O_26
REMARK   18  A    between atoms: O_26  and  C_27
REMARK                            x       y       z     vdW  Elec       q    Type
REMARK                         _______ _______ _______ _____ _____    ______ ____
ROOT
ATOM      1  C   UNL     1      23.527   3.816  51.742  0.00  0.00    +0.000 C 
ATOM      2  C   UNL     1      23.453   5.346  51.963  0.00  0.00    +0.000 C 
ATOM      3  C   UNL     1      24.439   6.004  51.002  0.00  0.00    +0.000 C 
ATOM      4  C   UNL     1      24.966   4.848  50.208  0.00  0.00    +0.000 C 
ATOM      5  O   UNL     1      25.959   4.917  49.493  0.00  0.00    +0.000 OA
ATOM      6  C   UNL     1      24.107   3.616  50.330  0.00  0.00    +0.000 C 
ENDROOT
BRANCH   1   8
ATOM      7  C   UNL     1      25.058   2.016  52.606  0.00  0.00    +0.000 C 
ATOM      8  C   UNL     1      24.428   3.187  52.785  0.00  0.00    +0.000 C 
BRANCH   7   9
ATOM      9  C   UNL     1      25.868   1.323  53.673  0.00  0.00    +0.000 C 
BRANCH   9  10
ATOM     10  C   UNL     1      25.564  -0.195  53.766  0.00  0.00    +0.000 C 
ATOM     11  C   UNL     1      26.447  -1.012  52.812  0.00  0.00    +0.000 C 
BRANCH  10  12
ATOM     12  O   UNL     1      25.863  -0.611  55.112  0.00  0.00    +0.000 OA
ATOM     13  H   UNL     1      25.035  -0.782  55.589  0.00  0.00    +0.000 HD
ENDBRANCH  10  12
BRANCH  10  14
ATOM     14  C   UNL     1      24.062  -0.489  53.554  0.00  0.00    +0.000 C 
BRANCH  14  15
ATOM     15  C   UNL     1      23.325  -1.097  54.750  0.00  0.00    +0.000 C 
BRANCH  15  17
ATOM     16  C   UNL     1      20.948  -1.840  54.331  0.00  0.00    +0.000 C 
ATOM     17  C   UNL     1      21.850  -0.686  54.744  0.00  0.00    +0.000 C 
ENDBRANCH  15  17
ENDBRANCH  14  15
ENDBRANCH  10  14
ENDBRANCH   9  10
ENDBRANCH   7   9
ENDBRANCH   1   8
BRANCH   2  18
ATOM     18  O   UNL     1      22.134   5.851  51.763  0.00  0.00    +0.000 OA
ATOM     19  H   UNL     1      22.162   6.819  51.719  0.00  0.00    +0.000 HD
ENDBRANCH   2  18
BRANCH   6  20
ATOM     20  C   UNL     1      23.030   3.603  49.234  0.00  0.00    +0.000 C 
BRANCH  20  21
ATOM     21  C   UNL     1      22.889   2.267  48.488  0.00  0.00    +0.000 C 
BRANCH  21  22
ATOM     22  C   UNL     1      21.484   1.741  48.460  0.00  0.00    +0.000 C 
ATOM     23  C   UNL     1      20.901   1.002  49.417  0.00  0.00    +0.000 C 
BRANCH  23  24
ATOM     24  C   UNL     1      21.523   0.557  50.707  0.00  0.00    +0.000 C 
BRANCH  24  25
ATOM     25  C   UNL     1      20.990   1.381  51.876  0.00  0.00    +0.000 C 
BRANCH  25  26
ATOM     26  C   UNL     1      19.488   1.312  51.947  0.00  0.00    +0.000 C 
ATOM     27  O   UNL     1      18.726   2.260  51.818  0.00  0.00    +0.000 OA
BRANCH  26  28
ATOM     28  O   UNL     1      19.102   0.023  52.162  0.00  0.00    +0.000 OA
ATOM     29  C   UNL     1      17.900  -0.344  51.484  0.00  0.00    +0.000 C 
ENDBRANCH  26  28
ENDBRANCH  25  26
ENDBRANCH  24  25
ENDBRANCH  23  24
ENDBRANCH  21  22
ENDBRANCH  20  21
ENDBRANCH   6  20
TORSDOF 15
ENDMDL
MODEL 6
REMARK VINA RESULT:    -6.444      2.108      6.230
REMARK INTER + INTRA:         -13.950
REMARK INTER:                 -12.176
REMARK INTRA:                  -1.773
REMARK UNBOUND:                -2.231
REMARK  Name = 
REMARK  18 active torsions:
REMARK  status: ('A' for Active; 'I' for Inactive)
REMARK    1  A    between atoms: C_1  and  C_2
REMARK    2  A    between atoms: C_2  and  C_3
REMARK    3  A    between atoms: C_3  and  C_4
REMARK    4  A    between atoms: C_4  and  C_5
REMARK    5  A    between atoms: C_5  and  C_6
REMARK    6  A    between atoms: C_5  and  O_7
REMARK    7  A    between atoms: C_5  and  C_8
REMARK    8  A    between atoms: C_8  and  C_9
REMARK    9  A    between atoms: C_10  and  C_11
REMARK   10  A    between atoms: C_12  and  O_13
REMARK   11  A    between atoms: C_17  and  C_18
REMARK   12  A    between atoms: C_18  and  C_19
REMARK   13  A    between atoms: C_19  and  C_20
REMARK   14  A    between atoms: C_21  and  C_22
REMARK   15  A    between atoms: C_22  and  C_23
REMARK   16  A    between atoms: C_23  and  C_24
REMARK   17  A    between atoms: C_24  and  O_26
REMARK   18  A    between atoms: O_26  and  C_27
REMARK                            x       y       z     vdW  Elec       q    Type
REMARK                         _______ _______ _______ _____ _____    ______ ____
ROOT
ATOM      1  C   UNL     1      26.594  -0.270  52.791  0.00  0.00    +0.000 C 
ATOM      2  C   UNL     1      27.741  -1.305  52.693  0.00  0.00    +0.000 C 
ATOM      3  C   UNL     1      28.824  -0.897  53.688  0.00  0.00    +0.000 C 
ATOM      4  C   UNL     1      28.224   0.289  54.380  0.00  0.00    +0.000 C 
ATOM      5  O   UNL     1      28.868   1.058  55.083  0.00  0.00    +0.000 OA
ATOM      6  C   UNL     1      26.734   0.393  54.174  0.00  0.00    +0.000 C 
ENDROOT
BRANCH   1   8
ATOM      7  C   UNL     1      26.135   1.959  51.720  0.00  0.00    +0.000 C 
ATOM      8  C   UNL     1      26.733   0.759  51.689  0.00  0.00    +0.000 C 
BRANCH   7   9
ATOM      9  C   UNL     1      26.171   2.950  50.583  0.00  0.00    +0.000 C 
BRANCH   9  10
ATOM     10  C   UNL     1      24.836   3.721  50.416  0.00  0.00    +0.000 C 
ATOM     11  C   UNL     1      23.665   2.774  50.117  0.00  0.00    +0.000 C 
BRANCH  10  12
ATOM     12  O   UNL     1      24.563   4.382  51.666  0.00  0.00    +0.000 OA
ATOM     13  H   UNL     1      24.955   5.269  51.656  0.00  0.00    +0.000 HD
ENDBRANCH  10  12
BRANCH  10  14
ATOM     14  C   UNL     1      24.954   4.843  49.361  0.00  0.00    +0.000 C 
BRANCH  14  15
ATOM     15  C   UNL     1      26.063   5.871  49.598  0.00  0.00    +0.000 C 
BRANCH  15  17
ATOM     16  C   UNL     1      28.236   5.930  48.312  0.00  0.00    +0.000 C 
ATOM     17  C   UNL     1      26.748   6.245  48.281  0.00  0.00    +0.000 C 
ENDBRANCH  15  17
ENDBRANCH  14  15
ENDBRANCH  10  14
ENDBRANCH   9  10
ENDBRANCH   7   9
ENDBRANCH   1   8
BRANCH   2  18
ATOM     18  O   UNL     1      27.287  -2.632  52.953  0.00  0.00    +0.000 OA
ATOM     19  H   UNL     1      27.887  -3.063  53.581  0.00  0.00    +0.000 HD
ENDBRANCH   2  18
BRANCH   6  20
ATOM     20  C   UNL     1      25.986  -0.365  55.282  0.00  0.00    +0.000 C 
BRANCH  20  21
ATOM     21  C   UNL     1      24.883  -1.310  54.782  0.00  0.00    +0.000 C 
BRANCH  21  22
ATOM     22  C   UNL     1      23.573  -1.131  55.492  0.00  0.00    +0.000 C 
ATOM     23  C   UNL     1      22.367  -1.044  54.909  0.00  0.00    +0.000 C 
BRANCH  23  24
ATOM     24  C   UNL     1      22.077  -1.114  53.438  0.00  0.00    +0.000 C 
BRANCH  24  25
ATOM     25  C   UNL     1      22.375   0.223  52.765  0.00  0.00    +0.000 C 
BRANCH  25  26
ATOM     26  C   UNL     1      21.112   0.873  52.269  0.00  0.00    +0.000 C 
ATOM     27  O   UNL     1      20.563   1.840  52.779  0.00  0.00    +0.000 OA
BRANCH  26  28
ATOM     28  O   UNL     1      20.677   0.228  51.150  0.00  0.00    +0.000 OA
ATOM     29  C   UNL     1      20.223   1.102  50.117  0.00  0.00    +0.000 C 
ENDBRANCH  26  28
ENDBRANCH  25  26
ENDBRANCH  24  25
ENDBRANCH  23  24
ENDBRANCH  21  22
ENDBRANCH  20  21
ENDBRANCH   6  20
TORSDOF 15
ENDMDL
MODEL 7
REMARK VINA RESULT:    -6.437      1.802      6.966
REMARK INTER + INTRA:         -13.937
REMARK INTER:                 -11.508
REMARK INTRA:                  -2.429
REMARK UNBOUND:                -2.231
REMARK  Name = 
REMARK  18 active torsions:
REMARK  status: ('A' for Active; 'I' for Inactive)
REMARK    1  A    between atoms: C_1  and  C_2
REMARK    2  A    between atoms: C_2  and  C_3
REMARK    3  A    between atoms: C_3  and  C_4
REMARK    4  A    between atoms: C_4  and  C_5
REMARK    5  A    between atoms: C_5  and  C_6
REMARK    6  A    between atoms: C_5  and  O_7
REMARK    7  A    between atoms: C_5  and  C_8
REMARK    8  A    between atoms: C_8  and  C_9
REMARK    9  A    between atoms: C_10  and  C_11
REMARK   10  A    between atoms: C_12  and  O_13
REMARK   11  A    between atoms: C_17  and  C_18
REMARK   12  A    between atoms: C_18  and  C_19
REMARK   13  A    between atoms: C_19  and  C_20
REMARK   14  A    between atoms: C_21  and  C_22
REMARK   15  A    between atoms: C_22  and  C_23
REMARK   16  A    between atoms: C_23  and  C_24
REMARK   17  A    between atoms: C_24  and  O_26
REMARK   18  A    between atoms: O_26  and  C_27
REMARK                            x       y       z     vdW  Elec       q    Type
REMARK                         _______ _______ _______ _____ _____    ______ ____
ROOT
ATOM      1  C   UNL     1      24.413   3.003  49.991  0.00  0.00    +0.000 C 
ATOM      2  C   UNL     1      24.735   4.468  49.609  0.00  0.00    +0.000 C 
ATOM      3  C   UNL     1      24.325   5.356  50.780  0.00  0.00    +0.000 C 
ATOM      4  C   UNL     1      23.878   4.371  51.817  0.00  0.00    +0.000 C 
ATOM      5  O   UNL     1      23.246   4.685  52.819  0.00  0.00    +0.000 OA
ATOM      6  C   UNL     1      24.346   2.968  51.529  0.00  0.00    +0.000 C 
ENDROOT
BRANCH   1   8
ATOM      7  C   UNL     1      22.323   1.607  49.887  0.00  0.00    +0.000 C 
ATOM      8  C   UNL     1      23.086   2.592  49.389  0.00  0.00    +0.000 C 
BRANCH   7   9
ATOM      9  C   UNL     1      21.055   1.111  49.237  0.00  0.00    +0.000 C 
BRANCH   9  10
ATOM     10  C   UNL     1      19.794   1.384  50.097  0.00  0.00    +0.000 C 
ATOM     11  C   UNL     1      19.821   2.789  50.716  0.00  0.00    +0.000 C 
BRANCH  10  12
ATOM     12  O   UNL     1      18.653   1.308  49.222  0.00  0.00    +0.000 OA
ATOM     13  H   UNL     1      17.943   1.873  49.566  0.00  0.00    +0.000 HD
ENDBRANCH  10  12
BRANCH  10  14
ATOM     14  C   UNL     1      19.584   0.288  51.165  0.00  0.00    +0.000 C 
BRANCH  14  15
ATOM     15  C   UNL     1      20.098   0.615  52.569  0.00  0.00    +0.000 C 
BRANCH  15  17
ATOM     16  C   UNL     1      22.458   0.506  53.463  0.00  0.00    +0.000 C 
ATOM     17  C   UNL     1      21.273  -0.293  52.942  0.00  0.00    +0.000 C 
ENDBRANCH  15  17
ENDBRANCH  14  15
ENDBRANCH  10  14
ENDBRANCH   9  10
ENDBRANCH   7   9
ENDBRANCH   1   8
BRANCH   2  18
ATOM     18  O   UNL     1      26.113   4.647  49.293  0.00  0.00    +0.000 OA
ATOM     19  H   UNL     1      26.290   4.300  48.405  0.00  0.00    +0.000 HD
ENDBRANCH   2  18
BRANCH   6  20
ATOM     20  C   UNL     1      25.714   2.715  52.185  0.00  0.00    +0.000 C 
BRANCH  20  21
ATOM     21  C   UNL     1      26.483   1.511  51.620  0.00  0.00    +0.000 C 
BRANCH  21  22
ATOM     22  C   UNL     1      26.018   0.193  52.164  0.00  0.00    +0.000 C 
ATOM     23  C   UNL     1      26.105  -0.207  53.443  0.00  0.00    +0.000 C 
BRANCH  23  24
ATOM     24  C   UNL     1      26.674   0.578  54.588  0.00  0.00    +0.000 C 
BRANCH  24  25
ATOM     25  C   UNL     1      28.124   0.180  54.848  0.00  0.00    +0.000 C 
BRANCH  25  26
ATOM     26  C   UNL     1      29.074   1.078  54.101  0.00  0.00    +0.000 C 
ATOM     27  O   UNL     1      29.047   2.300  54.104  0.00  0.00    +0.000 OA
BRANCH  26  28
ATOM     28  O   UNL     1      29.983   0.318  53.428  0.00  0.00    +0.000 OA
ATOM     29  C   UNL     1      29.871  -1.082  53.683  0.00  0.00    +0.000 C 
ENDBRANCH  26  28
ENDBRANCH  25  26
ENDBRANCH  24  25
ENDBRANCH  23  24
ENDBRANCH  21  22
ENDBRANCH  20  21
ENDBRANCH   6  20
TORSDOF 15
ENDMDL
MODEL 8
REMARK VINA RESULT:    -6.437      1.590      2.561
REMARK INTER + INTRA:         -13.937
REMARK INTER:                 -11.075
REMARK INTRA:                  -2.861
REMARK UNBOUND:                -2.231
REMARK  Name = 
REMARK  18 active torsions:
REMARK  status: ('A' for Active; 'I' for Inactive)
REMARK    1  A    between atoms: C_1  and  C_2
REMARK    2  A    between atoms: C_2  and  C_3
REMARK    3  A    between atoms: C_3  and  C_4
REMARK    4  A    between atoms: C_4  and  C_5
REMARK    5  A    between atoms: C_5  and  C_6
REMARK    6  A    between atoms: C_5  and  O_7
REMARK    7  A    between atoms: C_5  and  C_8
REMARK    8  A    between atoms: C_8  and  C_9
REMARK    9  A    between atoms: C_10  and  C_11
REMARK   10  A    between atoms: C_12  and  O_13
REMARK   11  A    between atoms: C_17  and  C_18
REMARK   12  A    between atoms: C_18  and  C_19
REMARK   13  A    between atoms: C_19  and  C_20
REMARK   14  A    between atoms: C_21  and  C_22
REMARK   15  A    between atoms: C_22  and  C_23
REMARK   16  A    between atoms: C_23  and  C_24
REMARK   17  A    between atoms: C_24  and  O_26
REMARK   18  A    between atoms: O_26  and  C_27
REMARK                            x       y       z     vdW  Elec       q    Type
REMARK                         _______ _______ _______ _____ _____    ______ ____
ROOT
ATOM      1  C   UNL     1      21.787  -0.200  52.712  0.00  0.00    +0.000 C 
ATOM      2  C   UNL     1      20.513   0.176  53.507  0.00  0.00    +0.000 C 
ATOM      3  C   UNL     1      20.214   1.648  53.238  0.00  0.00    +0.000 C 
ATOM      4  C   UNL     1      21.259   2.033  52.236  0.00  0.00    +0.000 C 
ATOM      5  O   UNL     1      21.517   3.193  51.940  0.00  0.00    +0.000 OA
ATOM      6  C   UNL     1      21.908   0.840  51.583  0.00  0.00    +0.000 C 
ENDROOT
BRANCH   1   8
ATOM      7  C   UNL     1      24.185  -0.680  53.301  0.00  0.00    +0.000 C 
ATOM      8  C   UNL     1      22.997  -0.146  53.621  0.00  0.00    +0.000 C 
BRANCH   7   9
ATOM      9  C   UNL     1      25.367  -0.733  54.237  0.00  0.00    +0.000 C 
BRANCH   9  10
ATOM     10  C   UNL     1      26.723  -0.582  53.501  0.00  0.00    +0.000 C 
ATOM     11  C   UNL     1      27.724   0.249  54.316  0.00  0.00    +0.000 C 
BRANCH  10  12
ATOM     12  O   UNL     1      27.273  -1.902  53.339  0.00  0.00    +0.000 OA
ATOM     13  H   UNL     1      28.087  -1.981  53.862  0.00  0.00    +0.000 HD
ENDBRANCH  10  12
BRANCH  10  14
ATOM     14  C   UNL     1      26.537  -0.021  52.073  0.00  0.00    +0.000 C 
BRANCH  14  15
ATOM     15  C   UNL     1      26.811   1.475  51.901  0.00  0.00    +0.000 C 
BRANCH  15  17
ATOM     16  C   UNL     1      24.894   2.869  52.774  0.00  0.00    +0.000 C 
ATOM     17  C   UNL     1      25.524   2.225  51.548  0.00  0.00    +0.000 C 
ENDBRANCH  15  17
ENDBRANCH  14  15
ENDBRANCH  10  14
ENDBRANCH   9  10
ENDBRANCH   7   9
ENDBRANCH   1   8
BRANCH   2  18
ATOM     18  O   UNL     1      19.401  -0.641  53.152  0.00  0.00    +0.000 OA
ATOM     19  H   UNL     1      19.058  -1.084  53.944  0.00  0.00    +0.000 HD
ENDBRANCH   2  18
BRANCH   6  20
ATOM     20  C   UNL     1      21.140   0.440  50.313  0.00  0.00    +0.000 C 
BRANCH  20  21
ATOM     21  C   UNL     1      21.787   0.903  48.999  0.00  0.00    +0.000 C 
BRANCH  21  22
ATOM     22  C   UNL     1      21.286   2.233  48.519  0.00  0.00    +0.000 C 
ATOM     23  C   UNL     1      21.999   3.370  48.462  0.00  0.00    +0.000 C 
BRANCH  23  24
ATOM     24  C   UNL     1      23.436   3.545  48.854  0.00  0.00    +0.000 C 
BRANCH  24  25
ATOM     25  C   UNL     1      23.767   5.022  49.049  0.00  0.00    +0.000 C 
BRANCH  25  26
ATOM     26  C   UNL     1      25.192   5.202  49.499  0.00  0.00    +0.000 C 
ATOM     27  O   UNL     1      26.170   4.673  48.990  0.00  0.00    +0.000 OA
BRANCH  26  28
ATOM     28  O   UNL     1      25.229   6.061  50.557  0.00  0.00    +0.000 OA
ATOM     29  C   UNL     1      24.007   6.765  50.775  0.00  0.00    +0.000 C 
ENDBRANCH  26  28
ENDBRANCH  25  26
ENDBRANCH  24  25
ENDBRANCH  23  24
ENDBRANCH  21  22
ENDBRANCH  20  21
ENDBRANCH   6  20
TORSDOF 15
ENDMDL
MODEL 9
REMARK VINA RESULT:    -6.338      1.533      4.794
REMARK INTER + INTRA:         -13.756
REMARK INTER:                 -11.232
REMARK INTRA:                  -2.524
REMARK UNBOUND:                -2.231
REMARK  Name = 
REMARK  18 active torsions:
REMARK  status: ('A' for Active; 'I' for Inactive)
REMARK    1  A    between atoms: C_1  and  C_2
REMARK    2  A    between atoms: C_2  and  C_3
REMARK    3  A    between atoms: C_3  and  C_4
REMARK    4  A    between atoms: C_4  and  C_5
REMARK    5  A    between atoms: C_5  and  C_6
REMARK    6  A    between atoms: C_5  and  O_7
REMARK    7  A    between atoms: C_5  and  C_8
REMARK    8  A    between atoms: C_8  and  C_9
REMARK    9  A    between atoms: C_10  and  C_11
REMARK   10  A    between atoms: C_12  and  O_13
REMARK   11  A    between atoms: C_17  and  C_18
REMARK   12  A    between atoms: C_18  and  C_19
REMARK   13  A    between atoms: C_19  and  C_20
REMARK   14  A    between atoms: C_21  and  C_22
REMARK   15  A    between atoms: C_22  and  C_23
REMARK   16  A    between atoms: C_23  and  C_24
REMARK   17  A    between atoms: C_24  and  O_26
REMARK   18  A    between atoms: O_26  and  C_27
REMARK                            x       y       z     vdW  Elec       q    Type
REMARK                         _______ _______ _______ _____ _____    ______ ____
ROOT
ATOM      1  C   UNL     1      23.090   4.194  51.017  0.00  0.00    +0.000 C 
ATOM      2  C   UNL     1      23.303   5.592  51.646  0.00  0.00    +0.000 C 
ATOM      3  C   UNL     1      24.589   6.174  51.064  0.00  0.00    +0.000 C 
ATOM      4  C   UNL     1      25.011   5.141  50.064  0.00  0.00    +0.000 C 
ATOM      5  O   UNL     1      26.123   5.112  49.552  0.00  0.00    +0.000 OA
ATOM      6  C   UNL     1      23.900   4.187  49.708  0.00  0.00    +0.000 C 
ENDROOT
BRANCH   1   8
ATOM      7  C   UNL     1      24.155   1.977  51.546  0.00  0.00    +0.000 C 
ATOM      8  C   UNL     1      23.593   3.122  51.962  0.00  0.00    +0.000 C 
BRANCH   7   9
ATOM      9  C   UNL     1      24.559   0.852  52.467  0.00  0.00    +0.000 C 
BRANCH   9  10
ATOM     10  C   UNL     1      26.094   0.641  52.519  0.00  0.00    +0.000 C 
ATOM     11  C   UNL     1      26.474  -0.830  52.294  0.00  0.00    +0.000 C 
BRANCH  10  12
ATOM     12  O   UNL     1      26.671   1.415  51.450  0.00  0.00    +0.000 OA
ATOM     13  H   UNL     1      26.143   1.297  50.644  0.00  0.00    +0.000 HD
ENDBRANCH  10  12
BRANCH  10  14
ATOM     14  C   UNL     1      26.703   1.200  53.824  0.00  0.00    +0.000 C 
BRANCH  14  15
ATOM     15  C   UNL     1      27.744   0.312  54.510  0.00  0.00    +0.000 C 
BRANCH  15  17
ATOM     16  C   UNL     1      29.956  -0.494  53.596  0.00  0.00    +0.000 C 
ATOM     17  C   UNL     1      29.160   0.707  54.085  0.00  0.00    +0.000 C 
ENDBRANCH  15  17
ENDBRANCH  14  15
ENDBRANCH  10  14
ENDBRANCH   9  10
ENDBRANCH   7   9
ENDBRANCH   1   8
BRANCH   2  18
ATOM     18  O   UNL     1      22.199   6.460  51.405  0.00  0.00    +0.000 OA
ATOM     19  H   UNL     1      21.372   5.956  51.455  0.00  0.00    +0.000 HD
ENDBRANCH   2  18
BRANCH   6  20
ATOM     20  C   UNL     1      23.103   4.719  48.506  0.00  0.00    +0.000 C 
BRANCH  20  21
ATOM     21  C   UNL     1      21.964   3.802  48.034  0.00  0.00    +0.000 C 
BRANCH  21  22
ATOM     22  C   UNL     1      22.369   2.363  47.901  0.00  0.00    +0.000 C 
ATOM     23  C   UNL     1      21.852   1.333  48.590  0.00  0.00    +0.000 C 
BRANCH  23  24
ATOM     24  C   UNL     1      20.765   1.401  49.621  0.00  0.00    +0.000 C 
BRANCH  24  25
ATOM     25  C   UNL     1      21.035   0.418  50.756  0.00  0.00    +0.000 C 
BRANCH  25  26
ATOM     26  C   UNL     1      20.324   0.836  52.015  0.00  0.00    +0.000 C 
ATOM     27  O   UNL     1      20.865   1.128  53.073  0.00  0.00    +0.000 OA
BRANCH  26  28
ATOM     28  O   UNL     1      18.979   0.857  51.793  0.00  0.00    +0.000 OA
ATOM     29  C   UNL     1      18.320  -0.366  52.120  0.00  0.00    +0.000 C 
ENDBRANCH  26  28
ENDBRANCH  25  26
ENDBRANCH  24  25
ENDBRANCH  23  24
ENDBRANCH  21  22
ENDBRANCH  20  21
ENDBRANCH   6  20
TORSDOF 15
ENDMDL
