MODEL 1
REMARK VINA RESULT:    -7.592      0.000      0.000
REMARK INTER + INTRA:         -13.309
REMARK INTER:                 -11.586
REMARK INTRA:                  -1.723
REMARK UNBOUND:                -1.723
REMARK  Name = 
REMARK  10 active torsions:
REMARK  status: ('A' for Active; 'I' for Inactive)
REMARK    1  A    between atoms: C_1  and  C_2
REMARK    2  A    between atoms: C_2  and  C_3
REMARK    3  A    between atoms: C_3  and  C_4
REMARK    4  A    between atoms: C_4  and  C_5
REMARK    5  A    between atoms: C_5  and  C_6
REMARK    6  A    between atoms: C_6  and  C_7
REMARK    7  A    between atoms: C_7  and  C_8
REMARK    8  A    between atoms: C_7  and  N_11
REMARK    9  A    between atoms: C_16  and  C_17
REMARK   10  A    between atoms: C_22  and  S_23
REMARK                            x       y       z     vdW  Elec       q    Type
REMARK                         _______ _______ _______ _____ _____    ______ ____
ROOT
ATOM      1  N   UNL     1      22.867   1.168  51.915  0.00  0.00    +0.000 N 
ATOM      2  C   UNL     1      22.023   0.981  50.853  0.00  0.00    +0.000 A 
ATOM      3  N   UNL     1      22.372   1.713  49.823  0.00  0.00    +0.000 NA
ATOM      4  C   UNL     1      23.490   2.391  50.231  0.00  0.00    +0.000 A 
ATOM      5  C   UNL     1      24.248   3.343  49.538  0.00  0.00    +0.000 A 
ATOM      6  C   UNL     1      25.406   3.901  50.101  0.00  0.00    +0.000 A 
ATOM      7  C   UNL     1      25.732   3.499  51.419  0.00  0.00    +0.000 A 
ATOM      8  C   UNL     1      24.953   2.606  52.171  0.00  0.00    +0.000 A 
ATOM      9  C   UNL     1      23.840   2.058  51.532  0.00  0.00    +0.000 A 
ENDROOT
BRANCH   6  10
ATOM     10  C   UNL     1      26.211   4.944  49.398  0.00  0.00    +0.000 A 
ATOM     11  C   UNL     1      27.456   4.540  48.846  0.00  0.00    +0.000 A 
ATOM     12  C   UNL     1      28.327   5.423  48.203  0.00  0.00    +0.000 A 
ATOM     13  C   UNL     1      27.987   6.761  48.092  0.00  0.00    +0.000 A 
ATOM     14  C   UNL     1      26.776   7.206  48.613  0.00  0.00    +0.000 A 
ATOM     15  C   UNL     1      25.894   6.319  49.259  0.00  0.00    +0.000 A 
BRANCH  15  16
ATOM     16  S   UNL     1      24.399   7.059  49.889  0.00  0.00    +0.000 S 
ATOM     17  O   UNL     1      23.284   6.715  49.046  0.00  0.00    +0.000 OA
ATOM     18  O   UNL     1      24.387   6.852  51.324  0.00  0.00    +0.000 OA
ATOM     19  O   UNL     1      24.588   8.656  49.725  0.00  0.00    +0.000 OA
ENDBRANCH  15  16
ENDBRANCH   6  10
BRANCH   1  20
ATOM     20  C   UNL     1      22.769   0.519  53.213  0.00  0.00    +0.000 C 
BRANCH  20  21
ATOM     21  C   UNL     1      21.318   0.246  53.554  0.00  0.00    +0.000 C 
ATOM     22  O   UNL     1      20.439   1.072  53.740  0.00  0.00    +0.000 OA
ATOM     23  O   UNL     1      21.040  -1.072  53.646  0.00  0.00    +0.000 OA
ENDBRANCH  20  21
BRANCH  20  24
ATOM     24  C   UNL     1      23.614  -0.759  53.311  0.00  0.00    +0.000 C 
BRANCH  24  25
ATOM     25  C   UNL     1      25.031  -0.484  53.833  0.00  0.00    +0.000 C 
BRANCH  25  26
ATOM     26  C   UNL     1      26.102  -1.104  52.932  0.00  0.00    +0.000 C 
BRANCH  26  27
ATOM     27  C   UNL     1      27.296  -0.160  52.761  0.00  0.00    +0.000 C 
BRANCH  27  29
ATOM     28  C   UNL     1      28.319   1.955  53.678  0.00  0.00    +0.000 C 
ATOM     29  C   UNL     1      27.522   0.702  54.005  0.00  0.00    +0.000 C 
ENDBRANCH  27  29
ENDBRANCH  26  27
ENDBRANCH  25  26
ENDBRANCH  24  25
ENDBRANCH  20  24
ENDBRANCH   1  20
TORSDOF 9
ENDMDL
MODEL 2
REMARK VINA RESULT:    -7.414      2.788      7.582
REMARK INTER + INTRA:         -13.039
REMARK INTER:                 -10.894
REMARK INTRA:                  -2.144
REMARK UNBOUND:                -1.723
REMARK  Name = 
REMARK  10 active torsions:
REMARK  status: ('A' for Active; 'I' for Inactive)
REMARK    1  A    between atoms: C_1  and  C_2
REMARK    2  A    between atoms: C_2  and  C_3
REMARK    3  A    between atoms: C_3  and  C_4
REMARK    4  A    between atoms: C_4  and  C_5
REMARK    5  A    between atoms: C_5  and  C_6
REMARK    6  A    between atoms: C_6  and  C_7
REMARK    7  A    between atoms: C_7  and  C_8
REMARK    8  A    between atoms: C_7  and  N_11
REMARK    9  A    between atoms: C_16  and  C_17
REMARK   10  A    between atoms: C_22  and  S_23
REMARK                            x       y       z     vdW  Elec       q    Type
REMARK                         _______ _______ _______ _____ _____    ______ ____
ROOT
ATOM      1  N   UNL     1      23.637   4.410  50.328  0.00  0.00    +0.000 N 
ATOM      2  C   UNL     1      23.410   5.264  51.374  0.00  0.00    +0.000 A 
ATOM      3  N   UNL     1      22.481   4.809  52.178  0.00  0.00    +0.000 NA
ATOM      4  C   UNL     1      22.099   3.610  51.639  0.00  0.00    +0.000 A 
ATOM      5  C   UNL     1      21.108   2.722  52.073  0.00  0.00    +0.000 A 
ATOM      6  C   UNL     1      20.887   1.501  51.418  0.00  0.00    +0.000 A 
ATOM      7  C   UNL     1      21.673   1.242  50.268  0.00  0.00    +0.000 A 
ATOM      8  C   UNL     1      22.622   2.144  49.761  0.00  0.00    +0.000 A 
ATOM      9  C   UNL     1      22.818   3.318  50.488  0.00  0.00    +0.000 A 
ENDROOT
BRANCH   6  10
ATOM     10  C   UNL     1      19.812   0.553  51.839  0.00  0.00    +0.000 A 
ATOM     11  C   UNL     1      18.585   0.605  51.126  0.00  0.00    +0.000 A 
ATOM     12  C   UNL     1      17.484  -0.193  51.445  0.00  0.00    +0.000 A 
ATOM     13  C   UNL     1      17.564  -1.078  52.507  0.00  0.00    +0.000 A 
ATOM     14  C   UNL     1      18.746  -1.168  53.236  0.00  0.00    +0.000 A 
ATOM     15  C   UNL     1      19.859  -0.368  52.916  0.00  0.00    +0.000 A 
BRANCH  15  16
ATOM     16  S   UNL     1      21.283  -0.593  53.965  0.00  0.00    +0.000 S 
ATOM     17  O   UNL     1      22.463  -0.785  53.163  0.00  0.00    +0.000 OA
ATOM     18  O   UNL     1      21.206   0.404  55.016  0.00  0.00    +0.000 OA
ATOM     19  O   UNL     1      21.052  -1.995  54.737  0.00  0.00    +0.000 OA
ENDBRANCH  15  16
ENDBRANCH   6  10
BRANCH   1  20
ATOM     20  C   UNL     1      24.594   4.606  49.252  0.00  0.00    +0.000 C 
BRANCH  20  21
ATOM     21  C   UNL     1      24.362   5.944  48.582  0.00  0.00    +0.000 C 
ATOM     22  O   UNL     1      25.115   6.905  48.579  0.00  0.00    +0.000 OA
ATOM     23  O   UNL     1      23.177   6.010  47.937  0.00  0.00    +0.000 OA
ENDBRANCH  20  21
BRANCH  20  24
ATOM     24  C   UNL     1      26.053   4.457  49.710  0.00  0.00    +0.000 C 
BRANCH  24  25
ATOM     25  C   UNL     1      26.462   2.988  49.887  0.00  0.00    +0.000 C 
BRANCH  25  26
ATOM     26  C   UNL     1      26.836   2.671  51.337  0.00  0.00    +0.000 C 
BRANCH  26  27
ATOM     27  C   UNL     1      26.655   1.181  51.642  0.00  0.00    +0.000 C 
BRANCH  27  29
ATOM     28  C   UNL     1      24.841   1.907  53.236  0.00  0.00    +0.000 C 
ATOM     29  C   UNL     1      25.261   0.879  52.196  0.00  0.00    +0.000 C 
ENDBRANCH  27  29
ENDBRANCH  26  27
ENDBRANCH  25  26
ENDBRANCH  24  25
ENDBRANCH  20  24
ENDBRANCH   1  20
TORSDOF 9
ENDMDL
MODEL 3
REMARK VINA RESULT:    -7.263      2.824      7.240
REMARK INTER + INTRA:         -12.808
REMARK INTER:                 -11.514
REMARK INTRA:                  -1.294
REMARK UNBOUND:                -1.723
REMARK  Name = 
REMARK  10 active torsions:
REMARK  status: ('A' for Active; 'I' for Inactive)
REMARK    1  A    between atoms: C_1  and  C_2
REMARK    2  A    between atoms: C_2  and  C_3
REMARK    3  A    between atoms: C_3  and  C_4
REMARK    4  A    between atoms: C_4  and  C_5
REMARK    5  A    between atoms: C_5  and  C_6
REMARK    6  A    between atoms: C_6  and  C_7
REMARK    7  A    between atoms: C_7  and  C_8
REMARK    8  A    between atoms: C_7  and  N_11
REMARK    9  A    between atoms: C_16  and  C_17
REMARK   10  A    between atoms: C_22  and  S_23
REMARK                            x       y       z     vdW  Elec       q    Type
REMARK                         _______ _______ _______ _____ _____    ______ ____
ROOT
ATOM      1  N   UNL     1      23.560   5.004  49.341  0.00  0.00    +0.000 N 
ATOM      2  C   UNL     1      23.091   4.264  48.288  0.00  0.00    +0.000 A 
ATOM      3  N   UNL     1      22.839   3.027  48.639  0.00  0.00    +0.000 NA
ATOM      4  C   UNL     1      23.146   2.967  49.973  0.00  0.00    +0.000 A 
ATOM      5  C   UNL     1      23.101   1.868  50.840  0.00  0.00    +0.000 A 
ATOM      6  C   UNL     1      23.405   2.005  52.204  0.00  0.00    +0.000 A 
ATOM      7  C   UNL     1      23.813   3.289  52.640  0.00  0.00    +0.000 A 
ATOM      8  C   UNL     1      23.942   4.393  51.783  0.00  0.00    +0.000 A 
ATOM      9  C   UNL     1      23.582   4.195  50.450  0.00  0.00    +0.000 A 
ENDROOT
BRANCH   6  10
ATOM     10  C   UNL     1      23.400   0.843  53.142  0.00  0.00    +0.000 A 
ATOM     11  C   UNL     1      22.138   0.404  53.623  0.00  0.00    +0.000 A 
ATOM     12  C   UNL     1      21.995  -0.641  54.540  0.00  0.00    +0.000 A 
ATOM     13  C   UNL     1      23.119  -1.290  55.021  0.00  0.00    +0.000 A 
ATOM     14  C   UNL     1      24.378  -0.897  54.578  0.00  0.00    +0.000 A 
ATOM     15  C   UNL     1      24.528   0.152  53.653  0.00  0.00    +0.000 A 
BRANCH  15  16
ATOM     16  S   UNL     1      26.211   0.540  53.210  0.00  0.00    +0.000 S 
ATOM     17  O   UNL     1      26.383   0.439  51.784  0.00  0.00    +0.000 OA
ATOM     18  O   UNL     1      26.593   1.721  53.961  0.00  0.00    +0.000 OA
ATOM     19  O   UNL     1      27.122  -0.637  53.840  0.00  0.00    +0.000 OA
ENDBRANCH  15  16
ENDBRANCH   6  10
BRANCH   1  20
ATOM     20  C   UNL     1      23.940   6.406  49.302  0.00  0.00    +0.000 C 
BRANCH  20  21
ATOM     21  C   UNL     1      23.058   7.215  50.229  0.00  0.00    +0.000 C 
ATOM     22  O   UNL     1      21.838   7.195  50.287  0.00  0.00    +0.000 OA
ATOM     23  O   UNL     1      23.761   8.022  51.053  0.00  0.00    +0.000 OA
ENDBRANCH  20  21
BRANCH  20  24
ATOM     24  C   UNL     1      25.428   6.634  49.609  0.00  0.00    +0.000 C 
BRANCH  24  25
ATOM     25  C   UNL     1      26.333   6.254  48.428  0.00  0.00    +0.000 C 
BRANCH  25  26
ATOM     26  C   UNL     1      27.213   5.043  48.750  0.00  0.00    +0.000 C 
BRANCH  26  27
ATOM     27  C   UNL     1      28.675   5.309  48.382  0.00  0.00    +0.000 C 
BRANCH  27  29
ATOM     28  C   UNL     1      29.943   7.489  48.410  0.00  0.00    +0.000 C 
ATOM     29  C   UNL     1      28.855   6.678  47.722  0.00  0.00    +0.000 C 
ENDBRANCH  27  29
ENDBRANCH  26  27
ENDBRANCH  25  26
ENDBRANCH  24  25
ENDBRANCH  20  24
ENDBRANCH   1  20
TORSDOF 9
ENDMDL
MODEL 4
REMARK VINA RESULT:    -7.235      2.857      6.993
REMARK INTER + INTRA:         -12.765
REMARK INTER:                 -10.813
REMARK INTRA:                  -1.952
REMARK UNBOUND:                -1.723
REMARK  Name = 
REMARK  10 active torsions:
REMARK  status: ('A' for Active; 'I' for Inactive)
REMARK    1  A    between atoms: C_1  and  C_2
REMARK    2  A    between atoms: C_2  and  C_3
REMARK    3  A    between atoms: C_3  and  C_4
REMARK    4  A    between atoms: C_4  and  C_5
REMARK    5  A    between atoms: C_5  and  C_6
REMARK    6  A    between atoms: C_6  and  C_7
REMARK    7  A    between atoms: C_7  and  C_8
REMARK    8  A    between atoms: C_7  and  N_11
REMARK    9  A    between atoms: C_16  and  C_17
REMARK   10  A    between atoms: C_22  and  S_23
REMARK                            x       y       z     vdW  Elec       q    Type
REMARK                         _______ _______ _______ _____ _____    ______ ____
ROOT
ATOM      1  N   UNL     1      22.709   4.502  49.095  0.00  0.00    +0.000 N 
ATOM      2  C   UNL     1      22.591   3.630  48.046  0.00  0.00    +0.000 A 
ATOM      3  N   UNL     1      22.570   2.384  48.454  0.00  0.00    +0.000 NA
ATOM      4  C   UNL     1      22.666   2.454  49.818  0.00  0.00    +0.000 A 
ATOM      5  C   UNL     1      22.732   1.414  50.753  0.00  0.00    +0.000 A 
ATOM      6  C   UNL     1      22.777   1.676  52.131  0.00  0.00    +0.000 A 
ATOM      7  C   UNL     1      22.813   3.037  52.520  0.00  0.00    +0.000 A 
ATOM      8  C   UNL     1      22.826   4.103  51.607  0.00  0.00    +0.000 A 
ATOM      9  C   UNL     1      22.736   3.769  50.256  0.00  0.00    +0.000 A 
ENDROOT
BRANCH   6  10
ATOM     10  C   UNL     1      22.884   0.587  53.147  0.00  0.00    +0.000 A 
ATOM     11  C   UNL     1      21.670   0.035  53.637  0.00  0.00    +0.000 A 
ATOM     12  C   UNL     1      21.625  -0.956  54.620  0.00  0.00    +0.000 A 
ATOM     13  C   UNL     1      22.806  -1.435  55.163  0.00  0.00    +0.000 A 
ATOM     14  C   UNL     1      24.021  -0.929  54.715  0.00  0.00    +0.000 A 
ATOM     15  C   UNL     1      24.071   0.067  53.722  0.00  0.00    +0.000 A 
BRANCH  15  16
ATOM     16  S   UNL     1      25.708   0.619  53.282  0.00  0.00    +0.000 S 
ATOM     17  O   UNL     1      25.992   0.281  51.912  0.00  0.00    +0.000 OA
ATOM     18  O   UNL     1      25.865   1.964  53.804  0.00  0.00    +0.000 OA
ATOM     19  O   UNL     1      26.731  -0.266  54.166  0.00  0.00    +0.000 OA
ENDBRANCH  15  16
ENDBRANCH   6  10
BRANCH   1  20
ATOM     20  C   UNL     1      22.767   5.952  49.002  0.00  0.00    +0.000 C 
BRANCH  20  21
ATOM     21  C   UNL     1      21.608   6.573  49.753  0.00  0.00    +0.000 C 
ATOM     22  O   UNL     1      21.671   7.318  50.718  0.00  0.00    +0.000 OA
ATOM     23  O   UNL     1      20.406   6.222  49.247  0.00  0.00    +0.000 OA
ENDBRANCH  20  21
BRANCH  20  24
ATOM     24  C   UNL     1      24.110   6.531  49.472  0.00  0.00    +0.000 C 
BRANCH  24  25
ATOM     25  C   UNL     1      25.246   6.253  48.477  0.00  0.00    +0.000 C 
BRANCH  25  26
ATOM     26  C   UNL     1      26.600   6.122  49.179  0.00  0.00    +0.000 C 
BRANCH  26  27
ATOM     27  C   UNL     1      27.299   4.816  48.791  0.00  0.00    +0.000 C 
BRANCH  27  29
ATOM     28  C   UNL     1      26.364   3.446  50.692  0.00  0.00    +0.000 C 
ATOM     29  C   UNL     1      26.470   3.590  49.181  0.00  0.00    +0.000 C 
ENDBRANCH  27  29
ENDBRANCH  26  27
ENDBRANCH  25  26
ENDBRANCH  24  25
ENDBRANCH  20  24
ENDBRANCH   1  20
TORSDOF 9
ENDMDL
MODEL 5
REMARK VINA RESULT:    -7.210      3.046      7.784
REMARK INTER + INTRA:         -12.727
REMARK INTER:                 -11.559
REMARK INTRA:                  -1.168
REMARK UNBOUND:                -1.723
REMARK  Name = 
REMARK  10 active torsions:
REMARK  status: ('A' for Active; 'I' for Inactive)
REMARK    1  A    between atoms: C_1  and  C_2
REMARK    2  A    between atoms: C_2  and  C_3
REMARK    3  A    between atoms: C_3  and  C_4
REMARK    4  A    between atoms: C_4  and  C_5
REMARK    5  A    between atoms: C_5  and  C_6
REMARK    6  A    between atoms: C_6  and  C_7
REMARK    7  A    between atoms: C_7  and  C_8
REMARK    8  A    between atoms: C_7  and  N_11
REMARK    9  A    between atoms: C_16  and  C_17
REMARK   10  A    between atoms: C_22  and  S_23
REMARK                            x       y       z     vdW  Elec       q    Type
REMARK                         _______ _______ _______ _____ _____    ______ ____
ROOT
ATOM      1  N   UNL     1      24.392   5.461  50.049  0.00  0.00    +0.000 N 
ATOM      2  C   UNL     1      24.189   6.371  51.051  0.00  0.00    +0.000 A 
ATOM      3  N   UNL     1      23.738   5.798  52.140  0.00  0.00    +0.000 NA
ATOM      4  C   UNL     1      23.657   4.466  51.834  0.00  0.00    +0.000 A 
ATOM      5  C   UNL     1      23.196   3.405  52.623  0.00  0.00    +0.000 A 
ATOM      6  C   UNL     1      23.234   2.081  52.157  0.00  0.00    +0.000 A 
ATOM      7  C   UNL     1      23.705   1.884  50.836  0.00  0.00    +0.000 A 
ATOM      8  C   UNL     1      24.103   2.932  49.992  0.00  0.00    +0.000 A 
ATOM      9  C   UNL     1      24.079   4.216  50.536  0.00  0.00    +0.000 A 
ENDROOT
BRANCH   6  10
ATOM     10  C   UNL     1      22.716   0.937  52.964  0.00  0.00    +0.000 A 
ATOM     11  C   UNL     1      21.305   0.789  53.049  0.00  0.00    +0.000 A 
ATOM     12  C   UNL     1      20.688  -0.209  53.807  0.00  0.00    +0.000 A 
ATOM     13  C   UNL     1      21.465  -1.104  54.523  0.00  0.00    +0.000 A 
ATOM     14  C   UNL     1      22.851  -1.002  54.472  0.00  0.00    +0.000 A 
ATOM     15  C   UNL     1      23.477  -0.000  53.707  0.00  0.00    +0.000 A 
BRANCH  15  16
ATOM     16  S   UNL     1      25.259   0.001  53.771  0.00  0.00    +0.000 S 
ATOM     17  O   UNL     1      25.790  -0.886  52.769  0.00  0.00    +0.000 OA
ATOM     18  O   UNL     1      25.685   1.382  53.896  0.00  0.00    +0.000 OA
ATOM     19  O   UNL     1      25.656  -0.662  55.190  0.00  0.00    +0.000 OA
ENDBRANCH  15  16
ENDBRANCH   6  10
BRANCH   1  20
ATOM     20  C   UNL     1      24.881   5.754  48.711  0.00  0.00    +0.000 C 
BRANCH  20  21
ATOM     21  C   UNL     1      24.030   6.828  48.065  0.00  0.00    +0.000 C 
ATOM     22  O   UNL     1      22.838   6.767  47.811  0.00  0.00    +0.000 OA
ATOM     23  O   UNL     1      24.730   7.944  47.767  0.00  0.00    +0.000 OA
ENDBRANCH  20  21
BRANCH  20  24
ATOM     24  C   UNL     1      26.370   6.131  48.684  0.00  0.00    +0.000 C 
BRANCH  24  25
ATOM     25  C   UNL     1      27.285   4.899  48.708  0.00  0.00    +0.000 C 
BRANCH  25  26
ATOM     26  C   UNL     1      28.726   5.250  48.327  0.00  0.00    +0.000 C 
BRANCH  26  27
ATOM     27  C   UNL     1      28.837   6.708  47.873  0.00  0.00    +0.000 C 
BRANCH  27  29
ATOM     28  C   UNL     1      29.762   8.770  48.992  0.00  0.00    +0.000 C 
ATOM     29  C   UNL     1      30.083   7.388  48.445  0.00  0.00    +0.000 C 
ENDBRANCH  27  29
ENDBRANCH  26  27
ENDBRANCH  25  26
ENDBRANCH  24  25
ENDBRANCH  20  24
ENDBRANCH   1  20
TORSDOF 9
ENDMDL
MODEL 6
REMARK VINA RESULT:    -7.185      3.010      7.499
REMARK INTER + INTRA:         -12.688
REMARK INTER:                 -10.230
REMARK INTRA:                  -2.458
REMARK UNBOUND:                -1.723
REMARK  Name = 
REMARK  10 active torsions:
REMARK  status: ('A' for Active; 'I' for Inactive)
REMARK    1  A    between atoms: C_1  and  C_2
REMARK    2  A    between atoms: C_2  and  C_3
REMARK    3  A    between atoms: C_3  and  C_4
REMARK    4  A    between atoms: C_4  and  C_5
REMARK    5  A    between atoms: C_5  and  C_6
REMARK    6  A    between atoms: C_6  and  C_7
REMARK    7  A    between atoms: C_7  and  C_8
REMARK    8  A    between atoms: C_7  and  N_11
REMARK    9  A    between atoms: C_16  and  C_17
REMARK   10  A    between atoms: C_22  and  S_23
REMARK                            x       y       z     vdW  Elec       q    Type
REMARK                         _______ _______ _______ _____ _____    ______ ____
ROOT
ATOM      1  N   UNL     1      23.567   3.985  50.661  0.00  0.00    +0.000 N 
ATOM      2  C   UNL     1      23.338   4.902  51.651  0.00  0.00    +0.000 A 
ATOM      3  N   UNL     1      22.421   4.489  52.492  0.00  0.00    +0.000 NA
ATOM      4  C   UNL     1      22.051   3.252  52.034  0.00  0.00    +0.000 A 
ATOM      5  C   UNL     1      21.075   2.383  52.534  0.00  0.00    +0.000 A 
ATOM      6  C   UNL     1      20.865   1.118  51.961  0.00  0.00    +0.000 A 
ATOM      7  C   UNL     1      21.645   0.796  50.824  0.00  0.00    +0.000 A 
ATOM      8  C   UNL     1      22.577   1.675  50.251  0.00  0.00    +0.000 A 
ATOM      9  C   UNL     1      22.764   2.896  50.898  0.00  0.00    +0.000 A 
ENDROOT
BRANCH   6  10
ATOM     10  C   UNL     1      19.806   0.187  52.452  0.00  0.00    +0.000 A 
ATOM     11  C   UNL     1      20.210  -0.841  53.346  0.00  0.00    +0.000 A 
ATOM     12  C   UNL     1      19.331  -1.806  53.845  0.00  0.00    +0.000 A 
ATOM     13  C   UNL     1      18.001  -1.785  53.459  0.00  0.00    +0.000 A 
ATOM     14  C   UNL     1      17.556  -0.798  52.587  0.00  0.00    +0.000 A 
ATOM     15  C   UNL     1      18.437   0.178  52.085  0.00  0.00    +0.000 A 
BRANCH  15  16
ATOM     16  S   UNL     1      17.706   1.354  50.961  0.00  0.00    +0.000 S 
ATOM     17  O   UNL     1      17.665   2.659  51.568  0.00  0.00    +0.000 OA
ATOM     18  O   UNL     1      18.287   1.119  49.653  0.00  0.00    +0.000 OA
ATOM     19  O   UNL     1      16.162   0.909  50.790  0.00  0.00    +0.000 OA
ENDBRANCH  15  16
ENDBRANCH   6  10
BRANCH   1  20
ATOM     20  C   UNL     1      24.513   4.123  49.566  0.00  0.00    +0.000 C 
BRANCH  20  21
ATOM     21  C   UNL     1      24.199   5.363  48.755  0.00  0.00    +0.000 C 
ATOM     22  O   UNL     1      24.850   6.395  48.707  0.00  0.00    +0.000 OA
ATOM     23  O   UNL     1      23.064   5.244  48.032  0.00  0.00    +0.000 OA
ENDBRANCH  20  21
BRANCH  20  24
ATOM     24  C   UNL     1      25.977   4.117  50.031  0.00  0.00    +0.000 C 
BRANCH  24  25
ATOM     25  C   UNL     1      26.521   2.695  50.233  0.00  0.00    +0.000 C 
BRANCH  25  26
ATOM     26  C   UNL     1      26.581   2.312  51.713  0.00  0.00    +0.000 C 
BRANCH  26  27
ATOM     27  C   UNL     1      25.819   1.010  51.979  0.00  0.00    +0.000 C 
BRANCH  27  29
ATOM     28  C   UNL     1      24.098  -0.144  53.416  0.00  0.00    +0.000 C 
ATOM     29  C   UNL     1      24.921   1.119  53.213  0.00  0.00    +0.000 C 
ENDBRANCH  27  29
ENDBRANCH  26  27
ENDBRANCH  25  26
ENDBRANCH  24  25
ENDBRANCH  20  24
ENDBRANCH   1  20
TORSDOF 9
ENDMDL
MODEL 7
REMARK VINA RESULT:    -6.964      3.147      6.190
REMARK INTER + INTRA:         -12.352
REMARK INTER:                 -11.332
REMARK INTRA:                  -1.020
REMARK UNBOUND:                -1.723
REMARK  Name = 
REMARK  10 active torsions:
REMARK  status: ('A' for Active; 'I' for Inactive)
REMARK    1  A    between atoms: C_1  and  C_2
REMARK    2  A    between atoms: C_2  and  C_3
REMARK    3  A    between atoms: C_3  and  C_4
REMARK    4  A    between atoms: C_4  and  C_5
REMARK    5  A    between atoms: C_5  and  C_6
REMARK    6  A    between atoms: C_6  and  C_7
REMARK    7  A    between atoms: C_7  and  C_8
REMARK    8  A    between atoms: C_7  and  N_11
REMARK    9  A    between atoms: C_16  and  C_17
REMARK   10  A    between atoms: C_22  and  S_23
REMARK                            x       y       z     vdW  Elec       q    Type
REMARK                         _______ _______ _______ _____ _____    ______ ____
ROOT
ATOM      1  N   UNL     1      22.021   1.744  51.936  0.00  0.00    +0.000 N 
ATOM      2  C   UNL     1      21.381   1.105  52.964  0.00  0.00    +0.000 A 
ATOM      3  N   UNL     1      22.197   0.327  53.633  0.00  0.00    +0.000 NA
ATOM      4  C   UNL     1      23.413   0.476  53.020  0.00  0.00    +0.000 A 
ATOM      5  C   UNL     1      24.627  -0.160  53.304  0.00  0.00    +0.000 A 
ATOM      6  C   UNL     1      25.798   0.159  52.596  0.00  0.00    +0.000 A 
ATOM      7  C   UNL     1      25.673   1.106  51.551  0.00  0.00    +0.000 A 
ATOM      8  C   UNL     1      24.455   1.704  51.190  0.00  0.00    +0.000 A 
ATOM      9  C   UNL     1      23.343   1.373  51.964  0.00  0.00    +0.000 A 
ENDROOT
BRANCH   6  10
ATOM     10  C   UNL     1      27.097  -0.529  52.855  0.00  0.00    +0.000 A 
ATOM     11  C   UNL     1      27.150  -1.928  52.613  0.00  0.00    +0.000 A 
ATOM     12  C   UNL     1      28.288  -2.701  52.856  0.00  0.00    +0.000 A 
ATOM     13  C   UNL     1      29.428  -2.101  53.363  0.00  0.00    +0.000 A 
ATOM     14  C   UNL     1      29.428  -0.733  53.615  0.00  0.00    +0.000 A 
ATOM     15  C   UNL     1      28.285   0.050  53.368  0.00  0.00    +0.000 A 
BRANCH  15  16
ATOM     16  S   UNL     1      28.449   1.780  53.769  0.00  0.00    +0.000 S 
ATOM     17  O   UNL     1      29.493   1.965  54.742  0.00  0.00    +0.000 OA
ATOM     18  O   UNL     1      28.405   2.518  52.520  0.00  0.00    +0.000 OA
ATOM     19  O   UNL     1      27.079   2.197  54.519  0.00  0.00    +0.000 OA
ENDBRANCH  15  16
ENDBRANCH   6  10
BRANCH   1  20
ATOM     20  C   UNL     1      21.417   2.673  50.995  0.00  0.00    +0.000 C 
BRANCH  20  21
ATOM     21  C   UNL     1      19.908   2.650  51.132  0.00  0.00    +0.000 C 
ATOM     22  O   UNL     1      19.235   3.253  51.953  0.00  0.00    +0.000 OA
ATOM     23  O   UNL     1      19.310   1.860  50.214  0.00  0.00    +0.000 OA
ENDBRANCH  20  21
BRANCH  20  24
ATOM     24  C   UNL     1      21.967   4.101  51.124  0.00  0.00    +0.000 C 
BRANCH  24  25
ATOM     25  C   UNL     1      22.583   4.610  49.814  0.00  0.00    +0.000 C 
BRANCH  25  26
ATOM     26  C   UNL     1      23.829   5.464  50.063  0.00  0.00    +0.000 C 
BRANCH  26  27
ATOM     27  C   UNL     1      24.908   5.186  49.012  0.00  0.00    +0.000 C 
BRANCH  27  29
ATOM     28  C   UNL     1      27.374   4.709  48.781  0.00  0.00    +0.000 C 
ATOM     29  C   UNL     1      26.124   4.483  49.619  0.00  0.00    +0.000 C 
ENDBRANCH  27  29
ENDBRANCH  26  27
ENDBRANCH  25  26
ENDBRANCH  24  25
ENDBRANCH  20  24
ENDBRANCH   1  20
TORSDOF 9
ENDMDL
MODEL 8
REMARK VINA RESULT:    -6.961      3.351      6.306
REMARK INTER + INTRA:         -12.346
REMARK INTER:                 -10.874
REMARK INTRA:                  -1.472
REMARK UNBOUND:                -1.723
REMARK  Name = 
REMARK  10 active torsions:
REMARK  status: ('A' for Active; 'I' for Inactive)
REMARK    1  A    between atoms: C_1  and  C_2
REMARK    2  A    between atoms: C_2  and  C_3
REMARK    3  A    between atoms: C_3  and  C_4
REMARK    4  A    between atoms: C_4  and  C_5
REMARK    5  A    between atoms: C_5  and  C_6
REMARK    6  A    between atoms: C_6  and  C_7
REMARK    7  A    between atoms: C_7  and  C_8
REMARK    8  A    between atoms: C_7  and  N_11
REMARK    9  A    between atoms: C_16  and  C_17
REMARK   10  A    between atoms: C_22  and  S_23
REMARK                            x       y       z     vdW  Elec       q    Type
REMARK                         _______ _______ _______ _____ _____    ______ ____
ROOT
ATOM      1  N   UNL     1      22.978   3.477  51.024  0.00  0.00    +0.000 N 
ATOM      2  C   UNL     1      23.659   3.985  49.950  0.00  0.00    +0.000 A 
ATOM      3  N   UNL     1      24.829   3.411  49.804  0.00  0.00    +0.000 NA
ATOM      4  C   UNL     1      24.902   2.490  50.814  0.00  0.00    +0.000 A 
ATOM      5  C   UNL     1      25.955   1.631  51.150  0.00  0.00    +0.000 A 
ATOM      6  C   UNL     1      25.833   0.706  52.200  0.00  0.00    +0.000 A 
ATOM      7  C   UNL     1      24.622   0.730  52.933  0.00  0.00    +0.000 A 
ATOM      8  C   UNL     1      23.577   1.631  52.672  0.00  0.00    +0.000 A 
ATOM      9  C   UNL     1      23.750   2.491  51.588  0.00  0.00    +0.000 A 
ENDROOT
BRANCH   6  10
ATOM     10  C   UNL     1      26.953  -0.196  52.601  0.00  0.00    +0.000 A 
ATOM     11  C   UNL     1      26.846  -1.565  52.235  0.00  0.00    +0.000 A 
ATOM     12  C   UNL     1      27.799  -2.524  52.586  0.00  0.00    +0.000 A 
ATOM     13  C   UNL     1      28.905  -2.150  53.331  0.00  0.00    +0.000 A 
ATOM     14  C   UNL     1      29.056  -0.821  53.712  0.00  0.00    +0.000 A 
ATOM     15  C   UNL     1      28.100   0.149  53.358  0.00  0.00    +0.000 A 
BRANCH  15  16
ATOM     16  S   UNL     1      28.438   1.798  53.947  0.00  0.00    +0.000 S 
ATOM     17  O   UNL     1      27.222   2.418  54.404  0.00  0.00    +0.000 OA
ATOM     18  O   UNL     1      29.634   1.727  54.765  0.00  0.00    +0.000 OA
ATOM     19  O   UNL     1      28.898   2.650  52.653  0.00  0.00    +0.000 OA
ENDBRANCH  15  16
ENDBRANCH   6  10
BRANCH   1  20
ATOM     20  C   UNL     1      21.658   3.888  51.474  0.00  0.00    +0.000 C 
BRANCH  20  21
ATOM     21  C   UNL     1      21.360   5.298  51.008  0.00  0.00    +0.000 C 
ATOM     22  O   UNL     1      21.914   6.325  51.371  0.00  0.00    +0.000 OA
ATOM     23  O   UNL     1      20.367   5.351  50.095  0.00  0.00    +0.000 OA
ENDBRANCH  20  21
BRANCH  20  24
ATOM     24  C   UNL     1      20.548   2.915  51.050  0.00  0.00    +0.000 C 
BRANCH  24  25
ATOM     25  C   UNL     1      20.032   2.069  52.222  0.00  0.00    +0.000 C 
BRANCH  25  26
ATOM     26  C   UNL     1      19.793   0.613  51.815  0.00  0.00    +0.000 C 
BRANCH  26  27
ATOM     27  C   UNL     1      19.837  -0.316  53.032  0.00  0.00    +0.000 C 
BRANCH  27  29
ATOM     28  C   UNL     1      21.579  -0.574  54.836  0.00  0.00    +0.000 C 
ATOM     29  C   UNL     1      20.531   0.343  54.225  0.00  0.00    +0.000 C 
ENDBRANCH  27  29
ENDBRANCH  26  27
ENDBRANCH  25  26
ENDBRANCH  24  25
ENDBRANCH  20  24
ENDBRANCH   1  20
TORSDOF 9
ENDMDL
MODEL 9
REMARK VINA RESULT:    -6.794      2.536      7.012
REMARK INTER + INTRA:         -12.092
REMARK INTER:                 -10.353
REMARK INTRA:                  -1.739
REMARK UNBOUND:                -1.723
REMARK  Name = 
REMARK  10 active torsions:
REMARK  status: ('A' for Active; 'I' for Inactive)
REMARK    1  A    between atoms: C_1  and  C_2
REMARK    2  A    between atoms: C_2  and  C_3
REMARK    3  A    between atoms: C_3  and  C_4
REMARK    4  A    between atoms: C_4  and  C_5
REMARK    5  A    between atoms: C_5  and  C_6
REMARK    6  A    between atoms: C_6  and  C_7
REMARK    7  A    between atoms: C_7  and  C_8
REMARK    8  A    between atoms: C_7  and  N_11
REMARK    9  A    between atoms: C_16  and  C_17
REMARK   10  A    between atoms: C_22  and  S_23
REMARK                            x       y       z     vdW  Elec       q    Type
REMARK                         _______ _______ _______ _____ _____    ______ ____
ROOT
ATOM      1  N   UNL     1      22.529   5.117  48.694  0.00  0.00    +0.000 N 
ATOM      2  C   UNL     1      22.367   4.242  47.654  0.00  0.00    +0.000 A 
ATOM      3  N   UNL     1      22.511   2.998  48.041  0.00  0.00    +0.000 NA
ATOM      4  C   UNL     1      22.764   3.071  49.385  0.00  0.00    +0.000 A 
ATOM      5  C   UNL     1      23.038   2.037  50.288  0.00  0.00    +0.000 A 
ATOM      6  C   UNL     1      23.224   2.296  51.656  0.00  0.00    +0.000 A 
ATOM      7  C   UNL     1      23.180   3.652  52.059  0.00  0.00    +0.000 A 
ATOM      8  C   UNL     1      22.984   4.719  51.168  0.00  0.00    +0.000 A 
ATOM      9  C   UNL     1      22.763   4.384  49.832  0.00  0.00    +0.000 A 
ENDROOT
BRANCH   6  10
ATOM     10  C   UNL     1      23.553   1.217  52.633  0.00  0.00    +0.000 A 
ATOM     11  C   UNL     1      24.919   1.056  52.988  0.00  0.00    +0.000 A 
ATOM     12  C   UNL     1      25.369   0.058  53.856  0.00  0.00    +0.000 A 
ATOM     13  C   UNL     1      24.462  -0.834  54.402  0.00  0.00    +0.000 A 
ATOM     14  C   UNL     1      23.112  -0.718  54.088  0.00  0.00    +0.000 A 
ATOM     15  C   UNL     1      22.654   0.289  53.217  0.00  0.00    +0.000 A 
BRANCH  15  16
ATOM     16  S   UNL     1      20.899   0.280  52.904  0.00  0.00    +0.000 S 
ATOM     17  O   UNL     1      20.648   0.081  51.500  0.00  0.00    +0.000 OA
ATOM     18  O   UNL     1      20.281  -0.536  53.931  0.00  0.00    +0.000 OA
ATOM     19  O   UNL     1      20.380   1.776  53.227  0.00  0.00    +0.000 OA
ENDBRANCH  15  16
ENDBRANCH   6  10
BRANCH   1  20
ATOM     20  C   UNL     1      22.440   6.566  48.618  0.00  0.00    +0.000 C 
BRANCH  20  21
ATOM     21  C   UNL     1      21.302   7.068  49.482  0.00  0.00    +0.000 C 
ATOM     22  O   UNL     1      21.382   7.829  50.434  0.00  0.00    +0.000 OA
ATOM     23  O   UNL     1      20.100   6.584  49.102  0.00  0.00    +0.000 OA
ENDBRANCH  20  21
BRANCH  20  24
ATOM     24  C   UNL     1      23.760   7.268  48.971  0.00  0.00    +0.000 C 
BRANCH  24  25
ATOM     25  C   UNL     1      24.734   7.311  47.786  0.00  0.00    +0.000 C 
BRANCH  25  26
ATOM     26  C   UNL     1      26.149   6.892  48.194  0.00  0.00    +0.000 C 
BRANCH  26  27
ATOM     27  C   UNL     1      26.114   5.834  49.301  0.00  0.00    +0.000 C 
BRANCH  27  29
ATOM     28  C   UNL     1      26.461   3.354  49.598  0.00  0.00    +0.000 C 
ATOM     29  C   UNL     1      26.995   4.629  48.964  0.00  0.00    +0.000 C 
ENDBRANCH  27  29
ENDBRANCH  26  27
ENDBRANCH  25  26
ENDBRANCH  24  25
ENDBRANCH  20  24
ENDBRANCH   1  20
TORSDOF 9
ENDMDL
