MODEL 1
REMARK VINA RESULT:   -10.013      0.000      0.000
REMARK INTER + INTRA:         -13.402
REMARK INTER:                 -12.647
REMARK INTRA:                  -0.755
REMARK UNBOUND:                -0.755
REMARK  Name = 
REMARK  5 active torsions:
REMARK  status: ('A' for Active; 'I' for Inactive)
REMARK    1  A    between atoms: O_1  and  C_2
REMARK    2  A    between atoms: C_2  and  C_3
REMARK    3  A    between atoms: C_6  and  C_7
REMARK    4  A    between atoms: C_9  and  C_10
REMARK    5  A    between atoms: C_16  and  C_17
REMARK                            x       y       z     vdW  Elec       q    Type
REMARK                         _______ _______ _______ _____ _____    ______ ____
ROOT
ATOM      1  C   UNL     1      22.883   1.267  51.765  0.00  0.00    +0.000 A 
ATOM      2  N   UNL     1      23.196   2.353  51.086  0.00  0.00    +0.000 NA
ATOM      3  C   UNL     1      24.574   2.470  51.148  0.00  0.00    +0.000 A 
ATOM      4  C   UNL     1      25.115   1.480  51.963  0.00  0.00    +0.000 A 
ATOM      5  N   UNL     1      24.021   0.713  52.301  0.00  0.00    +0.000 N 
ATOM      6  H   UNL     1      24.051  -0.108  52.843  0.00  0.00    +0.000 HD
ENDROOT
BRANCH   4   7
ATOM      7  C   UNL     1      26.469   1.207  52.462  0.00  0.00    +0.000 A 
ATOM      8  C   UNL     1      27.243   2.230  53.061  0.00  0.00    +0.000 A 
ATOM      9  C   UNL     1      28.505   1.960  53.610  0.00  0.00    +0.000 A 
ATOM     10  C   UNL     1      28.950   0.657  53.582  0.00  0.00    +0.000 A 
ATOM     11  C   UNL     1      28.222  -0.340  52.985  0.00  0.00    +0.000 A 
ATOM     12  C   UNL     1      27.007  -0.088  52.384  0.00  0.00    +0.000 A 
ATOM     13  O   UNL     1      28.815  -1.557  53.098  0.00  0.00    +0.000 OA
ATOM     14  C   UNL     1      29.902  -1.231  53.986  0.00  0.00    +0.000 C 
ATOM     15  O   UNL     1      30.100   0.190  54.138  0.00  0.00    +0.000 OA
ENDBRANCH   4   7
BRANCH   1  19
ATOM     16  C   UNL     1      18.947  -0.311  52.476  0.00  0.00    +0.000 A 
ATOM     17  C   UNL     1      19.259   0.273  51.242  0.00  0.00    +0.000 A 
ATOM     18  C   UNL     1      20.540   0.791  51.000  0.00  0.00    +0.000 A 
ATOM     19  C   UNL     1      21.534   0.735  51.987  0.00  0.00    +0.000 A 
ATOM     20  C   UNL     1      21.214   0.159  53.223  0.00  0.00    +0.000 A 
ATOM     21  C   UNL     1      19.940  -0.365  53.464  0.00  0.00    +0.000 A 
BRANCH  16  22
ATOM     22  C   UNL     1      17.567  -0.840  52.759  0.00  0.00    +0.000 C 
BRANCH  22  23
ATOM     23  O   UNL     1      17.479  -1.330  54.090  0.00  0.00    +0.000 OA
ATOM     24  H   UNL     1      18.027  -2.124  54.178  0.00  0.00    +0.000 HD
ENDBRANCH  22  23
ENDBRANCH  16  22
ENDBRANCH   1  19
BRANCH   3  25
ATOM     25  C   UNL     1      25.297   3.549  50.480  0.00  0.00    +0.000 A 
ATOM     26  C   UNL     1      26.423   3.266  49.715  0.00  0.00    +0.000 A 
ATOM     27  C   UNL     1      27.018   4.296  48.988  0.00  0.00    +0.000 A 
ATOM     28  C   UNL     1      26.478   5.577  49.055  0.00  0.00    +0.000 A 
ATOM     29  C   UNL     1      25.381   5.783  49.868  0.00  0.00    +0.000 A 
ATOM     30  N   UNL     1      24.790   4.805  50.589  0.00  0.00    +0.000 NA
ENDBRANCH   3  25
TORSDOF 5
ENDMDL
MODEL 2
REMARK VINA RESULT:    -9.337      2.639      5.088
REMARK INTER + INTRA:         -12.549
REMARK INTER:                 -11.821
REMARK INTRA:                  -0.728
REMARK UNBOUND:                -0.755
REMARK  Name = 
REMARK  5 active torsions:
REMARK  status: ('A' for Active; 'I' for Inactive)
REMARK    1  A    between atoms: O_1  and  C_2
REMARK    2  A    between atoms: C_2  and  C_3
REMARK    3  A    between atoms: C_6  and  C_7
REMARK    4  A    between atoms: C_9  and  C_10
REMARK    5  A    between atoms: C_16  and  C_17
REMARK                            x       y       z     vdW  Elec       q    Type
REMARK                         _______ _______ _______ _____ _____    ______ ____
ROOT
ATOM      1  C   UNL     1      23.038   1.075  52.248  0.00  0.00    +0.000 A 
ATOM      2  N   UNL     1      24.145   0.580  52.767  0.00  0.00    +0.000 NA
ATOM      3  C   UNL     1      25.173   1.413  52.360  0.00  0.00    +0.000 A 
ATOM      4  C   UNL     1      24.699   2.395  51.495  0.00  0.00    +0.000 A 
ATOM      5  N   UNL     1      23.338   2.175  51.481  0.00  0.00    +0.000 N 
ATOM      6  H   UNL     1      22.681   2.724  50.996  0.00  0.00    +0.000 HD
ENDROOT
BRANCH   4   7
ATOM      7  C   UNL     1      25.349   3.439  50.693  0.00  0.00    +0.000 A 
ATOM      8  C   UNL     1      26.480   3.145  49.893  0.00  0.00    +0.000 A 
ATOM      9  C   UNL     1      27.059   4.118  49.066  0.00  0.00    +0.000 A 
ATOM     10  C   UNL     1      26.466   5.361  49.028  0.00  0.00    +0.000 A 
ATOM     11  C   UNL     1      25.385   5.668  49.813  0.00  0.00    +0.000 A 
ATOM     12  C   UNL     1      24.836   4.747  50.681  0.00  0.00    +0.000 A 
ATOM     13  O   UNL     1      24.928   6.929  49.601  0.00  0.00    +0.000 OA
ATOM     14  C   UNL     1      25.734   7.306  48.468  0.00  0.00    +0.000 C 
ATOM     15  O   UNL     1      26.830   6.398  48.227  0.00  0.00    +0.000 OA
ENDBRANCH   4   7
BRANCH   1  19
ATOM     16  C   UNL     1      19.057  -0.505  52.623  0.00  0.00    +0.000 A 
ATOM     17  C   UNL     1      19.987  -0.689  53.653  0.00  0.00    +0.000 A 
ATOM     18  C   UNL     1      21.288  -0.178  53.541  0.00  0.00    +0.000 A 
ATOM     19  C   UNL     1      21.686   0.528  52.397  0.00  0.00    +0.000 A 
ATOM     20  C   UNL     1      20.755   0.700  51.364  0.00  0.00    +0.000 A 
ATOM     21  C   UNL     1      19.454   0.198  51.478  0.00  0.00    +0.000 A 
BRANCH  16  22
ATOM     22  C   UNL     1      17.668  -1.077  52.718  0.00  0.00    +0.000 C 
BRANCH  22  23
ATOM     23  O   UNL     1      17.258  -1.179  54.074  0.00  0.00    +0.000 OA
ATOM     24  H   UNL     1      16.630  -0.468  54.275  0.00  0.00    +0.000 HD
ENDBRANCH  22  23
ENDBRANCH  16  22
ENDBRANCH   1  19
BRANCH   3  25
ATOM     25  C   UNL     1      26.560   1.199  52.767  0.00  0.00    +0.000 A 
ATOM     26  C   UNL     1      27.318   2.260  53.250  0.00  0.00    +0.000 A 
ATOM     27  C   UNL     1      28.594   2.002  53.748  0.00  0.00    +0.000 A 
ATOM     28  C   UNL     1      29.078   0.697  53.739  0.00  0.00    +0.000 A 
ATOM     29  C   UNL     1      28.276  -0.294  53.208  0.00  0.00    +0.000 A 
ATOM     30  N   UNL     1      27.040  -0.071  52.711  0.00  0.00    +0.000 NA
ENDBRANCH   3  25
TORSDOF 5
ENDMDL
MODEL 3
REMARK VINA RESULT:    -9.198      2.883      7.716
REMARK INTER + INTRA:         -12.374
REMARK INTER:                 -11.730
REMARK INTRA:                  -0.643
REMARK UNBOUND:                -0.755
REMARK  Name = 
REMARK  5 active torsions:
REMARK  status: ('A' for Active; 'I' for Inactive)
REMARK    1  A    between atoms: O_1  and  C_2
REMARK    2  A    between atoms: C_2  and  C_3
REMARK    3  A    between atoms: C_6  and  C_7
REMARK    4  A    between atoms: C_9  and  C_10
REMARK    5  A    between atoms: C_16  and  C_17
REMARK                            x       y       z     vdW  Elec       q    Type
REMARK                         _______ _______ _______ _____ _____    ______ ____
ROOT
ATOM      1  C   UNL     1      25.888   3.663  50.262  0.00  0.00    +0.000 A 
ATOM      2  N   UNL     1      26.809   3.001  50.934  0.00  0.00    +0.000 NA
ATOM      3  C   UNL     1      26.152   1.973  51.588  0.00  0.00    +0.000 A 
ATOM      4  C   UNL     1      24.777   2.059  51.385  0.00  0.00    +0.000 A 
ATOM      5  N   UNL     1      24.652   3.114  50.508  0.00  0.00    +0.000 N 
ATOM      6  H   UNL     1      23.805   3.426  50.116  0.00  0.00    +0.000 HD
ENDROOT
BRANCH   4   7
ATOM      7  C   UNL     1      23.626   1.323  51.922  0.00  0.00    +0.000 A 
ATOM      8  C   UNL     1      22.474   1.095  51.130  0.00  0.00    +0.000 A 
ATOM      9  C   UNL     1      21.403   0.328  51.608  0.00  0.00    +0.000 A 
ATOM     10  C   UNL     1      21.526  -0.233  52.861  0.00  0.00    +0.000 A 
ATOM     11  C   UNL     1      22.625  -0.003  53.648  0.00  0.00    +0.000 A 
ATOM     12  C   UNL     1      23.663   0.799  53.225  0.00  0.00    +0.000 A 
ATOM     13  O   UNL     1      22.570  -0.674  54.828  0.00  0.00    +0.000 OA
ATOM     14  C   UNL     1      21.400  -1.486  54.607  0.00  0.00    +0.000 C 
ATOM     15  O   UNL     1      20.636  -1.073  53.454  0.00  0.00    +0.000 OA
ENDBRANCH   4   7
BRANCH   1  19
ATOM     16  C   UNL     1      26.585   7.110  47.788  0.00  0.00    +0.000 A 
ATOM     17  C   UNL     1      25.300   6.840  48.274  0.00  0.00    +0.000 A 
ATOM     18  C   UNL     1      25.061   5.719  49.082  0.00  0.00    +0.000 A 
ATOM     19  C   UNL     1      26.104   4.844  49.420  0.00  0.00    +0.000 A 
ATOM     20  C   UNL     1      27.385   5.112  48.922  0.00  0.00    +0.000 A 
ATOM     21  C   UNL     1      27.627   6.235  48.123  0.00  0.00    +0.000 A 
BRANCH  16  22
ATOM     22  C   UNL     1      26.846   8.292  46.893  0.00  0.00    +0.000 C 
BRANCH  22  23
ATOM     23  O   UNL     1      28.018   8.982  47.301  0.00  0.00    +0.000 OA
ATOM     24  H   UNL     1      27.783   9.880  47.580  0.00  0.00    +0.000 HD
ENDBRANCH  22  23
ENDBRANCH  16  22
ENDBRANCH   1  19
BRANCH   3  25
ATOM     25  C   UNL     1      26.856   0.999  52.419  0.00  0.00    +0.000 A 
ATOM     26  C   UNL     1      26.774  -0.358  52.127  0.00  0.00    +0.000 A 
ATOM     27  C   UNL     1      27.555  -1.251  52.857  0.00  0.00    +0.000 A 
ATOM     28  C   UNL     1      28.386  -0.766  53.862  0.00  0.00    +0.000 A 
ATOM     29  C   UNL     1      28.382   0.592  54.115  0.00  0.00    +0.000 A 
ATOM     30  N   UNL     1      27.629   1.479  53.428  0.00  0.00    +0.000 NA
ENDBRANCH   3  25
TORSDOF 5
ENDMDL
MODEL 4
REMARK VINA RESULT:    -9.093      2.616      6.948
REMARK INTER + INTRA:         -12.240
REMARK INTER:                 -11.605
REMARK INTRA:                  -0.635
REMARK UNBOUND:                -0.755
REMARK  Name = 
REMARK  5 active torsions:
REMARK  status: ('A' for Active; 'I' for Inactive)
REMARK    1  A    between atoms: O_1  and  C_2
REMARK    2  A    between atoms: C_2  and  C_3
REMARK    3  A    between atoms: C_6  and  C_7
REMARK    4  A    between atoms: C_9  and  C_10
REMARK    5  A    between atoms: C_16  and  C_17
REMARK                            x       y       z     vdW  Elec       q    Type
REMARK                         _______ _______ _______ _____ _____    ______ ____
ROOT
ATOM      1  C   UNL     1      25.621   4.214  50.086  0.00  0.00    +0.000 A 
ATOM      2  N   UNL     1      24.413   3.724  50.284  0.00  0.00    +0.000 NA
ATOM      3  C   UNL     1      24.568   2.622  51.107  0.00  0.00    +0.000 A 
ATOM      4  C   UNL     1      25.917   2.374  51.350  0.00  0.00    +0.000 A 
ATOM      5  N   UNL     1      26.550   3.425  50.723  0.00  0.00    +0.000 N 
ATOM      6  H   UNL     1      27.520   3.587  50.731  0.00  0.00    +0.000 HD
ENDROOT
BRANCH   4   7
ATOM      7  C   UNL     1      26.641   1.298  52.037  0.00  0.00    +0.000 A 
ATOM      8  C   UNL     1      26.199  -0.045  51.955  0.00  0.00    +0.000 A 
ATOM      9  C   UNL     1      26.928  -1.087  52.545  0.00  0.00    +0.000 A 
ATOM     10  C   UNL     1      28.111  -0.766  53.173  0.00  0.00    +0.000 A 
ATOM     11  C   UNL     1      28.541   0.532  53.280  0.00  0.00    +0.000 A 
ATOM     12  C   UNL     1      27.810   1.581  52.763  0.00  0.00    +0.000 A 
ATOM     13  O   UNL     1      29.745   0.633  53.900  0.00  0.00    +0.000 OA
ATOM     14  C   UNL     1      30.097  -0.760  54.004  0.00  0.00    +0.000 C 
ATOM     15  O   UNL     1      28.992  -1.645  53.723  0.00  0.00    +0.000 OA
ENDBRANCH   4   7
BRANCH   1  19
ATOM     16  C   UNL     1      26.567   7.663  47.700  0.00  0.00    +0.000 A 
ATOM     17  C   UNL     1      27.555   6.713  47.987  0.00  0.00    +0.000 A 
ATOM     18  C   UNL     1      27.257   5.585  48.765  0.00  0.00    +0.000 A 
ATOM     19  C   UNL     1      25.965   5.383  49.270  0.00  0.00    +0.000 A 
ATOM     20  C   UNL     1      24.983   6.341  48.989  0.00  0.00    +0.000 A 
ATOM     21  C   UNL     1      25.276   7.464  48.207  0.00  0.00    +0.000 A 
BRANCH  16  22
ATOM     22  C   UNL     1      26.883   8.895  46.894  0.00  0.00    +0.000 C 
BRANCH  22  23
ATOM     23  O   UNL     1      27.930   9.638  47.501  0.00  0.00    +0.000 OA
ATOM     24  H   UNL     1      27.828  10.577  47.282  0.00  0.00    +0.000 HD
ENDBRANCH  22  23
ENDBRANCH  16  22
ENDBRANCH   1  19
BRANCH   3  25
ATOM     25  C   UNL     1      23.433   1.828  51.572  0.00  0.00    +0.000 A 
ATOM     26  C   UNL     1      22.528   1.301  50.659  0.00  0.00    +0.000 A 
ATOM     27  C   UNL     1      21.530   0.444  51.119  0.00  0.00    +0.000 A 
ATOM     28  C   UNL     1      21.459   0.148  52.477  0.00  0.00    +0.000 A 
ATOM     29  C   UNL     1      22.374   0.742  53.324  0.00  0.00    +0.000 A 
ATOM     30  N   UNL     1      23.346   1.582  52.906  0.00  0.00    +0.000 NA
ENDBRANCH   3  25
TORSDOF 5
ENDMDL
MODEL 5
REMARK VINA RESULT:    -8.838      1.483      2.387
REMARK INTER + INTRA:         -11.919
REMARK INTER:                 -11.167
REMARK INTRA:                  -0.751
REMARK UNBOUND:                -0.755
REMARK  Name = 
REMARK  5 active torsions:
REMARK  status: ('A' for Active; 'I' for Inactive)
REMARK    1  A    between atoms: O_1  and  C_2
REMARK    2  A    between atoms: C_2  and  C_3
REMARK    3  A    between atoms: C_6  and  C_7
REMARK    4  A    between atoms: C_9  and  C_10
REMARK    5  A    between atoms: C_16  and  C_17
REMARK                            x       y       z     vdW  Elec       q    Type
REMARK                         _______ _______ _______ _____ _____    ______ ____
ROOT
ATOM      1  C   UNL     1      21.254   0.741  52.116  0.00  0.00    +0.000 A 
ATOM      2  N   UNL     1      21.533   1.899  51.551  0.00  0.00    +0.000 NA
ATOM      3  C   UNL     1      22.898   2.082  51.686  0.00  0.00    +0.000 A 
ATOM      4  C   UNL     1      23.461   1.051  52.434  0.00  0.00    +0.000 A 
ATOM      5  N   UNL     1      22.398   0.201  52.652  0.00  0.00    +0.000 N 
ATOM      6  H   UNL     1      22.452  -0.663  53.120  0.00  0.00    +0.000 HD
ENDROOT
BRANCH   4   7
ATOM      7  C   UNL     1      24.806   0.805  52.969  0.00  0.00    +0.000 A 
ATOM      8  C   UNL     1      25.292  -0.514  53.140  0.00  0.00    +0.000 A 
ATOM      9  C   UNL     1      26.602  -0.756  53.576  0.00  0.00    +0.000 A 
ATOM     10  C   UNL     1      27.415   0.335  53.797  0.00  0.00    +0.000 A 
ATOM     11  C   UNL     1      26.953   1.617  53.657  0.00  0.00    +0.000 A 
ATOM     12  C   UNL     1      25.650   1.881  53.289  0.00  0.00    +0.000 A 
ATOM     13  O   UNL     1      27.917   2.547  53.883  0.00  0.00    +0.000 OA
ATOM     14  C   UNL     1      29.072   1.693  54.000  0.00  0.00    +0.000 C 
ATOM     15  O   UNL     1      28.731   0.297  54.136  0.00  0.00    +0.000 OA
ENDBRANCH   4   7
BRANCH   1  19
ATOM     16  C   UNL     1      17.353  -1.046  52.385  0.00  0.00    +0.000 A 
ATOM     17  C   UNL     1      18.305  -1.280  53.385  0.00  0.00    +0.000 A 
ATOM     18  C   UNL     1      19.580  -0.703  53.307  0.00  0.00    +0.000 A 
ATOM     19  C   UNL     1      19.929   0.121  52.228  0.00  0.00    +0.000 A 
ATOM     20  C   UNL     1      18.977   0.344  51.225  0.00  0.00    +0.000 A 
ATOM     21  C   UNL     1      17.701  -0.225  51.305  0.00  0.00    +0.000 A 
BRANCH  16  22
ATOM     22  C   UNL     1      15.992  -1.688  52.442  0.00  0.00    +0.000 C 
BRANCH  22  23
ATOM     23  O   UNL     1      16.017  -2.848  53.261  0.00  0.00    +0.000 OA
ATOM     24  H   UNL     1      16.655  -3.483  52.902  0.00  0.00    +0.000 HD
ENDBRANCH  22  23
ENDBRANCH  16  22
ENDBRANCH   1  19
BRANCH   3  25
ATOM     25  C   UNL     1      23.587   3.253  51.151  0.00  0.00    +0.000 A 
ATOM     26  C   UNL     1      24.350   3.146  49.994  0.00  0.00    +0.000 A 
ATOM     27  C   UNL     1      24.892   4.303  49.436  0.00  0.00    +0.000 A 
ATOM     28  C   UNL     1      24.664   5.529  50.055  0.00  0.00    +0.000 A 
ATOM     29  C   UNL     1      23.925   5.545  51.222  0.00  0.00    +0.000 A 
ATOM     30  N   UNL     1      23.396   4.438  51.788  0.00  0.00    +0.000 NA
ENDBRANCH   3  25
TORSDOF 5
ENDMDL
MODEL 6
REMARK VINA RESULT:    -8.629      1.898      7.553
REMARK INTER + INTRA:         -11.654
REMARK INTER:                 -10.796
REMARK INTRA:                  -0.858
REMARK UNBOUND:                -0.755
REMARK  Name = 
REMARK  5 active torsions:
REMARK  status: ('A' for Active; 'I' for Inactive)
REMARK    1  A    between atoms: O_1  and  C_2
REMARK    2  A    between atoms: C_2  and  C_3
REMARK    3  A    between atoms: C_6  and  C_7
REMARK    4  A    between atoms: C_9  and  C_10
REMARK    5  A    between atoms: C_16  and  C_17
REMARK                            x       y       z     vdW  Elec       q    Type
REMARK                         _______ _______ _______ _____ _____    ______ ____
ROOT
ATOM      1  C   UNL     1      24.787   0.994  52.226  0.00  0.00    +0.000 A 
ATOM      2  N   UNL     1      24.672   2.210  51.729  0.00  0.00    +0.000 NA
ATOM      3  C   UNL     1      23.318   2.430  51.542  0.00  0.00    +0.000 A 
ATOM      4  C   UNL     1      22.587   1.285  51.847  0.00  0.00    +0.000 A 
ATOM      5  N   UNL     1      23.545   0.412  52.316  0.00  0.00    +0.000 N 
ATOM      6  H   UNL     1      23.365  -0.491  52.663  0.00  0.00    +0.000 HD
ENDROOT
BRANCH   4   7
ATOM      7  C   UNL     1      21.169   0.926  51.721  0.00  0.00    +0.000 A 
ATOM      8  C   UNL     1      20.453   1.194  50.529  0.00  0.00    +0.000 A 
ATOM      9  C   UNL     1      19.122   0.785  50.372  0.00  0.00    +0.000 A 
ATOM     10  C   UNL     1      18.544   0.077  51.403  0.00  0.00    +0.000 A 
ATOM     11  C   UNL     1      19.216  -0.171  52.572  0.00  0.00    +0.000 A 
ATOM     12  C   UNL     1      20.505   0.275  52.774  0.00  0.00    +0.000 A 
ATOM     13  O   UNL     1      18.487  -0.914  53.445  0.00  0.00    +0.000 OA
ATOM     14  C   UNL     1      17.359  -1.251  52.615  0.00  0.00    +0.000 C 
ATOM     15  O   UNL     1      17.301  -0.474  51.399  0.00  0.00    +0.000 OA
ENDBRANCH   4   7
BRANCH   1  19
ATOM     16  C   UNL     1      28.416  -1.064  53.263  0.00  0.00    +0.000 A 
ATOM     17  C   UNL     1      28.370   0.335  53.282  0.00  0.00    +0.000 A 
ATOM     18  C   UNL     1      27.192   1.016  52.945  0.00  0.00    +0.000 A 
ATOM     19  C   UNL     1      26.035   0.312  52.583  0.00  0.00    +0.000 A 
ATOM     20  C   UNL     1      26.089  -1.087  52.556  0.00  0.00    +0.000 A 
ATOM     21  C   UNL     1      27.261  -1.769  52.899  0.00  0.00    +0.000 A 
BRANCH  16  22
ATOM     22  C   UNL     1      29.685  -1.806  53.590  0.00  0.00    +0.000 C 
BRANCH  22  23
ATOM     23  O   UNL     1      29.445  -3.203  53.669  0.00  0.00    +0.000 OA
ATOM     24  H   UNL     1      29.075  -3.419  54.539  0.00  0.00    +0.000 HD
ENDBRANCH  22  23
ENDBRANCH  16  22
ENDBRANCH   1  19
BRANCH   3  25
ATOM     25  C   UNL     1      22.795   3.693  51.028  0.00  0.00    +0.000 A 
ATOM     26  C   UNL     1      22.143   4.578  51.879  0.00  0.00    +0.000 A 
ATOM     27  C   UNL     1      21.767   5.827  51.390  0.00  0.00    +0.000 A 
ATOM     28  C   UNL     1      22.044   6.153  50.066  0.00  0.00    +0.000 A 
ATOM     29  C   UNL     1      22.663   5.204  49.275  0.00  0.00    +0.000 A 
ATOM     30  N   UNL     1      23.030   3.982  49.721  0.00  0.00    +0.000 NA
ENDBRANCH   3  25
TORSDOF 5
ENDMDL
MODEL 7
REMARK VINA RESULT:    -8.588      2.761      6.279
REMARK INTER + INTRA:         -11.602
REMARK INTER:                 -11.041
REMARK INTRA:                  -0.561
REMARK UNBOUND:                -0.755
REMARK  Name = 
REMARK  5 active torsions:
REMARK  status: ('A' for Active; 'I' for Inactive)
REMARK    1  A    between atoms: O_1  and  C_2
REMARK    2  A    between atoms: C_2  and  C_3
REMARK    3  A    between atoms: C_6  and  C_7
REMARK    4  A    between atoms: C_9  and  C_10
REMARK    5  A    between atoms: C_16  and  C_17
REMARK                            x       y       z     vdW  Elec       q    Type
REMARK                         _______ _______ _______ _____ _____    ______ ____
ROOT
ATOM      1  C   UNL     1      24.550   2.884  50.919  0.00  0.00    +0.000 A 
ATOM      2  N   UNL     1      23.500   2.269  51.427  0.00  0.00    +0.000 NA
ATOM      3  C   UNL     1      23.989   1.199  52.157  0.00  0.00    +0.000 A 
ATOM      4  C   UNL     1      25.371   1.100  52.021  0.00  0.00    +0.000 A 
ATOM      5  N   UNL     1      25.695   2.207  51.266  0.00  0.00    +0.000 N 
ATOM      6  H   UNL     1      26.609   2.472  51.015  0.00  0.00    +0.000 HD
ENDROOT
BRANCH   4   7
ATOM      7  C   UNL     1      26.364   0.115  52.466  0.00  0.00    +0.000 A 
ATOM      8  C   UNL     1      26.249  -1.249  52.106  0.00  0.00    +0.000 A 
ATOM      9  C   UNL     1      27.234  -2.181  52.462  0.00  0.00    +0.000 A 
ATOM     10  C   UNL     1      28.339  -1.717  53.141  0.00  0.00    +0.000 A 
ATOM     11  C   UNL     1      28.454  -0.404  53.517  0.00  0.00    +0.000 A 
ATOM     12  C   UNL     1      27.470   0.520  53.233  0.00  0.00    +0.000 A 
ATOM     13  O   UNL     1      29.632  -0.141  54.142  0.00  0.00    +0.000 OA
ATOM     14  C   UNL     1      30.308  -1.399  53.951  0.00  0.00    +0.000 C 
ATOM     15  O   UNL     1      29.430  -2.449  53.493  0.00  0.00    +0.000 OA
ENDBRANCH   4   7
BRANCH   1  19
ATOM     16  C   UNL     1      24.570   6.374  48.409  0.00  0.00    +0.000 A 
ATOM     17  C   UNL     1      23.357   5.824  48.840  0.00  0.00    +0.000 A 
ATOM     18  C   UNL     1      23.339   4.685  49.659  0.00  0.00    +0.000 A 
ATOM     19  C   UNL     1      24.534   4.075  50.064  0.00  0.00    +0.000 A 
ATOM     20  C   UNL     1      25.745   4.623  49.622  0.00  0.00    +0.000 A 
ATOM     21  C   UNL     1      25.765   5.763  48.811  0.00  0.00    +0.000 A 
BRANCH  16  22
ATOM     22  C   UNL     1      24.601   7.576  47.503  0.00  0.00    +0.000 C 
BRANCH  22  23
ATOM     23  O   UNL     1      25.274   8.660  48.127  0.00  0.00    +0.000 OA
ATOM     24  H   UNL     1      24.622   9.305  48.443  0.00  0.00    +0.000 HD
ENDBRANCH  22  23
ENDBRANCH  16  22
ENDBRANCH   1  19
BRANCH   3  25
ATOM     25  C   UNL     1      23.114   0.292  52.896  0.00  0.00    +0.000 A 
ATOM     26  C   UNL     1      23.577  -0.350  54.038  0.00  0.00    +0.000 A 
ATOM     27  C   UNL     1      22.684  -1.108  54.793  0.00  0.00    +0.000 A 
ATOM     28  C   UNL     1      21.359  -1.211  54.380  0.00  0.00    +0.000 A 
ATOM     29  C   UNL     1      20.987  -0.572  53.213  0.00  0.00    +0.000 A 
ATOM     30  N   UNL     1      21.834   0.162  52.458  0.00  0.00    +0.000 NA
ENDBRANCH   3  25
TORSDOF 5
ENDMDL
MODEL 8
REMARK VINA RESULT:    -8.558      3.393      7.380
REMARK INTER + INTRA:         -11.564
REMARK INTER:                 -10.668
REMARK INTRA:                  -0.896
REMARK UNBOUND:                -0.755
REMARK  Name = 
REMARK  5 active torsions:
REMARK  status: ('A' for Active; 'I' for Inactive)
REMARK    1  A    between atoms: O_1  and  C_2
REMARK    2  A    between atoms: C_2  and  C_3
REMARK    3  A    between atoms: C_6  and  C_7
REMARK    4  A    between atoms: C_9  and  C_10
REMARK    5  A    between atoms: C_16  and  C_17
REMARK                            x       y       z     vdW  Elec       q    Type
REMARK                         _______ _______ _______ _____ _____    ______ ____
ROOT
ATOM      1  C   UNL     1      25.726   2.038  51.759  0.00  0.00    +0.000 A 
ATOM      2  N   UNL     1      24.409   1.988  51.822  0.00  0.00    +0.000 NA
ATOM      3  C   UNL     1      23.945   3.156  51.241  0.00  0.00    +0.000 A 
ATOM      4  C   UNL     1      25.006   3.987  50.891  0.00  0.00    +0.000 A 
ATOM      5  N   UNL     1      26.117   3.229  51.195  0.00  0.00    +0.000 N 
ATOM      6  H   UNL     1      27.048   3.500  51.031  0.00  0.00    +0.000 HD
ENDROOT
BRANCH   4   7
ATOM      7  C   UNL     1      25.090   5.355  50.364  0.00  0.00    +0.000 A 
ATOM      8  C   UNL     1      24.460   6.432  51.033  0.00  0.00    +0.000 A 
ATOM      9  C   UNL     1      24.600   7.751  50.579  0.00  0.00    +0.000 A 
ATOM     10  C   UNL     1      25.404   7.969  49.482  0.00  0.00    +0.000 A 
ATOM     11  C   UNL     1      26.002   6.935  48.810  0.00  0.00    +0.000 A 
ATOM     12  C   UNL     1      25.829   5.623  49.200  0.00  0.00    +0.000 A 
ATOM     13  O   UNL     1      26.782   7.361  47.783  0.00  0.00    +0.000 OA
ATOM     14  C   UNL     1      26.742   8.784  48.006  0.00  0.00    +0.000 C 
ATOM     15  O   UNL     1      25.727   9.179  48.953  0.00  0.00    +0.000 OA
ENDBRANCH   4   7
BRANCH   1  19
ATOM     16  C   UNL     1      28.429  -0.980  53.195  0.00  0.00    +0.000 A 
ATOM     17  C   UNL     1      28.729   0.376  53.373  0.00  0.00    +0.000 A 
ATOM     18  C   UNL     1      27.855   1.369  52.908  0.00  0.00    +0.000 A 
ATOM     19  C   UNL     1      26.662   1.025  52.256  0.00  0.00    +0.000 A 
ATOM     20  C   UNL     1      26.371  -0.333  52.072  0.00  0.00    +0.000 A 
ATOM     21  C   UNL     1      27.239  -1.325  52.542  0.00  0.00    +0.000 A 
BRANCH  16  22
ATOM     22  C   UNL     1      29.377  -2.053  53.660  0.00  0.00    +0.000 C 
BRANCH  22  23
ATOM     23  O   UNL     1      28.813  -3.342  53.464  0.00  0.00    +0.000 OA
ATOM     24  H   UNL     1      28.512  -3.696  54.315  0.00  0.00    +0.000 HD
ENDBRANCH  22  23
ENDBRANCH  16  22
ENDBRANCH   1  19
BRANCH   3  25
ATOM     25  C   UNL     1      22.521   3.447  51.101  0.00  0.00    +0.000 A 
ATOM     26  C   UNL     1      21.929   3.453  49.844  0.00  0.00    +0.000 A 
ATOM     27  C   UNL     1      20.547   3.609  49.752  0.00  0.00    +0.000 A 
ATOM     28  C   UNL     1      19.800   3.763  50.915  0.00  0.00    +0.000 A 
ATOM     29  C   UNL     1      20.468   3.782  52.124  0.00  0.00    +0.000 A 
ATOM     30  N   UNL     1      21.807   3.642  52.241  0.00  0.00    +0.000 NA
ENDBRANCH   3  25
TORSDOF 5
ENDMDL
MODEL 9
REMARK VINA RESULT:    -8.494      2.314      7.455
REMARK INTER + INTRA:         -11.484
REMARK INTER:                 -10.545
REMARK INTRA:                  -0.938
REMARK UNBOUND:                -0.755
REMARK  Name = 
REMARK  5 active torsions:
REMARK  status: ('A' for Active; 'I' for Inactive)
REMARK    1  A    between atoms: O_1  and  C_2
REMARK    2  A    between atoms: C_2  and  C_3
REMARK    3  A    between atoms: C_6  and  C_7
REMARK    4  A    between atoms: C_9  and  C_10
REMARK    5  A    between atoms: C_16  and  C_17
REMARK                            x       y       z     vdW  Elec       q    Type
REMARK                         _______ _______ _______ _____ _____    ______ ____
ROOT
ATOM      1  C   UNL     1      25.530   1.693  51.822  0.00  0.00    +0.000 A 
ATOM      2  N   UNL     1      25.729   2.925  51.394  0.00  0.00    +0.000 NA
ATOM      3  C   UNL     1      24.486   3.422  51.041  0.00  0.00    +0.000 A 
ATOM      4  C   UNL     1      23.508   2.440  51.171  0.00  0.00    +0.000 A 
ATOM      5  N   UNL     1      24.198   1.374  51.707  0.00  0.00    +0.000 N 
ATOM      6  H   UNL     1      23.797   0.514  51.968  0.00  0.00    +0.000 HD
ENDROOT
BRANCH   4   7
ATOM      7  C   UNL     1      22.080   2.381  50.834  0.00  0.00    +0.000 A 
ATOM      8  C   UNL     1      21.578   1.383  49.964  0.00  0.00    +0.000 A 
ATOM      9  C   UNL     1      20.206   1.273  49.698  0.00  0.00    +0.000 A 
ATOM     10  C   UNL     1      19.357   2.146  50.343  0.00  0.00    +0.000 A 
ATOM     11  C   UNL     1      19.830   3.131  51.170  0.00  0.00    +0.000 A 
ATOM     12  C   UNL     1      21.179   3.299  51.399  0.00  0.00    +0.000 A 
ATOM     13  O   UNL     1      18.832   3.859  51.736  0.00  0.00    +0.000 OA
ATOM     14  C   UNL     1      17.686   3.099  51.308  0.00  0.00    +0.000 C 
ATOM     15  O   UNL     1      17.999   2.136  50.279  0.00  0.00    +0.000 OA
ENDBRANCH   4   7
BRANCH   1  19
ATOM     16  C   UNL     1      28.496  -1.097  53.201  0.00  0.00    +0.000 A 
ATOM     17  C   UNL     1      28.734   0.281  53.282  0.00  0.00    +0.000 A 
ATOM     18  C   UNL     1      27.774   1.200  52.835  0.00  0.00    +0.000 A 
ATOM     19  C   UNL     1      26.556   0.759  52.298  0.00  0.00    +0.000 A 
ATOM     20  C   UNL     1      26.327  -0.620  52.209  0.00  0.00    +0.000 A 
ATOM     21  C   UNL     1      27.281  -1.538  52.662  0.00  0.00    +0.000 A 
BRANCH  16  22
ATOM     22  C   UNL     1      29.533  -2.092  53.647  0.00  0.00    +0.000 C 
BRANCH  22  23
ATOM     23  O   UNL     1      29.038  -3.419  53.536  0.00  0.00    +0.000 OA
ATOM     24  H   UNL     1      29.690  -4.038  53.897  0.00  0.00    +0.000 HD
ENDBRANCH  22  23
ENDBRANCH  16  22
ENDBRANCH   1  19
BRANCH   3  25
ATOM     25  C   UNL     1      24.301   4.783  50.545  0.00  0.00    +0.000 A 
ATOM     26  C   UNL     1      24.162   5.017  49.181  0.00  0.00    +0.000 A 
ATOM     27  C   UNL     1      23.861   6.306  48.747  0.00  0.00    +0.000 A 
ATOM     28  C   UNL     1      23.718   7.325  49.684  0.00  0.00    +0.000 A 
ATOM     29  C   UNL     1      23.908   7.018  51.018  0.00  0.00    +0.000 A 
ATOM     30  N   UNL     1      24.208   5.778  51.465  0.00  0.00    +0.000 NA
ENDBRANCH   3  25
TORSDOF 5
ENDMDL
