MODEL 1
REMARK VINA RESULT:    -8.620      0.000      0.000
REMARK INTER + INTRA:         -13.167
REMARK INTER:                 -12.148
REMARK INTRA:                  -1.020
REMARK UNBOUND:                -1.020
REMARK  Name = 
REMARK  12 active torsions:
REMARK  status: ('A' for Active; 'I' for Inactive)
REMARK    1  A    between atoms: C_1  and  C_2
REMARK    2  A    between atoms: C_2  and  C_3
REMARK    3  A    between atoms: C_4  and  C_5
REMARK    4  A    between atoms: C_5  and  C_6
REMARK    5  A    between atoms: C_6  and  O_7
REMARK    6  A    between atoms: C_6  and  C_13
REMARK    7  A    between atoms: O_7  and  C_8
REMARK    8  A    between atoms: C_8  and  C_10
REMARK    9  A    between atoms: C_10  and  C_11
REMARK   10  A    between atoms: C_10  and  C_12
REMARK   11  A    between atoms: C_18  and  O_19
REMARK   12  A    between atoms: C_22  and  O_23
REMARK                            x       y       z     vdW  Elec       q    Type
REMARK                         _______ _______ _______ _____ _____    ______ ____
ROOT
ATOM      1  C   UNL     1      25.844   1.099  52.645  0.00  0.00    +0.000 C 
ATOM      2  C   UNL     1      25.583  -0.186  52.386  0.00  0.00    +0.000 C 
ATOM      3  C   UNL     1      26.522  -1.274  52.619  0.00  0.00    +0.000 C 
ATOM      4  O   UNL     1      26.194  -2.431  52.404  0.00  0.00    +0.000 OA
ATOM      5  C   UNL     1      27.861  -0.934  53.090  0.00  0.00    +0.000 A 
ATOM      6  C   UNL     1      28.816  -1.957  53.189  0.00  0.00    +0.000 A 
ATOM      7  C   UNL     1      30.095  -1.676  53.637  0.00  0.00    +0.000 A 
ATOM      8  C   UNL     1      30.425  -0.371  53.999  0.00  0.00    +0.000 A 
ATOM      9  C   UNL     1      29.475   0.652  53.893  0.00  0.00    +0.000 A 
ATOM     10  C   UNL     1      28.180   0.388  53.427  0.00  0.00    +0.000 A 
ATOM     11  C   UNL     1      27.155   1.462  53.269  0.00  0.00    +0.000 C 
ATOM     12  O   UNL     1      27.346   2.621  53.620  0.00  0.00    +0.000 OA
ENDROOT
BRANCH   6  13
ATOM     13  O   UNL     1      28.564  -3.260  52.848  0.00  0.00    +0.000 OA
ATOM     14  H   UNL     1      28.354  -3.885  53.514  0.00  0.00    +0.000 HD
ENDBRANCH   6  13
BRANCH   9  15
ATOM     15  O   UNL     1      29.846   1.917  54.249  0.00  0.00    +0.000 OA
ATOM     16  H   UNL     1      29.195   2.584  54.351  0.00  0.00    +0.000 HD
ENDBRANCH   9  15
BRANCH   1  17
ATOM     17  C   UNL     1      24.875   2.245  52.391  0.00  0.00    +0.000 C 
BRANCH  17  18
ATOM     18  C   UNL     1      24.696   2.530  50.882  0.00  0.00    +0.000 C 
BRANCH  18  22
ATOM     19  C   UNL     1      24.798   5.024  49.131  0.00  0.00    +0.000 C 
ATOM     20  C   UNL     1      26.003   4.190  49.462  0.00  0.00    +0.000 C 
ATOM     21  C   UNL     1      27.316   4.601  48.857  0.00  0.00    +0.000 C 
ATOM     22  C   UNL     1      25.938   3.093  50.242  0.00  0.00    +0.000 C 
ENDBRANCH  18  22
ENDBRANCH  17  18
BRANCH  17  23
ATOM     23  O   UNL     1      23.648   2.032  53.145  0.00  0.00    +0.000 OA
BRANCH  23  24
ATOM     24  C   UNL     1      22.461   1.888  52.514  0.00  0.00    +0.000 C 
ATOM     25  O   UNL     1      21.725   2.800  52.163  0.00  0.00    +0.000 OA
BRANCH  24  26
ATOM     26  C   UNL     1      22.192   0.442  52.141  0.00  0.00    +0.000 C 
ATOM     27  C   UNL     1      21.812  -0.447  53.325  0.00  0.00    +0.000 C 
ATOM     28  C   UNL     1      21.150   0.417  51.040  0.00  0.00    +0.000 C 
ENDBRANCH  24  26
ENDBRANCH  23  24
ENDBRANCH  17  23
ENDBRANCH   1  17
TORSDOF 8
ENDMDL
MODEL 2
REMARK VINA RESULT:    -8.547      1.257      1.764
REMARK INTER + INTRA:         -13.065
REMARK INTER:                 -11.757
REMARK INTRA:                  -1.308
REMARK UNBOUND:                -1.020
REMARK  Name = 
REMARK  12 active torsions:
REMARK  status: ('A' for Active; 'I' for Inactive)
REMARK    1  A    between atoms: C_1  and  C_2
REMARK    2  A    between atoms: C_2  and  C_3
REMARK    3  A    between atoms: C_4  and  C_5
REMARK    4  A    between atoms: C_5  and  C_6
REMARK    5  A    between atoms: C_6  and  O_7
REMARK    6  A    between atoms: C_6  and  C_13
REMARK    7  A    between atoms: O_7  and  C_8
REMARK    8  A    between atoms: C_8  and  C_10
REMARK    9  A    between atoms: C_10  and  C_11
REMARK   10  A    between atoms: C_10  and  C_12
REMARK   11  A    between atoms: C_18  and  O_19
REMARK   12  A    between atoms: C_22  and  O_23
REMARK                            x       y       z     vdW  Elec       q    Type
REMARK                         _______ _______ _______ _____ _____    ______ ____
ROOT
ATOM      1  C   UNL     1      24.996   0.536  52.701  0.00  0.00    +0.000 C 
ATOM      2  C   UNL     1      25.259  -0.760  52.511  0.00  0.00    +0.000 C 
ATOM      3  C   UNL     1      26.540  -1.386  52.807  0.00  0.00    +0.000 C 
ATOM      4  O   UNL     1      26.690  -2.589  52.653  0.00  0.00    +0.000 OA
ATOM      5  C   UNL     1      27.631  -0.531  53.265  0.00  0.00    +0.000 A 
ATOM      6  C   UNL     1      28.905  -1.098  53.423  0.00  0.00    +0.000 A 
ATOM      7  C   UNL     1      29.964  -0.322  53.862  0.00  0.00    +0.000 A 
ATOM      8  C   UNL     1      29.753   1.024  54.154  0.00  0.00    +0.000 A 
ATOM      9  C   UNL     1      28.484   1.593  53.989  0.00  0.00    +0.000 A 
ATOM     10  C   UNL     1      27.405   0.825  53.531  0.00  0.00    +0.000 A 
ATOM     11  C   UNL     1      26.048   1.408  53.311  0.00  0.00    +0.000 C 
ATOM     12  O   UNL     1      25.766   2.567  53.600  0.00  0.00    +0.000 OA
ENDROOT
BRANCH   6  13
ATOM     13  O   UNL     1      29.185  -2.412  53.152  0.00  0.00    +0.000 OA
ATOM     14  H   UNL     1      29.183  -3.043  53.845  0.00  0.00    +0.000 HD
ENDBRANCH   6  13
BRANCH   9  15
ATOM     15  O   UNL     1      28.328   2.917  54.277  0.00  0.00    +0.000 OA
ATOM     16  H   UNL     1      27.759   3.447  53.753  0.00  0.00    +0.000 HD
ENDBRANCH   9  15
BRANCH   1  17
ATOM     17  C   UNL     1      23.665   1.203  52.381  0.00  0.00    +0.000 C 
BRANCH  17  18
ATOM     18  C   UNL     1      23.597   1.687  50.915  0.00  0.00    +0.000 C 
BRANCH  18  22
ATOM     19  C   UNL     1      26.168   3.022  49.961  0.00  0.00    +0.000 C 
ATOM     20  C   UNL     1      24.936   3.782  50.366  0.00  0.00    +0.000 C 
ATOM     21  C   UNL     1      25.006   5.283  50.327  0.00  0.00    +0.000 C 
ATOM     22  C   UNL     1      23.808   3.173  50.780  0.00  0.00    +0.000 C 
ENDBRANCH  18  22
ENDBRANCH  17  18
BRANCH  17  23
ATOM     23  O   UNL     1      22.568   0.353  52.819  0.00  0.00    +0.000 OA
BRANCH  23  24
ATOM     24  C   UNL     1      21.394   0.889  53.225  0.00  0.00    +0.000 C 
ATOM     25  O   UNL     1      20.929   1.955  52.844  0.00  0.00    +0.000 OA
BRANCH  24  26
ATOM     26  C   UNL     1      20.618  -0.061  54.117  0.00  0.00    +0.000 C 
ATOM     27  C   UNL     1      19.427  -0.728  53.431  0.00  0.00    +0.000 C 
ATOM     28  C   UNL     1      21.588  -1.069  54.703  0.00  0.00    +0.000 C 
ENDBRANCH  24  26
ENDBRANCH  23  24
ENDBRANCH  17  23
ENDBRANCH   1  17
TORSDOF 8
ENDMDL
MODEL 3
REMARK VINA RESULT:    -8.255      1.223      4.102
REMARK INTER + INTRA:         -12.654
REMARK INTER:                 -11.703
REMARK INTRA:                  -0.950
REMARK UNBOUND:                -1.020
REMARK  Name = 
REMARK  12 active torsions:
REMARK  status: ('A' for Active; 'I' for Inactive)
REMARK    1  A    between atoms: C_1  and  C_2
REMARK    2  A    between atoms: C_2  and  C_3
REMARK    3  A    between atoms: C_4  and  C_5
REMARK    4  A    between atoms: C_5  and  C_6
REMARK    5  A    between atoms: C_6  and  O_7
REMARK    6  A    between atoms: C_6  and  C_13
REMARK    7  A    between atoms: O_7  and  C_8
REMARK    8  A    between atoms: C_8  and  C_10
REMARK    9  A    between atoms: C_10  and  C_11
REMARK   10  A    between atoms: C_10  and  C_12
REMARK   11  A    between atoms: C_18  and  O_19
REMARK   12  A    between atoms: C_22  and  O_23
REMARK                            x       y       z     vdW  Elec       q    Type
REMARK                         _______ _______ _______ _____ _____    ______ ____
ROOT
ATOM      1  C   UNL     1      25.260   0.556  52.490  0.00  0.00    +0.000 C 
ATOM      2  C   UNL     1      25.460  -0.740  52.233  0.00  0.00    +0.000 C 
ATOM      3  C   UNL     1      26.686  -1.457  52.552  0.00  0.00    +0.000 C 
ATOM      4  O   UNL     1      26.777  -2.655  52.332  0.00  0.00    +0.000 OA
ATOM      5  C   UNL     1      27.798  -0.696  53.113  0.00  0.00    +0.000 A 
ATOM      6  C   UNL     1      29.028  -1.345  53.298  0.00  0.00    +0.000 A 
ATOM      7  C   UNL     1      30.105  -0.659  53.834  0.00  0.00    +0.000 A 
ATOM      8  C   UNL     1      29.955   0.677  54.198  0.00  0.00    +0.000 A 
ATOM      9  C   UNL     1      28.730   1.329  54.007  0.00  0.00    +0.000 A 
ATOM     10  C   UNL     1      27.635   0.654  53.451  0.00  0.00    +0.000 A 
ATOM     11  C   UNL     1      26.326   1.328  53.202  0.00  0.00    +0.000 C 
ATOM     12  O   UNL     1      26.095   2.482  53.548  0.00  0.00    +0.000 OA
ENDROOT
BRANCH   6  13
ATOM     13  O   UNL     1      29.248  -2.655  52.961  0.00  0.00    +0.000 OA
ATOM     14  H   UNL     1      29.656  -3.233  53.575  0.00  0.00    +0.000 HD
ENDBRANCH   6  13
BRANCH   9  15
ATOM     15  O   UNL     1      28.633   2.641  54.368  0.00  0.00    +0.000 OA
ATOM     16  H   UNL     1      28.421   2.868  55.252  0.00  0.00    +0.000 HD
ENDBRANCH   9  15
BRANCH   1  17
ATOM     17  C   UNL     1      23.987   1.317  52.147  0.00  0.00    +0.000 C 
BRANCH  17  18
ATOM     18  C   UNL     1      23.057   1.474  53.372  0.00  0.00    +0.000 C 
BRANCH  18  22
ATOM     19  C   UNL     1      23.091  -1.015  55.134  0.00  0.00    +0.000 C 
ATOM     20  C   UNL     1      21.972  -0.680  54.188  0.00  0.00    +0.000 C 
ATOM     21  C   UNL     1      20.833  -1.656  54.092  0.00  0.00    +0.000 C 
ATOM     22  C   UNL     1      21.974   0.428  53.422  0.00  0.00    +0.000 C 
ENDBRANCH  18  22
ENDBRANCH  17  18
BRANCH  17  23
ATOM     23  O   UNL     1      24.320   2.547  51.443  0.00  0.00    +0.000 OA
BRANCH  23  24
ATOM     24  C   UNL     1      23.976   2.718  50.146  0.00  0.00    +0.000 C 
ATOM     25  O   UNL     1      22.899   2.420  49.649  0.00  0.00    +0.000 OA
BRANCH  24  26
ATOM     26  C   UNL     1      25.041   3.475  49.375  0.00  0.00    +0.000 C 
ATOM     27  C   UNL     1      24.821   4.986  49.326  0.00  0.00    +0.000 C 
ATOM     28  C   UNL     1      26.398   3.105  49.944  0.00  0.00    +0.000 C 
ENDBRANCH  24  26
ENDBRANCH  23  24
ENDBRANCH  17  23
ENDBRANCH   1  17
TORSDOF 8
ENDMDL
MODEL 4
REMARK VINA RESULT:    -7.881      2.342      6.891
REMARK INTER + INTRA:         -12.126
REMARK INTER:                 -11.035
REMARK INTRA:                  -1.091
REMARK UNBOUND:                -1.020
REMARK  Name = 
REMARK  12 active torsions:
REMARK  status: ('A' for Active; 'I' for Inactive)
REMARK    1  A    between atoms: C_1  and  C_2
REMARK    2  A    between atoms: C_2  and  C_3
REMARK    3  A    between atoms: C_4  and  C_5
REMARK    4  A    between atoms: C_5  and  C_6
REMARK    5  A    between atoms: C_6  and  O_7
REMARK    6  A    between atoms: C_6  and  C_13
REMARK    7  A    between atoms: O_7  and  C_8
REMARK    8  A    between atoms: C_8  and  C_10
REMARK    9  A    between atoms: C_10  and  C_11
REMARK   10  A    between atoms: C_10  and  C_12
REMARK   11  A    between atoms: C_18  and  O_19
REMARK   12  A    between atoms: C_22  and  O_23
REMARK                            x       y       z     vdW  Elec       q    Type
REMARK                         _______ _______ _______ _____ _____    ______ ____
ROOT
ATOM      1  C   UNL     1      23.270   0.775  52.493  0.00  0.00    +0.000 C 
ATOM      2  C   UNL     1      22.863   0.086  53.564  0.00  0.00    +0.000 C 
ATOM      3  C   UNL     1      21.517  -0.444  53.732  0.00  0.00    +0.000 C 
ATOM      4  O   UNL     1      21.233  -1.107  54.718  0.00  0.00    +0.000 OA
ATOM      5  C   UNL     1      20.526  -0.135  52.706  0.00  0.00    +0.000 A 
ATOM      6  C   UNL     1      19.195  -0.522  52.923  0.00  0.00    +0.000 A 
ATOM      7  C   UNL     1      18.227  -0.254  51.970  0.00  0.00    +0.000 A 
ATOM      8  C   UNL     1      18.585   0.396  50.791  0.00  0.00    +0.000 A 
ATOM      9  C   UNL     1      19.912   0.790  50.577  0.00  0.00    +0.000 A 
ATOM     10  C   UNL     1      20.902   0.540  51.537  0.00  0.00    +0.000 A 
ATOM     11  C   UNL     1      22.318   0.977  51.356  0.00  0.00    +0.000 C 
ATOM     12  O   UNL     1      22.726   1.500  50.324  0.00  0.00    +0.000 OA
ENDROOT
BRANCH   6  13
ATOM     13  O   UNL     1      18.771  -1.161  54.058  0.00  0.00    +0.000 OA
ATOM     14  H   UNL     1      18.593  -2.081  54.039  0.00  0.00    +0.000 HD
ENDBRANCH   6  13
BRANCH   9  15
ATOM     15  O   UNL     1      20.215   1.433  49.412  0.00  0.00    +0.000 OA
ATOM     16  H   UNL     1      21.034   1.268  48.986  0.00  0.00    +0.000 HD
ENDBRANCH   9  15
BRANCH   1  17
ATOM     17  C   UNL     1      24.670   1.344  52.314  0.00  0.00    +0.000 C 
BRANCH  17  18
ATOM     18  C   UNL     1      24.865   2.662  53.098  0.00  0.00    +0.000 C 
BRANCH  18  22
ATOM     19  C   UNL     1      24.637   4.508  50.681  0.00  0.00    +0.000 C 
ATOM     20  C   UNL     1      23.639   4.480  51.804  0.00  0.00    +0.000 C 
ATOM     21  C   UNL     1      22.491   5.448  51.733  0.00  0.00    +0.000 C 
ATOM     22  C   UNL     1      23.754   3.653  52.861  0.00  0.00    +0.000 C 
ENDBRANCH  18  22
ENDBRANCH  17  18
BRANCH  17  23
ATOM     23  O   UNL     1      25.661   0.307  52.560  0.00  0.00    +0.000 OA
BRANCH  23  24
ATOM     24  C   UNL     1      26.523   0.404  53.598  0.00  0.00    +0.000 C 
ATOM     25  O   UNL     1      26.263   0.147  54.766  0.00  0.00    +0.000 OA
BRANCH  24  26
ATOM     26  C   UNL     1      27.929   0.735  53.136  0.00  0.00    +0.000 C 
ATOM     27  C   UNL     1      28.416   2.120  53.560  0.00  0.00    +0.000 C 
ATOM     28  C   UNL     1      28.858  -0.372  53.596  0.00  0.00    +0.000 C 
ENDBRANCH  24  26
ENDBRANCH  23  24
ENDBRANCH  17  23
ENDBRANCH   1  17
TORSDOF 8
ENDMDL
MODEL 5
REMARK VINA RESULT:    -7.789      2.477      4.747
REMARK INTER + INTRA:         -11.996
REMARK INTER:                 -10.585
REMARK INTRA:                  -1.411
REMARK UNBOUND:                -1.020
REMARK  Name = 
REMARK  12 active torsions:
REMARK  status: ('A' for Active; 'I' for Inactive)
REMARK    1  A    between atoms: C_1  and  C_2
REMARK    2  A    between atoms: C_2  and  C_3
REMARK    3  A    between atoms: C_4  and  C_5
REMARK    4  A    between atoms: C_5  and  C_6
REMARK    5  A    between atoms: C_6  and  O_7
REMARK    6  A    between atoms: C_6  and  C_13
REMARK    7  A    between atoms: O_7  and  C_8
REMARK    8  A    between atoms: C_8  and  C_10
REMARK    9  A    between atoms: C_10  and  C_11
REMARK   10  A    between atoms: C_10  and  C_12
REMARK   11  A    between atoms: C_18  and  O_19
REMARK   12  A    between atoms: C_22  and  O_23
REMARK                            x       y       z     vdW  Elec       q    Type
REMARK                         _______ _______ _______ _____ _____    ______ ____
ROOT
ATOM      1  C   UNL     1      23.341   1.441  51.479  0.00  0.00    +0.000 C 
ATOM      2  C   UNL     1      22.959   0.573  52.421  0.00  0.00    +0.000 C 
ATOM      3  C   UNL     1      23.818   0.108  53.500  0.00  0.00    +0.000 C 
ATOM      4  O   UNL     1      23.383  -0.650  54.355  0.00  0.00    +0.000 OA
ATOM      5  C   UNL     1      25.208   0.554  53.511  0.00  0.00    +0.000 A 
ATOM      6  C   UNL     1      26.080   0.008  54.465  0.00  0.00    +0.000 A 
ATOM      7  C   UNL     1      27.403   0.411  54.512  0.00  0.00    +0.000 A 
ATOM      8  C   UNL     1      27.861   1.370  53.610  0.00  0.00    +0.000 A 
ATOM      9  C   UNL     1      26.994   1.910  52.652  0.00  0.00    +0.000 A 
ATOM     10  C   UNL     1      25.655   1.502  52.581  0.00  0.00    +0.000 A 
ATOM     11  C   UNL     1      24.714   2.033  51.551  0.00  0.00    +0.000 C 
ATOM     12  O   UNL     1      25.021   2.920  50.762  0.00  0.00    +0.000 OA
ENDROOT
BRANCH   6  13
ATOM     13  O   UNL     1      25.700  -0.939  55.379  0.00  0.00    +0.000 OA
ATOM     14  H   UNL     1      25.015  -1.544  55.169  0.00  0.00    +0.000 HD
ENDBRANCH   6  13
BRANCH   9  15
ATOM     15  O   UNL     1      27.489   2.839  51.784  0.00  0.00    +0.000 OA
ATOM     16  H   UNL     1      27.319   3.750  51.925  0.00  0.00    +0.000 HD
ENDBRANCH   9  15
BRANCH   1  17
ATOM     17  C   UNL     1      22.455   1.922  50.339  0.00  0.00    +0.000 C 
BRANCH  17  18
ATOM     18  C   UNL     1      21.603   0.778  49.744  0.00  0.00    +0.000 C 
BRANCH  18  22
ATOM     19  C   UNL     1      19.400   0.058  51.727  0.00  0.00    +0.000 C 
ATOM     20  C   UNL     1      19.160   0.833  50.462  0.00  0.00    +0.000 C 
ATOM     21  C   UNL     1      17.745   1.235  50.155  0.00  0.00    +0.000 C 
ATOM     22  C   UNL     1      20.148   1.145  49.601  0.00  0.00    +0.000 C 
ENDBRANCH  18  22
ENDBRANCH  17  18
BRANCH  17  23
ATOM     23  O   UNL     1      21.722   3.111  50.748  0.00  0.00    +0.000 OA
BRANCH  23  24
ATOM     24  C   UNL     1      21.896   4.288  50.106  0.00  0.00    +0.000 C 
ATOM     25  O   UNL     1      21.532   4.538  48.964  0.00  0.00    +0.000 OA
BRANCH  24  26
ATOM     26  C   UNL     1      22.476   5.350  51.020  0.00  0.00    +0.000 C 
ATOM     27  C   UNL     1      21.864   6.738  50.833  0.00  0.00    +0.000 C 
ATOM     28  C   UNL     1      22.371   4.859  52.452  0.00  0.00    +0.000 C 
ENDBRANCH  24  26
ENDBRANCH  23  24
ENDBRANCH  17  23
ENDBRANCH   1  17
TORSDOF 8
ENDMDL
MODEL 6
REMARK VINA RESULT:    -7.600      2.372      4.126
REMARK INTER + INTRA:         -11.729
REMARK INTER:                 -10.320
REMARK INTRA:                  -1.409
REMARK UNBOUND:                -1.020
REMARK  Name = 
REMARK  12 active torsions:
REMARK  status: ('A' for Active; 'I' for Inactive)
REMARK    1  A    between atoms: C_1  and  C_2
REMARK    2  A    between atoms: C_2  and  C_3
REMARK    3  A    between atoms: C_4  and  C_5
REMARK    4  A    between atoms: C_5  and  C_6
REMARK    5  A    between atoms: C_6  and  O_7
REMARK    6  A    between atoms: C_6  and  C_13
REMARK    7  A    between atoms: O_7  and  C_8
REMARK    8  A    between atoms: C_8  and  C_10
REMARK    9  A    between atoms: C_10  and  C_11
REMARK   10  A    between atoms: C_10  and  C_12
REMARK   11  A    between atoms: C_18  and  O_19
REMARK   12  A    between atoms: C_22  and  O_23
REMARK                            x       y       z     vdW  Elec       q    Type
REMARK                         _______ _______ _______ _____ _____    ______ ____
ROOT
ATOM      1  C   UNL     1      24.144   1.401  52.078  0.00  0.00    +0.000 C 
ATOM      2  C   UNL     1      25.026   2.206  51.478  0.00  0.00    +0.000 C 
ATOM      3  C   UNL     1      26.429   2.306  51.852  0.00  0.00    +0.000 C 
ATOM      4  O   UNL     1      27.187   3.029  51.224  0.00  0.00    +0.000 OA
ATOM      5  C   UNL     1      26.886   1.540  53.008  0.00  0.00    +0.000 A 
ATOM      6  C   UNL     1      28.199   1.731  53.462  0.00  0.00    +0.000 A 
ATOM      7  C   UNL     1      28.671   1.018  54.550  0.00  0.00    +0.000 A 
ATOM      8  C   UNL     1      27.836   0.102  55.186  0.00  0.00    +0.000 A 
ATOM      9  C   UNL     1      26.522  -0.084  54.739  0.00  0.00    +0.000 A 
ATOM     10  C   UNL     1      26.022   0.641  53.649  0.00  0.00    +0.000 A 
ATOM     11  C   UNL     1      24.617   0.492  53.168  0.00  0.00    +0.000 C 
ATOM     12  O   UNL     1      23.838  -0.334  53.634  0.00  0.00    +0.000 OA
ENDROOT
BRANCH   6  13
ATOM     13  O   UNL     1      29.074   2.615  52.888  0.00  0.00    +0.000 OA
ATOM     14  H   UNL     1      29.327   2.509  51.992  0.00  0.00    +0.000 HD
ENDBRANCH   6  13
BRANCH   9  15
ATOM     15  O   UNL     1      25.736  -0.984  55.399  0.00  0.00    +0.000 OA
ATOM     16  H   UNL     1      24.829  -0.796  55.544  0.00  0.00    +0.000 HD
ENDBRANCH   9  15
BRANCH   1  17
ATOM     17  C   UNL     1      22.672   1.301  51.702  0.00  0.00    +0.000 C 
BRANCH  17  18
ATOM     18  C   UNL     1      21.811   2.345  52.448  0.00  0.00    +0.000 C 
BRANCH  18  22
ATOM     19  C   UNL     1      19.556   4.064  51.323  0.00  0.00    +0.000 C 
ATOM     20  C   UNL     1      20.990   4.510  51.390  0.00  0.00    +0.000 C 
ATOM     21  C   UNL     1      21.318   5.867  50.832  0.00  0.00    +0.000 C 
ATOM     22  C   UNL     1      21.971   3.738  51.895  0.00  0.00    +0.000 C 
ENDBRANCH  18  22
ENDBRANCH  17  18
BRANCH  17  23
ATOM     23  O   UNL     1      22.531   1.280  50.254  0.00  0.00    +0.000 OA
BRANCH  23  24
ATOM     24  C   UNL     1      21.321   1.104  49.677  0.00  0.00    +0.000 C 
ATOM     25  O   UNL     1      20.355   0.563  50.199  0.00  0.00    +0.000 OA
BRANCH  24  26
ATOM     26  C   UNL     1      21.232   1.793  48.329  0.00  0.00    +0.000 C 
ATOM     27  C   UNL     1      19.957   2.613  48.131  0.00  0.00    +0.000 C 
ATOM     28  C   UNL     1      22.488   2.618  48.129  0.00  0.00    +0.000 C 
ENDBRANCH  24  26
ENDBRANCH  23  24
ENDBRANCH  17  23
ENDBRANCH   1  17
TORSDOF 8
ENDMDL
MODEL 7
REMARK VINA RESULT:    -7.571      2.330      7.206
REMARK INTER + INTRA:         -11.689
REMARK INTER:                 -10.796
REMARK INTRA:                  -0.892
REMARK UNBOUND:                -1.020
REMARK  Name = 
REMARK  12 active torsions:
REMARK  status: ('A' for Active; 'I' for Inactive)
REMARK    1  A    between atoms: C_1  and  C_2
REMARK    2  A    between atoms: C_2  and  C_3
REMARK    3  A    between atoms: C_4  and  C_5
REMARK    4  A    between atoms: C_5  and  C_6
REMARK    5  A    between atoms: C_6  and  O_7
REMARK    6  A    between atoms: C_6  and  C_13
REMARK    7  A    between atoms: O_7  and  C_8
REMARK    8  A    between atoms: C_8  and  C_10
REMARK    9  A    between atoms: C_10  and  C_11
REMARK   10  A    between atoms: C_10  and  C_12
REMARK   11  A    between atoms: C_18  and  O_19
REMARK   12  A    between atoms: C_22  and  O_23
REMARK                            x       y       z     vdW  Elec       q    Type
REMARK                         _______ _______ _______ _____ _____    ______ ____
ROOT
ATOM      1  C   UNL     1      25.478   2.816  51.465  0.00  0.00    +0.000 C 
ATOM      2  C   UNL     1      26.328   3.113  50.477  0.00  0.00    +0.000 C 
ATOM      3  C   UNL     1      26.262   4.330  49.680  0.00  0.00    +0.000 C 
ATOM      4  O   UNL     1      27.105   4.556  48.825  0.00  0.00    +0.000 OA
ATOM      5  C   UNL     1      25.151   5.247  49.919  0.00  0.00    +0.000 A 
ATOM      6  C   UNL     1      25.000   6.352  49.069  0.00  0.00    +0.000 A 
ATOM      7  C   UNL     1      23.963   7.248  49.268  0.00  0.00    +0.000 A 
ATOM      8  C   UNL     1      23.077   7.049  50.324  0.00  0.00    +0.000 A 
ATOM      9  C   UNL     1      23.222   5.942  51.169  0.00  0.00    +0.000 A 
ATOM     10  C   UNL     1      24.257   5.017  50.973  0.00  0.00    +0.000 A 
ATOM     11  C   UNL     1      24.420   3.808  51.834  0.00  0.00    +0.000 C 
ATOM     12  O   UNL     1      23.720   3.592  52.818  0.00  0.00    +0.000 OA
ENDROOT
BRANCH   6  13
ATOM     13  O   UNL     1      25.830   6.608  48.010  0.00  0.00    +0.000 OA
ATOM     14  H   UNL     1      25.521   7.114  47.284  0.00  0.00    +0.000 HD
ENDBRANCH   6  13
BRANCH   9  15
ATOM     15  O   UNL     1      22.325   5.782  52.185  0.00  0.00    +0.000 OA
ATOM     16  H   UNL     1      22.205   4.938  52.575  0.00  0.00    +0.000 HD
ENDBRANCH   9  15
BRANCH   1  17
ATOM     17  C   UNL     1      25.530   1.541  52.294  0.00  0.00    +0.000 C 
BRANCH  17  18
ATOM     18  C   UNL     1      24.282   0.656  52.077  0.00  0.00    +0.000 C 
BRANCH  18  22
ATOM     19  C   UNL     1      21.523   0.408  53.353  0.00  0.00    +0.000 C 
ATOM     20  C   UNL     1      22.742  -0.313  53.857  0.00  0.00    +0.000 C 
ATOM     21  C   UNL     1      22.580  -1.170  55.082  0.00  0.00    +0.000 C 
ATOM     22  C   UNL     1      23.951  -0.194  53.277  0.00  0.00    +0.000 C 
ENDBRANCH  18  22
ENDBRANCH  17  18
BRANCH  17  23
ATOM     23  O   UNL     1      26.814   0.881  52.107  0.00  0.00    +0.000 OA
BRANCH  23  24
ATOM     24  C   UNL     1      27.767   0.933  53.065  0.00  0.00    +0.000 C 
ATOM     25  O   UNL     1      28.237   1.955  53.548  0.00  0.00    +0.000 OA
BRANCH  24  26
ATOM     26  C   UNL     1      28.104  -0.444  53.603  0.00  0.00    +0.000 C 
ATOM     27  C   UNL     1      27.421  -1.589  52.855  0.00  0.00    +0.000 C 
ATOM     28  C   UNL     1      29.613  -0.592  53.635  0.00  0.00    +0.000 C 
ENDBRANCH  24  26
ENDBRANCH  23  24
ENDBRANCH  17  23
ENDBRANCH   1  17
TORSDOF 8
ENDMDL
MODEL 8
REMARK VINA RESULT:    -7.354      2.791      5.043
REMARK INTER + INTRA:         -11.384
REMARK INTER:                 -10.744
REMARK INTRA:                  -0.640
REMARK UNBOUND:                -1.020
REMARK  Name = 
REMARK  12 active torsions:
REMARK  status: ('A' for Active; 'I' for Inactive)
REMARK    1  A    between atoms: C_1  and  C_2
REMARK    2  A    between atoms: C_2  and  C_3
REMARK    3  A    between atoms: C_4  and  C_5
REMARK    4  A    between atoms: C_5  and  C_6
REMARK    5  A    between atoms: C_6  and  O_7
REMARK    6  A    between atoms: C_6  and  C_13
REMARK    7  A    between atoms: O_7  and  C_8
REMARK    8  A    between atoms: C_8  and  C_10
REMARK    9  A    between atoms: C_10  and  C_11
REMARK   10  A    between atoms: C_10  and  C_12
REMARK   11  A    between atoms: C_18  and  O_19
REMARK   12  A    between atoms: C_22  and  O_23
REMARK                            x       y       z     vdW  Elec       q    Type
REMARK                         _______ _______ _______ _____ _____    ______ ____
ROOT
ATOM      1  C   UNL     1      24.196   2.282  52.297  0.00  0.00    +0.000 C 
ATOM      2  C   UNL     1      25.244   1.766  52.948  0.00  0.00    +0.000 C 
ATOM      3  C   UNL     1      25.178   0.582  53.794  0.00  0.00    +0.000 C 
ATOM      4  O   UNL     1      26.189   0.140  54.317  0.00  0.00    +0.000 OA
ATOM      5  C   UNL     1      23.872  -0.033  54.011  0.00  0.00    +0.000 A 
ATOM      6  C   UNL     1      23.774  -1.089  54.930  0.00  0.00    +0.000 A 
ATOM      7  C   UNL     1      22.555  -1.703  55.158  0.00  0.00    +0.000 A 
ATOM      8  C   UNL     1      21.428  -1.272  54.462  0.00  0.00    +0.000 A 
ATOM      9  C   UNL     1      21.523  -0.213  53.550  0.00  0.00    +0.000 A 
ATOM     10  C   UNL     1      22.746   0.430  53.318  0.00  0.00    +0.000 A 
ATOM     11  C   UNL     1      22.875   1.584  52.380  0.00  0.00    +0.000 C 
ATOM     12  O   UNL     1      21.946   1.985  51.686  0.00  0.00    +0.000 OA
ENDROOT
BRANCH   6  13
ATOM     13  O   UNL     1      24.838  -1.563  55.651  0.00  0.00    +0.000 OA
ATOM     14  H   UNL     1      25.288  -0.997  56.248  0.00  0.00    +0.000 HD
ENDBRANCH   6  13
BRANCH   9  15
ATOM     15  O   UNL     1      20.390   0.182  52.899  0.00  0.00    +0.000 OA
ATOM     16  H   UNL     1      20.132   1.083  52.915  0.00  0.00    +0.000 HD
ENDBRANCH   9  15
BRANCH   1  17
ATOM     17  C   UNL     1      24.252   3.526  51.422  0.00  0.00    +0.000 C 
BRANCH  17  18
ATOM     18  C   UNL     1      24.565   3.185  49.947  0.00  0.00    +0.000 C 
BRANCH  18  22
ATOM     19  C   UNL     1      25.492   5.859  48.812  0.00  0.00    +0.000 C 
ATOM     20  C   UNL     1      26.410   4.693  49.050  0.00  0.00    +0.000 C 
ATOM     21  C   UNL     1      27.854   4.859  48.666  0.00  0.00    +0.000 C 
ATOM     22  C   UNL     1      25.981   3.521  49.557  0.00  0.00    +0.000 C 
ENDBRANCH  18  22
ENDBRANCH  17  18
BRANCH  17  23
ATOM     23  O   UNL     1      23.068   4.342  51.646  0.00  0.00    +0.000 OA
BRANCH  23  24
ATOM     24  C   UNL     1      23.134   5.692  51.588  0.00  0.00    +0.000 C 
ATOM     25  O   UNL     1      24.124   6.368  51.834  0.00  0.00    +0.000 OA
BRANCH  24  26
ATOM     26  C   UNL     1      21.860   6.296  51.029  0.00  0.00    +0.000 C 
ATOM     27  C   UNL     1      22.078   7.579  50.227  0.00  0.00    +0.000 C 
ATOM     28  C   UNL     1      21.134   5.230  50.231  0.00  0.00    +0.000 C 
ENDBRANCH  24  26
ENDBRANCH  23  24
ENDBRANCH  17  23
ENDBRANCH   1  17
TORSDOF 8
ENDMDL
MODEL 9
REMARK VINA RESULT:    -7.313      2.265      6.244
REMARK INTER + INTRA:         -11.325
REMARK INTER:                 -10.536
REMARK INTRA:                  -0.790
REMARK UNBOUND:                -1.020
REMARK  Name = 
REMARK  12 active torsions:
REMARK  status: ('A' for Active; 'I' for Inactive)
REMARK    1  A    between atoms: C_1  and  C_2
REMARK    2  A    between atoms: C_2  and  C_3
REMARK    3  A    between atoms: C_4  and  C_5
REMARK    4  A    between atoms: C_5  and  C_6
REMARK    5  A    between atoms: C_6  and  O_7
REMARK    6  A    between atoms: C_6  and  C_13
REMARK    7  A    between atoms: O_7  and  C_8
REMARK    8  A    between atoms: C_8  and  C_10
REMARK    9  A    between atoms: C_10  and  C_11
REMARK   10  A    between atoms: C_10  and  C_12
REMARK   11  A    between atoms: C_18  and  O_19
REMARK   12  A    between atoms: C_22  and  O_23
REMARK                            x       y       z     vdW  Elec       q    Type
REMARK                         _______ _______ _______ _____ _____    ______ ____
ROOT
ATOM      1  C   UNL     1      24.713   2.842  51.940  0.00  0.00    +0.000 C 
ATOM      2  C   UNL     1      23.745   3.736  52.167  0.00  0.00    +0.000 C 
ATOM      3  C   UNL     1      23.614   4.998  51.453  0.00  0.00    +0.000 C 
ATOM      4  O   UNL     1      22.673   5.743  51.681  0.00  0.00    +0.000 OA
ATOM      5  C   UNL     1      24.650   5.348  50.485  0.00  0.00    +0.000 A 
ATOM      6  C   UNL     1      24.609   6.618  49.891  0.00  0.00    +0.000 A 
ATOM      7  C   UNL     1      25.569   6.985  48.963  0.00  0.00    +0.000 A 
ATOM      8  C   UNL     1      26.570   6.080  48.617  0.00  0.00    +0.000 A 
ATOM      9  C   UNL     1      26.616   4.815  49.215  0.00  0.00    +0.000 A 
ATOM     10  C   UNL     1      25.662   4.433  50.167  0.00  0.00    +0.000 A 
ATOM     11  C   UNL     1      25.702   3.105  50.848  0.00  0.00    +0.000 C 
ATOM     12  O   UNL     1      26.513   2.231  50.557  0.00  0.00    +0.000 OA
ENDROOT
BRANCH   6  13
ATOM     13  O   UNL     1      23.657   7.559  50.186  0.00  0.00    +0.000 OA
ATOM     14  H   UNL     1      23.339   8.129  49.514  0.00  0.00    +0.000 HD
ENDBRANCH   6  13
BRANCH   9  15
ATOM     15  O   UNL     1      27.621   3.965  48.852  0.00  0.00    +0.000 OA
ATOM     16  H   UNL     1      27.778   3.187  49.350  0.00  0.00    +0.000 HD
ENDBRANCH   9  15
BRANCH   1  17
ATOM     17  C   UNL     1      24.866   1.527  52.691  0.00  0.00    +0.000 C 
BRANCH  17  18
ATOM     18  C   UNL     1      26.121   1.516  53.592  0.00  0.00    +0.000 C 
BRANCH  18  22
ATOM     19  C   UNL     1      29.110   1.317  54.165  0.00  0.00    +0.000 C 
ATOM     20  C   UNL     1      28.283   0.172  53.652  0.00  0.00    +0.000 C 
ATOM     21  C   UNL     1      28.992  -1.124  53.376  0.00  0.00    +0.000 C 
ATOM     22  C   UNL     1      26.962   0.279  53.410  0.00  0.00    +0.000 C 
ENDBRANCH  18  22
ENDBRANCH  17  18
BRANCH  17  23
ATOM     23  O   UNL     1      23.613   1.182  53.345  0.00  0.00    +0.000 OA
BRANCH  23  24
ATOM     24  C   UNL     1      22.724   0.354  52.750  0.00  0.00    +0.000 C 
ATOM     25  O   UNL     1      22.397   0.388  51.571  0.00  0.00    +0.000 OA
BRANCH  24  26
ATOM     26  C   UNL     1      22.266  -0.749  53.685  0.00  0.00    +0.000 C 
ATOM     27  C   UNL     1      23.237  -1.042  54.828  0.00  0.00    +0.000 C 
ATOM     28  C   UNL     1      20.873  -0.410  54.181  0.00  0.00    +0.000 C 
ENDBRANCH  24  26
ENDBRANCH  23  24
ENDBRANCH  17  23
ENDBRANCH   1  17
TORSDOF 8
ENDMDL
