MODEL 1
REMARK VINA RESULT:    -7.175      0.000      0.000
REMARK INTER + INTRA:         -13.620
REMARK INTER:                 -11.580
REMARK INTRA:                  -2.040
REMARK UNBOUND:                -2.040
REMARK  Name = 
REMARK  13 active torsions:
REMARK  status: ('A' for Active; 'I' for Inactive)
REMARK    1  A    between atoms: C_1  and  C_2
REMARK    2  A    between atoms: C_2  and  C_3
REMARK    3  A    between atoms: C_3  and  C_4
REMARK    4  A    between atoms: C_4  and  N_5
REMARK    5  A    between atoms: N_5  and  C_6
REMARK    6  A    between atoms: N_5  and  C_10
REMARK    7  A    between atoms: C_6  and  C_7
REMARK    8  A    between atoms: C_7  and  C_8
REMARK    9  A    between atoms: C_8  and  C_9
REMARK   10  A    between atoms: C_10  and  C_11
REMARK   11  A    between atoms: C_11  and  N_12
REMARK   12  A    between atoms: N_12  and  C_13
REMARK   13  A    between atoms: C_23  and  O_24
REMARK                            x       y       z     vdW  Elec       q    Type
REMARK                         _______ _______ _______ _____ _____    ______ ____
ROOT
ATOM      1  C   UNL     1      21.586   3.896  52.035  0.00  0.00    +0.000 A 
ATOM      2  C   UNL     1      20.205   3.841  51.730  0.00  0.00    +0.000 A 
ATOM      3  C   UNL     1      19.443   2.649  51.808  0.00  0.00    +0.000 A 
ATOM      4  C   UNL     1      20.075   1.512  52.308  0.00  0.00    +0.000 A 
ATOM      5  N   UNL     1      19.614   0.255  52.642  0.00  0.00    +0.000 NA
ATOM      6  C   UNL     1      20.654  -0.370  53.169  0.00  0.00    +0.000 A 
ATOM      7  N   UNL     1      21.749   0.429  53.172  0.00  0.00    +0.000 N 
ATOM      8  C   UNL     1      23.067   0.260  53.650  0.00  0.00    +0.000 A 
ATOM      9  C   UNL     1      23.389  -0.773  54.522  0.00  0.00    +0.000 A 
ATOM     10  C   UNL     1      24.721  -1.079  54.690  0.00  0.00    +0.000 A 
ATOM     11  C   UNL     1      25.629  -0.501  53.809  0.00  0.00    +0.000 A 
ATOM     12  C   UNL     1      25.380   0.707  53.172  0.00  0.00    +0.000 A 
ATOM     13  C   UNL     1      24.067   1.153  53.151  0.00  0.00    +0.000 A 
ATOM     14  C   UNL     1      23.699   2.460  52.535  0.00  0.00    +0.000 A 
ATOM     15  O   UNL     1      24.540   3.308  52.267  0.00  0.00    +0.000 OA
ATOM     16  C   UNL     1      22.237   2.690  52.314  0.00  0.00    +0.000 A 
ATOM     17  C   UNL     1      21.422   1.592  52.544  0.00  0.00    +0.000 A 
ENDROOT
BRANCH   1  18
ATOM     18  N   UNL     1      22.287   5.098  52.097  0.00  0.00    +0.000 N 
ATOM     19  H   UNL     1      23.032   5.189  52.735  0.00  0.00    +0.000 HD
BRANCH  18  20
ATOM     20  C   UNL     1      21.940   6.235  51.230  0.00  0.00    +0.000 C 
BRANCH  20  21
ATOM     21  C   UNL     1      22.816   6.377  49.947  0.00  0.00    +0.000 C 
BRANCH  21  22
ATOM     22  N   UNL     1      23.872   5.333  49.846  0.00  0.00    +0.000 N 
ATOM     23  H   UNL     1      23.755   4.713  50.648  0.00  0.00    +0.000 HD
BRANCH  22  24
ATOM     24  C   UNL     1      23.683   4.467  48.671  0.00  0.00    +0.000 C 
BRANCH  24  25
ATOM     25  C   UNL     1      23.307   2.986  48.901  0.00  0.00    +0.000 C 
BRANCH  25  27
ATOM     26  C   UNL     1      21.543   1.100  48.891  0.00  0.00    +0.000 C 
ATOM     27  C   UNL     1      21.899   2.527  48.501  0.00  0.00    +0.000 C 
ENDBRANCH  25  27
ENDBRANCH  24  25
ENDBRANCH  22  24
BRANCH  22  28
ATOM     28  C   UNL     1      25.241   5.855  50.033  0.00  0.00    +0.000 C 
BRANCH  28  29
ATOM     29  C   UNL     1      26.261   5.954  48.874  0.00  0.00    +0.000 C 
BRANCH  29  30
ATOM     30  C   UNL     1      27.329   4.868  48.732  0.00  0.00    +0.000 C 
ATOM     31  C   UNL     1      28.706   5.363  48.317  0.00  0.00    +0.000 C 
ENDBRANCH  29  30
ENDBRANCH  28  29
ENDBRANCH  22  28
ENDBRANCH  21  22
ENDBRANCH  20  21
ENDBRANCH  18  20
ENDBRANCH   1  18
BRANCH  11  32
ATOM     32  O   UNL     1      26.514  -1.367  53.221  0.00  0.00    +0.000 OA
ATOM     33  H   UNL     1      26.807  -1.214  52.345  0.00  0.00    +0.000 HD
ENDBRANCH  11  32
TORSDOF 11
ENDMDL
MODEL 2
REMARK VINA RESULT:    -6.990      2.413      7.102
REMARK INTER + INTRA:         -13.320
REMARK INTER:                 -12.481
REMARK INTRA:                  -0.840
REMARK UNBOUND:                -2.040
REMARK  Name = 
REMARK  13 active torsions:
REMARK  status: ('A' for Active; 'I' for Inactive)
REMARK    1  A    between atoms: C_1  and  C_2
REMARK    2  A    between atoms: C_2  and  C_3
REMARK    3  A    between atoms: C_3  and  C_4
REMARK    4  A    between atoms: C_4  and  N_5
REMARK    5  A    between atoms: N_5  and  C_6
REMARK    6  A    between atoms: N_5  and  C_10
REMARK    7  A    between atoms: C_6  and  C_7
REMARK    8  A    between atoms: C_7  and  C_8
REMARK    9  A    between atoms: C_8  and  C_9
REMARK   10  A    between atoms: C_10  and  C_11
REMARK   11  A    between atoms: C_11  and  N_12
REMARK   12  A    between atoms: N_12  and  C_13
REMARK   13  A    between atoms: C_23  and  O_24
REMARK                            x       y       z     vdW  Elec       q    Type
REMARK                         _______ _______ _______ _____ _____    ______ ____
ROOT
ATOM      1  C   UNL     1      23.782   3.695  50.765  0.00  0.00    +0.000 A 
ATOM      2  C   UNL     1      22.741   4.304  51.505  0.00  0.00    +0.000 A 
ATOM      3  C   UNL     1      22.670   5.700  51.733  0.00  0.00    +0.000 A 
ATOM      4  C   UNL     1      23.618   6.505  51.105  0.00  0.00    +0.000 A 
ATOM      5  N   UNL     1      23.760   7.873  50.995  0.00  0.00    +0.000 NA
ATOM      6  C   UNL     1      24.791   8.054  50.186  0.00  0.00    +0.000 A 
ATOM      7  N   UNL     1      25.311   6.866  49.791  0.00  0.00    +0.000 N 
ATOM      8  C   UNL     1      26.363   6.514  48.917  0.00  0.00    +0.000 A 
ATOM      9  C   UNL     1      26.905   7.441  48.034  0.00  0.00    +0.000 A 
ATOM     10  C   UNL     1      28.118   7.141  47.455  0.00  0.00    +0.000 A 
ATOM     11  C   UNL     1      28.823   6.057  47.965  0.00  0.00    +0.000 A 
ATOM     12  C   UNL     1      28.194   4.992  48.594  0.00  0.00    +0.000 A 
ATOM     13  C   UNL     1      26.890   5.189  49.022  0.00  0.00    +0.000 A 
ATOM     14  C   UNL     1      26.108   4.095  49.667  0.00  0.00    +0.000 A 
ATOM     15  O   UNL     1      26.464   2.925  49.608  0.00  0.00    +0.000 OA
ATOM     16  C   UNL     1      24.839   4.507  50.343  0.00  0.00    +0.000 A 
ATOM     17  C   UNL     1      24.637   5.876  50.439  0.00  0.00    +0.000 A 
ENDROOT
BRANCH   1  18
ATOM     18  N   UNL     1      23.762   2.344  50.425  0.00  0.00    +0.000 N 
ATOM     19  H   UNL     1      23.798   2.086  49.475  0.00  0.00    +0.000 HD
BRANCH  18  20
ATOM     20  C   UNL     1      23.688   1.294  51.453  0.00  0.00    +0.000 C 
BRANCH  20  21
ATOM     21  C   UNL     1      24.931   1.202  52.390  0.00  0.00    +0.000 C 
BRANCH  21  22
ATOM     22  N   UNL     1      24.807   0.133  53.418  0.00  0.00    +0.000 N 
ATOM     23  H   UNL     1      24.756   0.597  54.325  0.00  0.00    +0.000 HD
BRANCH  22  24
ATOM     24  C   UNL     1      23.538  -0.603  53.300  0.00  0.00    +0.000 C 
BRANCH  24  25
ATOM     25  C   UNL     1      22.818  -1.041  54.595  0.00  0.00    +0.000 C 
BRANCH  25  27
ATOM     26  C   UNL     1      20.670   0.345  54.227  0.00  0.00    +0.000 C 
ATOM     27  C   UNL     1      21.285  -0.989  54.624  0.00  0.00    +0.000 C 
ENDBRANCH  25  27
ENDBRANCH  24  25
ENDBRANCH  22  24
BRANCH  22  28
ATOM     28  C   UNL     1      26.015  -0.707  53.549  0.00  0.00    +0.000 C 
BRANCH  28  29
ATOM     29  C   UNL     1      27.294  -0.463  52.713  0.00  0.00    +0.000 C 
BRANCH  29  30
ATOM     30  C   UNL     1      28.651  -0.458  53.418  0.00  0.00    +0.000 C 
ATOM     31  C   UNL     1      28.661   0.171  54.804  0.00  0.00    +0.000 C 
ENDBRANCH  29  30
ENDBRANCH  28  29
ENDBRANCH  22  28
ENDBRANCH  21  22
ENDBRANCH  20  21
ENDBRANCH  18  20
ENDBRANCH   1  18
BRANCH  11  32
ATOM     32  O   UNL     1      30.137   6.299  48.269  0.00  0.00    +0.000 OA
ATOM     33  H   UNL     1      30.673   5.611  48.611  0.00  0.00    +0.000 HD
ENDBRANCH  11  32
TORSDOF 11
ENDMDL
MODEL 3
REMARK VINA RESULT:    -6.986      2.174      7.208
REMARK INTER + INTRA:         -13.314
REMARK INTER:                 -12.251
REMARK INTRA:                  -1.063
REMARK UNBOUND:                -2.040
REMARK  Name = 
REMARK  13 active torsions:
REMARK  status: ('A' for Active; 'I' for Inactive)
REMARK    1  A    between atoms: C_1  and  C_2
REMARK    2  A    between atoms: C_2  and  C_3
REMARK    3  A    between atoms: C_3  and  C_4
REMARK    4  A    between atoms: C_4  and  N_5
REMARK    5  A    between atoms: N_5  and  C_6
REMARK    6  A    between atoms: N_5  and  C_10
REMARK    7  A    between atoms: C_6  and  C_7
REMARK    8  A    between atoms: C_7  and  C_8
REMARK    9  A    between atoms: C_8  and  C_9
REMARK   10  A    between atoms: C_10  and  C_11
REMARK   11  A    between atoms: C_11  and  N_12
REMARK   12  A    between atoms: N_12  and  C_13
REMARK   13  A    between atoms: C_23  and  O_24
REMARK                            x       y       z     vdW  Elec       q    Type
REMARK                         _______ _______ _______ _____ _____    ______ ____
ROOT
ATOM      1  C   UNL     1      22.807   3.908  50.366  0.00  0.00    +0.000 A 
ATOM      2  C   UNL     1      21.752   4.640  50.960  0.00  0.00    +0.000 A 
ATOM      3  C   UNL     1      21.822   6.033  51.209  0.00  0.00    +0.000 A 
ATOM      4  C   UNL     1      22.947   6.714  50.748  0.00  0.00    +0.000 A 
ATOM      5  N   UNL     1      23.274   8.054  50.694  0.00  0.00    +0.000 NA
ATOM      6  C   UNL     1      24.429   8.106  50.050  0.00  0.00    +0.000 A 
ATOM      7  N   UNL     1      24.849   6.864  49.706  0.00  0.00    +0.000 N 
ATOM      8  C   UNL     1      25.967   6.387  48.989  0.00  0.00    +0.000 A 
ATOM      9  C   UNL     1      26.746   7.242  48.218  0.00  0.00    +0.000 A 
ATOM     10  C   UNL     1      27.985   6.794  47.816  0.00  0.00    +0.000 A 
ATOM     11  C   UNL     1      28.465   5.625  48.398  0.00  0.00    +0.000 A 
ATOM     12  C   UNL     1      27.621   4.645  48.901  0.00  0.00    +0.000 A 
ATOM     13  C   UNL     1      26.303   5.004  49.138  0.00  0.00    +0.000 A 
ATOM     14  C   UNL     1      25.303   4.015  49.633  0.00  0.00    +0.000 A 
ATOM     15  O   UNL     1      25.515   2.810  49.598  0.00  0.00    +0.000 OA
ATOM     16  C   UNL     1      24.008   4.582  50.124  0.00  0.00    +0.000 A 
ATOM     17  C   UNL     1      23.967   5.965  50.224  0.00  0.00    +0.000 A 
ENDROOT
BRANCH   1  18
ATOM     18  N   UNL     1      22.669   2.573  49.994  0.00  0.00    +0.000 N 
ATOM     19  H   UNL     1      22.632   2.341  49.038  0.00  0.00    +0.000 HD
BRANCH  18  20
ATOM     20  C   UNL     1      22.577   1.501  50.998  0.00  0.00    +0.000 C 
BRANCH  20  21
ATOM     21  C   UNL     1      23.518   1.672  52.230  0.00  0.00    +0.000 C 
BRANCH  21  22
ATOM     22  N   UNL     1      24.366   0.475  52.485  0.00  0.00    +0.000 N 
ATOM     23  H   UNL     1      24.172  -0.190  51.737  0.00  0.00    +0.000 HD
BRANCH  22  24
ATOM     24  C   UNL     1      25.801   0.778  52.356  0.00  0.00    +0.000 C 
BRANCH  24  25
ATOM     25  C   UNL     1      26.789  -0.399  52.191  0.00  0.00    +0.000 C 
BRANCH  25  27
ATOM     26  C   UNL     1      27.594   0.153  54.582  0.00  0.00    +0.000 C 
ATOM     27  C   UNL     1      27.815  -0.644  53.305  0.00  0.00    +0.000 C 
ENDBRANCH  25  27
ENDBRANCH  24  25
ENDBRANCH  22  24
BRANCH  22  28
ATOM     28  C   UNL     1      23.984  -0.274  53.699  0.00  0.00    +0.000 C 
BRANCH  28  29
ATOM     29  C   UNL     1      22.652  -1.052  53.813  0.00  0.00    +0.000 C 
BRANCH  29  30
ATOM     30  C   UNL     1      21.564  -0.526  54.750  0.00  0.00    +0.000 C 
ATOM     31  C   UNL     1      20.398   0.171  54.065  0.00  0.00    +0.000 C 
ENDBRANCH  29  30
ENDBRANCH  28  29
ENDBRANCH  22  28
ENDBRANCH  21  22
ENDBRANCH  20  21
ENDBRANCH  18  20
ENDBRANCH   1  18
BRANCH  11  32
ATOM     32  O   UNL     1      29.738   5.696  48.899  0.00  0.00    +0.000 OA
ATOM     33  H   UNL     1      30.231   4.912  49.038  0.00  0.00    +0.000 HD
ENDBRANCH  11  32
TORSDOF 11
ENDMDL
MODEL 4
REMARK VINA RESULT:    -6.918      1.852      4.922
REMARK INTER + INTRA:         -13.205
REMARK INTER:                 -10.860
REMARK INTRA:                  -2.345
REMARK UNBOUND:                -2.040
REMARK  Name = 
REMARK  13 active torsions:
REMARK  status: ('A' for Active; 'I' for Inactive)
REMARK    1  A    between atoms: C_1  and  C_2
REMARK    2  A    between atoms: C_2  and  C_3
REMARK    3  A    between atoms: C_3  and  C_4
REMARK    4  A    between atoms: C_4  and  N_5
REMARK    5  A    between atoms: N_5  and  C_6
REMARK    6  A    between atoms: N_5  and  C_10
REMARK    7  A    between atoms: C_6  and  C_7
REMARK    8  A    between atoms: C_7  and  C_8
REMARK    9  A    between atoms: C_8  and  C_9
REMARK   10  A    between atoms: C_10  and  C_11
REMARK   11  A    between atoms: C_11  and  N_12
REMARK   12  A    between atoms: N_12  and  C_13
REMARK   13  A    between atoms: C_23  and  O_24
REMARK                            x       y       z     vdW  Elec       q    Type
REMARK                         _______ _______ _______ _____ _____    ______ ____
ROOT
ATOM      1  C   UNL     1      24.742   1.986  52.763  0.00  0.00    +0.000 A 
ATOM      2  C   UNL     1      25.390   0.896  53.391  0.00  0.00    +0.000 A 
ATOM      3  C   UNL     1      24.696  -0.236  53.884  0.00  0.00    +0.000 A 
ATOM      4  C   UNL     1      23.326  -0.310  53.637  0.00  0.00    +0.000 A 
ATOM      5  N   UNL     1      22.389  -1.301  53.843  0.00  0.00    +0.000 NA
ATOM      6  C   UNL     1      21.269  -0.841  53.310  0.00  0.00    +0.000 A 
ATOM      7  N   UNL     1      21.454   0.397  52.789  0.00  0.00    +0.000 N 
ATOM      8  C   UNL     1      20.609   1.286  52.088  0.00  0.00    +0.000 A 
ATOM      9  C   UNL     1      19.406   0.855  51.542  0.00  0.00    +0.000 A 
ATOM     10  C   UNL     1      18.493   1.814  51.166  0.00  0.00    +0.000 A 
ATOM     11  C   UNL     1      18.733   3.123  51.571  0.00  0.00    +0.000 A 
ATOM     12  C   UNL     1      20.010   3.599  51.828  0.00  0.00    +0.000 A 
ATOM     13  C   UNL     1      21.010   2.657  52.020  0.00  0.00    +0.000 A 
ATOM     14  C   UNL     1      22.426   3.061  52.256  0.00  0.00    +0.000 A 
ATOM     15  O   UNL     1      22.820   4.197  52.028  0.00  0.00    +0.000 OA
ATOM     16  C   UNL     1      23.344   1.982  52.736  0.00  0.00    +0.000 A 
ATOM     17  C   UNL     1      22.728   0.785  53.071  0.00  0.00    +0.000 A 
ENDROOT
BRANCH   1  18
ATOM     18  N   UNL     1      25.448   3.021  52.154  0.00  0.00    +0.000 N 
ATOM     19  H   UNL     1      25.553   3.877  52.628  0.00  0.00    +0.000 HD
BRANCH  18  20
ATOM     20  C   UNL     1      26.041   2.863  50.816  0.00  0.00    +0.000 C 
BRANCH  20  21
ATOM     21  C   UNL     1      26.206   4.187  50.009  0.00  0.00    +0.000 C 
BRANCH  21  22
ATOM     22  N   UNL     1      24.961   5.001  49.966  0.00  0.00    +0.000 N 
ATOM     23  H   UNL     1      24.358   4.662  50.715  0.00  0.00    +0.000 HD
BRANCH  22  24
ATOM     24  C   UNL     1      25.211   6.414  50.296  0.00  0.00    +0.000 C 
BRANCH  24  25
ATOM     25  C   UNL     1      24.153   7.175  51.125  0.00  0.00    +0.000 C 
BRANCH  25  27
ATOM     26  C   UNL     1      21.601   7.210  50.728  0.00  0.00    +0.000 C 
ATOM     27  C   UNL     1      22.962   7.795  50.382  0.00  0.00    +0.000 C 
ENDBRANCH  25  27
ENDBRANCH  24  25
ENDBRANCH  22  24
BRANCH  22  28
ATOM     28  C   UNL     1      24.143   4.769  48.758  0.00  0.00    +0.000 C 
BRANCH  28  29
ATOM     29  C   UNL     1      22.805   3.993  48.794  0.00  0.00    +0.000 C 
BRANCH  29  30
ATOM     30  C   UNL     1      22.829   2.469  48.669  0.00  0.00    +0.000 C 
ATOM     31  C   UNL     1      21.483   1.820  48.385  0.00  0.00    +0.000 C 
ENDBRANCH  29  30
ENDBRANCH  28  29
ENDBRANCH  22  28
ENDBRANCH  21  22
ENDBRANCH  20  21
ENDBRANCH  18  20
ENDBRANCH   1  18
BRANCH  11  32
ATOM     32  O   UNL     1      17.678   3.756  52.174  0.00  0.00    +0.000 OA
ATOM     33  H   UNL     1      17.183   4.397  51.702  0.00  0.00    +0.000 HD
ENDBRANCH  11  32
TORSDOF 11
ENDMDL
MODEL 5
REMARK VINA RESULT:    -6.824      2.151      3.751
REMARK INTER + INTRA:         -13.053
REMARK INTER:                 -11.849
REMARK INTRA:                  -1.204
REMARK UNBOUND:                -2.040
REMARK  Name = 
REMARK  13 active torsions:
REMARK  status: ('A' for Active; 'I' for Inactive)
REMARK    1  A    between atoms: C_1  and  C_2
REMARK    2  A    between atoms: C_2  and  C_3
REMARK    3  A    between atoms: C_3  and  C_4
REMARK    4  A    between atoms: C_4  and  N_5
REMARK    5  A    between atoms: N_5  and  C_6
REMARK    6  A    between atoms: N_5  and  C_10
REMARK    7  A    between atoms: C_6  and  C_7
REMARK    8  A    between atoms: C_7  and  C_8
REMARK    9  A    between atoms: C_8  and  C_9
REMARK   10  A    between atoms: C_10  and  C_11
REMARK   11  A    between atoms: C_11  and  N_12
REMARK   12  A    between atoms: N_12  and  C_13
REMARK   13  A    between atoms: C_23  and  O_24
REMARK                            x       y       z     vdW  Elec       q    Type
REMARK                         _______ _______ _______ _____ _____    ______ ____
ROOT
ATOM      1  C   UNL     1      23.403   2.050  51.140  0.00  0.00    +0.000 A 
ATOM      2  C   UNL     1      22.097   1.517  51.262  0.00  0.00    +0.000 A 
ATOM      3  C   UNL     1      21.784   0.430  52.115  0.00  0.00    +0.000 A 
ATOM      4  C   UNL     1      22.796  -0.056  52.940  0.00  0.00    +0.000 A 
ATOM      5  N   UNL     1      22.808  -0.982  53.962  0.00  0.00    +0.000 NA
ATOM      6  C   UNL     1      24.038  -0.949  54.450  0.00  0.00    +0.000 A 
ATOM      7  N   UNL     1      24.802  -0.054  53.778  0.00  0.00    +0.000 N 
ATOM      8  C   UNL     1      26.137   0.382  53.927  0.00  0.00    +0.000 A 
ATOM      9  C   UNL     1      26.855   0.114  55.086  0.00  0.00    +0.000 A 
ATOM     10  C   UNL     1      28.223   0.272  55.043  0.00  0.00    +0.000 A 
ATOM     11  C   UNL     1      28.809   0.457  53.796  0.00  0.00    +0.000 A 
ATOM     12  C   UNL     1      28.121   1.012  52.727  0.00  0.00    +0.000 A 
ATOM     13  C   UNL     1      26.738   1.052  52.816  0.00  0.00    +0.000 A 
ATOM     14  C   UNL     1      25.906   1.670  51.743  0.00  0.00    +0.000 A 
ATOM     15  O   UNL     1      26.393   2.395  50.885  0.00  0.00    +0.000 OA
ATOM     16  C   UNL     1      24.437   1.392  51.811  0.00  0.00    +0.000 A 
ATOM     17  C   UNL     1      24.056   0.452  52.757  0.00  0.00    +0.000 A 
ENDROOT
BRANCH   1  18
ATOM     18  N   UNL     1      23.668   3.208  50.413  0.00  0.00    +0.000 N 
ATOM     19  H   UNL     1      24.220   3.151  49.599  0.00  0.00    +0.000 HD
BRANCH  18  20
ATOM     20  C   UNL     1      23.143   4.517  50.834  0.00  0.00    +0.000 C 
BRANCH  20  21
ATOM     21  C   UNL     1      24.216   5.639  50.985  0.00  0.00    +0.000 C 
BRANCH  21  22
ATOM     22  N   UNL     1      24.232   6.587  49.838  0.00  0.00    +0.000 N 
ATOM     23  H   UNL     1      23.288   6.603  49.454  0.00  0.00    +0.000 HD
BRANCH  22  24
ATOM     24  C   UNL     1      24.486   7.972  50.269  0.00  0.00    +0.000 C 
BRANCH  24  25
ATOM     25  C   UNL     1      24.841   9.023  49.194  0.00  0.00    +0.000 C 
BRANCH  25  27
ATOM     26  C   UNL     1      27.153   9.147  50.338  0.00  0.00    +0.000 C 
ATOM     27  C   UNL     1      26.252   9.627  49.211  0.00  0.00    +0.000 C 
ENDBRANCH  25  27
ENDBRANCH  24  25
ENDBRANCH  22  24
BRANCH  22  28
ATOM     28  C   UNL     1      25.043   6.121  48.695  0.00  0.00    +0.000 C 
BRANCH  28  29
ATOM     29  C   UNL     1      26.436   5.472  48.872  0.00  0.00    +0.000 C 
BRANCH  29  30
ATOM     30  C   UNL     1      27.664   6.184  48.302  0.00  0.00    +0.000 C 
ATOM     31  C   UNL     1      28.942   5.359  48.282  0.00  0.00    +0.000 C 
ENDBRANCH  29  30
ENDBRANCH  28  29
ENDBRANCH  22  28
ENDBRANCH  21  22
ENDBRANCH  20  21
ENDBRANCH  18  20
ENDBRANCH   1  18
BRANCH  11  32
ATOM     32  O   UNL     1      29.878  -0.355  53.521  0.00  0.00    +0.000 OA
ATOM     33  H   UNL     1      30.724  -0.151  53.868  0.00  0.00    +0.000 HD
ENDBRANCH  11  32
TORSDOF 11
ENDMDL
MODEL 6
REMARK VINA RESULT:    -6.800      1.814      5.003
REMARK INTER + INTRA:         -13.015
REMARK INTER:                 -10.396
REMARK INTRA:                  -2.618
REMARK UNBOUND:                -2.040
REMARK  Name = 
REMARK  13 active torsions:
REMARK  status: ('A' for Active; 'I' for Inactive)
REMARK    1  A    between atoms: C_1  and  C_2
REMARK    2  A    between atoms: C_2  and  C_3
REMARK    3  A    between atoms: C_3  and  C_4
REMARK    4  A    between atoms: C_4  and  N_5
REMARK    5  A    between atoms: N_5  and  C_6
REMARK    6  A    between atoms: N_5  and  C_10
REMARK    7  A    between atoms: C_6  and  C_7
REMARK    8  A    between atoms: C_7  and  C_8
REMARK    9  A    between atoms: C_8  and  C_9
REMARK   10  A    between atoms: C_10  and  C_11
REMARK   11  A    between atoms: C_11  and  N_12
REMARK   12  A    between atoms: N_12  and  C_13
REMARK   13  A    between atoms: C_23  and  O_24
REMARK                            x       y       z     vdW  Elec       q    Type
REMARK                         _______ _______ _______ _____ _____    ______ ____
ROOT
ATOM      1  C   UNL     1      22.898   5.844  50.551  0.00  0.00    +0.000 A 
ATOM      2  C   UNL     1      23.288   6.644  49.451  0.00  0.00    +0.000 A 
ATOM      3  C   UNL     1      24.548   6.522  48.814  0.00  0.00    +0.000 A 
ATOM      4  C   UNL     1      25.386   5.492  49.236  0.00  0.00    +0.000 A 
ATOM      5  N   UNL     1      26.587   5.007  48.761  0.00  0.00    +0.000 NA
ATOM      6  C   UNL     1      26.854   3.945  49.503  0.00  0.00    +0.000 A 
ATOM      7  N   UNL     1      25.885   3.745  50.430  0.00  0.00    +0.000 N 
ATOM      8  C   UNL     1      25.678   2.753  51.413  0.00  0.00    +0.000 A 
ATOM      9  C   UNL     1      26.385   1.557  51.388  0.00  0.00    +0.000 A 
ATOM     10  C   UNL     1      26.381   0.785  52.528  0.00  0.00    +0.000 A 
ATOM     11  C   UNL     1      25.874   1.358  53.689  0.00  0.00    +0.000 A 
ATOM     12  C   UNL     1      24.929   2.374  53.665  0.00  0.00    +0.000 A 
ATOM     13  C   UNL     1      24.760   3.054  52.468  0.00  0.00    +0.000 A 
ATOM     14  C   UNL     1      23.739   4.130  52.321  0.00  0.00    +0.000 A 
ATOM     15  O   UNL     1      22.838   4.281  53.135  0.00  0.00    +0.000 OA
ATOM     16  C   UNL     1      23.852   4.977  51.093  0.00  0.00    +0.000 A 
ATOM     17  C   UNL     1      24.995   4.772  50.335  0.00  0.00    +0.000 A 
ENDROOT
BRANCH   1  18
ATOM     18  N   UNL     1      21.607   5.874  51.072  0.00  0.00    +0.000 N 
ATOM     19  H   UNL     1      21.460   6.237  51.976  0.00  0.00    +0.000 HD
BRANCH  18  20
ATOM     20  C   UNL     1      20.457   5.374  50.303  0.00  0.00    +0.000 C 
BRANCH  20  21
ATOM     21  C   UNL     1      19.701   4.175  50.955  0.00  0.00    +0.000 C 
BRANCH  21  22
ATOM     22  N   UNL     1      20.598   3.037  51.294  0.00  0.00    +0.000 N 
ATOM     23  H   UNL     1      21.502   3.437  51.547  0.00  0.00    +0.000 HD
BRANCH  22  24
ATOM     24  C   UNL     1      20.152   2.322  52.502  0.00  0.00    +0.000 C 
BRANCH  24  25
ATOM     25  C   UNL     1      20.570   0.845  52.679  0.00  0.00    +0.000 C 
BRANCH  25  27
ATOM     26  C   UNL     1      22.197  -0.338  54.299  0.00  0.00    +0.000 C 
ATOM     27  C   UNL     1      20.849   0.338  54.100  0.00  0.00    +0.000 C 
ENDBRANCH  25  27
ENDBRANCH  24  25
ENDBRANCH  22  24
BRANCH  22  28
ATOM     28  C   UNL     1      20.932   2.179  50.139  0.00  0.00    +0.000 C 
BRANCH  28  29
ATOM     29  C   UNL     1      22.389   1.905  49.698  0.00  0.00    +0.000 C 
BRANCH  29  30
ATOM     30  C   UNL     1      22.918   2.572  48.428  0.00  0.00    +0.000 C 
ATOM     31  C   UNL     1      21.898   3.395  47.654  0.00  0.00    +0.000 C 
ENDBRANCH  29  30
ENDBRANCH  28  29
ENDBRANCH  22  28
ENDBRANCH  21  22
ENDBRANCH  20  21
ENDBRANCH  18  20
ENDBRANCH   1  18
BRANCH  11  32
ATOM     32  O   UNL     1      26.673   1.250  54.798  0.00  0.00    +0.000 OA
ATOM     33  H   UNL     1      27.322   0.576  54.844  0.00  0.00    +0.000 HD
ENDBRANCH  11  32
TORSDOF 11
ENDMDL
MODEL 7
REMARK VINA RESULT:    -6.773      1.888      4.012
REMARK INTER + INTRA:         -12.970
REMARK INTER:                 -11.719
REMARK INTRA:                  -1.251
REMARK UNBOUND:                -2.040
REMARK  Name = 
REMARK  13 active torsions:
REMARK  status: ('A' for Active; 'I' for Inactive)
REMARK    1  A    between atoms: C_1  and  C_2
REMARK    2  A    between atoms: C_2  and  C_3
REMARK    3  A    between atoms: C_3  and  C_4
REMARK    4  A    between atoms: C_4  and  N_5
REMARK    5  A    between atoms: N_5  and  C_6
REMARK    6  A    between atoms: N_5  and  C_10
REMARK    7  A    between atoms: C_6  and  C_7
REMARK    8  A    between atoms: C_7  and  C_8
REMARK    9  A    between atoms: C_8  and  C_9
REMARK   10  A    between atoms: C_10  and  C_11
REMARK   11  A    between atoms: C_11  and  N_12
REMARK   12  A    between atoms: N_12  and  C_13
REMARK   13  A    between atoms: C_23  and  O_24
REMARK                            x       y       z     vdW  Elec       q    Type
REMARK                         _______ _______ _______ _____ _____    ______ ____
ROOT
ATOM      1  C   UNL     1      23.570   1.670  51.106  0.00  0.00    +0.000 A 
ATOM      2  C   UNL     1      22.243   1.209  51.285  0.00  0.00    +0.000 A 
ATOM      3  C   UNL     1      21.885   0.246  52.260  0.00  0.00    +0.000 A 
ATOM      4  C   UNL     1      22.876  -0.178  53.142  0.00  0.00    +0.000 A 
ATOM      5  N   UNL     1      22.850  -0.975  54.268  0.00  0.00    +0.000 NA
ATOM      6  C   UNL     1      24.080  -0.934  54.755  0.00  0.00    +0.000 A 
ATOM      7  N   UNL     1      24.880  -0.159  53.984  0.00  0.00    +0.000 N 
ATOM      8  C   UNL     1      26.232   0.236  54.087  0.00  0.00    +0.000 A 
ATOM      9  C   UNL     1      26.939   0.080  55.273  0.00  0.00    +0.000 A 
ATOM     10  C   UNL     1      28.312   0.175  55.218  0.00  0.00    +0.000 A 
ATOM     11  C   UNL     1      28.906   0.185  53.961  0.00  0.00    +0.000 A 
ATOM     12  C   UNL     1      28.241   0.635  52.829  0.00  0.00    +0.000 A 
ATOM     13  C   UNL     1      26.861   0.743  52.906  0.00  0.00    +0.000 A 
ATOM     14  C   UNL     1      26.055   1.261  51.763  0.00  0.00    +0.000 A 
ATOM     15  O   UNL     1      26.571   1.858  50.827  0.00  0.00    +0.000 OA
ATOM     16  C   UNL     1      24.576   1.055  51.857  0.00  0.00    +0.000 A 
ATOM     17  C   UNL     1      24.156   0.252  52.906  0.00  0.00    +0.000 A 
ENDROOT
BRANCH   1  18
ATOM     18  N   UNL     1      23.883   2.720  50.247  0.00  0.00    +0.000 N 
ATOM     19  H   UNL     1      24.650   3.301  50.456  0.00  0.00    +0.000 HD
BRANCH  18  20
ATOM     20  C   UNL     1      23.092   2.983  49.034  0.00  0.00    +0.000 C 
BRANCH  20  21
ATOM     21  C   UNL     1      23.025   4.480  48.604  0.00  0.00    +0.000 C 
BRANCH  21  22
ATOM     22  N   UNL     1      23.866   5.368  49.453  0.00  0.00    +0.000 N 
ATOM     23  H   UNL     1      24.178   4.810  50.247  0.00  0.00    +0.000 HD
BRANCH  22  24
ATOM     24  C   UNL     1      25.105   5.776  48.770  0.00  0.00    +0.000 C 
BRANCH  24  25
ATOM     25  C   UNL     1      26.425   5.077  49.162  0.00  0.00    +0.000 C 
BRANCH  25  27
ATOM     26  C   UNL     1      27.779   6.965  48.033  0.00  0.00    +0.000 C 
ATOM     27  C   UNL     1      27.710   5.500  48.438  0.00  0.00    +0.000 C 
ENDBRANCH  25  27
ENDBRANCH  24  25
ENDBRANCH  22  24
BRANCH  22  28
ATOM     28  C   UNL     1      23.110   6.461  50.098  0.00  0.00    +0.000 C 
BRANCH  28  29
ATOM     29  C   UNL     1      21.934   6.201  51.069  0.00  0.00    +0.000 C 
BRANCH  29  30
ATOM     30  C   UNL     1      22.036   5.042  52.062  0.00  0.00    +0.000 C 
ATOM     31  C   UNL     1      23.327   4.986  52.864  0.00  0.00    +0.000 C 
ENDBRANCH  29  30
ENDBRANCH  28  29
ENDBRANCH  22  28
ENDBRANCH  21  22
ENDBRANCH  20  21
ENDBRANCH  18  20
ENDBRANCH   1  18
BRANCH  11  32
ATOM     32  O   UNL     1      29.939  -0.698  53.790  0.00  0.00    +0.000 OA
ATOM     33  H   UNL     1      30.818  -0.383  53.718  0.00  0.00    +0.000 HD
ENDBRANCH  11  32
TORSDOF 11
ENDMDL
MODEL 8
REMARK VINA RESULT:    -6.754      1.760      3.021
REMARK INTER + INTRA:         -12.940
REMARK INTER:                 -11.496
REMARK INTRA:                  -1.444
REMARK UNBOUND:                -2.040
REMARK  Name = 
REMARK  13 active torsions:
REMARK  status: ('A' for Active; 'I' for Inactive)
REMARK    1  A    between atoms: C_1  and  C_2
REMARK    2  A    between atoms: C_2  and  C_3
REMARK    3  A    between atoms: C_3  and  C_4
REMARK    4  A    between atoms: C_4  and  N_5
REMARK    5  A    between atoms: N_5  and  C_6
REMARK    6  A    between atoms: N_5  and  C_10
REMARK    7  A    between atoms: C_6  and  C_7
REMARK    8  A    between atoms: C_7  and  C_8
REMARK    9  A    between atoms: C_8  and  C_9
REMARK   10  A    between atoms: C_10  and  C_11
REMARK   11  A    between atoms: C_11  and  N_12
REMARK   12  A    between atoms: N_12  and  C_13
REMARK   13  A    between atoms: C_23  and  O_24
REMARK                            x       y       z     vdW  Elec       q    Type
REMARK                         _______ _______ _______ _____ _____    ______ ____
ROOT
ATOM      1  C   UNL     1      22.127   1.058  52.363  0.00  0.00    +0.000 A 
ATOM      2  C   UNL     1      20.978   0.438  52.912  0.00  0.00    +0.000 A 
ATOM      3  C   UNL     1      21.044  -0.560  53.916  0.00  0.00    +0.000 A 
ATOM      4  C   UNL     1      22.297  -0.857  54.448  0.00  0.00    +0.000 A 
ATOM      5  N   UNL     1      22.703  -1.649  55.502  0.00  0.00    +0.000 NA
ATOM      6  C   UNL     1      24.008  -1.456  55.603  0.00  0.00    +0.000 A 
ATOM      7  N   UNL     1      24.444  -0.589  54.656  0.00  0.00    +0.000 N 
ATOM      8  C   UNL     1      25.708  -0.031  54.366  0.00  0.00    +0.000 A 
ATOM      9  C   UNL     1      26.751  -0.097  55.282  0.00  0.00    +0.000 A 
ATOM     10  C   UNL     1      28.023   0.166  54.826  0.00  0.00    +0.000 A 
ATOM     11  C   UNL     1      28.208   0.246  53.450  0.00  0.00    +0.000 A 
ATOM     12  C   UNL     1      27.187   0.609  52.583  0.00  0.00    +0.000 A 
ATOM     13  C   UNL     1      25.891   0.546  53.070  0.00  0.00    +0.000 A 
ATOM     14  C   UNL     1      24.725   0.959  52.237  0.00  0.00    +0.000 A 
ATOM     15  O   UNL     1      24.863   1.613  51.211  0.00  0.00    +0.000 OA
ATOM     16  C   UNL     1      23.377   0.573  52.759  0.00  0.00    +0.000 A 
ATOM     17  C   UNL     1      23.387  -0.274  53.857  0.00  0.00    +0.000 A 
ENDROOT
BRANCH   1  18
ATOM     18  N   UNL     1      22.042   2.137  51.487  0.00  0.00    +0.000 N 
ATOM     19  H   UNL     1      21.940   1.967  50.522  0.00  0.00    +0.000 HD
BRANCH  18  20
ATOM     20  C   UNL     1      22.103   3.525  51.970  0.00  0.00    +0.000 C 
BRANCH  20  21
ATOM     21  C   UNL     1      22.590   4.568  50.916  0.00  0.00    +0.000 C 
BRANCH  21  22
ATOM     22  N   UNL     1      23.684   4.051  50.049  0.00  0.00    +0.000 N 
ATOM     23  H   UNL     1      23.884   3.100  50.359  0.00  0.00    +0.000 HD
BRANCH  22  24
ATOM     24  C   UNL     1      23.258   3.909  48.647  0.00  0.00    +0.000 C 
BRANCH  24  25
ATOM     25  C   UNL     1      22.283   4.956  48.065  0.00  0.00    +0.000 C 
BRANCH  25  27
ATOM     26  C   UNL     1      23.545   7.190  47.765  0.00  0.00    +0.000 C 
ATOM     27  C   UNL     1      22.846   6.012  47.104  0.00  0.00    +0.000 C 
ENDBRANCH  25  27
ENDBRANCH  24  25
ENDBRANCH  22  24
BRANCH  22  28
ATOM     28  C   UNL     1      24.975   4.740  50.251  0.00  0.00    +0.000 C 
BRANCH  28  29
ATOM     29  C   UNL     1      26.198   4.504  49.332  0.00  0.00    +0.000 C 
BRANCH  29  30
ATOM     30  C   UNL     1      26.902   5.711  48.711  0.00  0.00    +0.000 C 
ATOM     31  C   UNL     1      28.366   5.497  48.357  0.00  0.00    +0.000 C 
ENDBRANCH  29  30
ENDBRANCH  28  29
ENDBRANCH  22  28
ENDBRANCH  21  22
ENDBRANCH  20  21
ENDBRANCH  18  20
ENDBRANCH   1  18
BRANCH  11  32
ATOM     32  O   UNL     1      29.240  -0.503  52.949  0.00  0.00    +0.000 OA
ATOM     33  H   UNL     1      29.147  -0.938  52.125  0.00  0.00    +0.000 HD
ENDBRANCH  11  32
TORSDOF 11
ENDMDL
MODEL 9
REMARK VINA RESULT:    -6.685      2.059      4.535
REMARK INTER + INTRA:         -12.828
REMARK INTER:                 -10.490
REMARK INTRA:                  -2.338
REMARK UNBOUND:                -2.040
REMARK  Name = 
REMARK  13 active torsions:
REMARK  status: ('A' for Active; 'I' for Inactive)
REMARK    1  A    between atoms: C_1  and  C_2
REMARK    2  A    between atoms: C_2  and  C_3
REMARK    3  A    between atoms: C_3  and  C_4
REMARK    4  A    between atoms: C_4  and  N_5
REMARK    5  A    between atoms: N_5  and  C_6
REMARK    6  A    between atoms: N_5  and  C_10
REMARK    7  A    between atoms: C_6  and  C_7
REMARK    8  A    between atoms: C_7  and  C_8
REMARK    9  A    between atoms: C_8  and  C_9
REMARK   10  A    between atoms: C_10  and  C_11
REMARK   11  A    between atoms: C_11  and  N_12
REMARK   12  A    between atoms: N_12  and  C_13
REMARK   13  A    between atoms: C_23  and  O_24
REMARK                            x       y       z     vdW  Elec       q    Type
REMARK                         _______ _______ _______ _____ _____    ______ ____
ROOT
ATOM      1  C   UNL     1      20.853   2.281  52.566  0.00  0.00    +0.000 A 
ATOM      2  C   UNL     1      20.533   3.569  52.074  0.00  0.00    +0.000 A 
ATOM      3  C   UNL     1      21.511   4.491  51.626  0.00  0.00    +0.000 A 
ATOM      4  C   UNL     1      22.833   4.054  51.577  0.00  0.00    +0.000 A 
ATOM      5  N   UNL     1      23.988   4.620  51.078  0.00  0.00    +0.000 NA
ATOM      6  C   UNL     1      24.921   3.691  51.214  0.00  0.00    +0.000 A 
ATOM      7  N   UNL     1      24.410   2.572  51.785  0.00  0.00    +0.000 N 
ATOM      8  C   UNL     1      24.961   1.312  52.102  0.00  0.00    +0.000 A 
ATOM      9  C   UNL     1      26.178   0.904  51.570  0.00  0.00    +0.000 A 
ATOM     10  C   UNL     1      26.809  -0.169  52.159  0.00  0.00    +0.000 A 
ATOM     11  C   UNL     1      26.309  -0.619  53.376  0.00  0.00    +0.000 A 
ATOM     12  C   UNL     1      24.983  -0.442  53.746  0.00  0.00    +0.000 A 
ATOM     13  C   UNL     1      24.249   0.500  53.041  0.00  0.00    +0.000 A 
ATOM     14  C   UNL     1      22.805   0.735  53.326  0.00  0.00    +0.000 A 
ATOM     15  O   UNL     1      22.140  -0.054  53.986  0.00  0.00    +0.000 OA
ATOM     16  C   UNL     1      22.207   1.962  52.714  0.00  0.00    +0.000 A 
ATOM     17  C   UNL     1      23.110   2.821  52.106  0.00  0.00    +0.000 A 
ENDROOT
BRANCH   1  18
ATOM     18  N   UNL     1      19.877   1.334  52.864  0.00  0.00    +0.000 N 
ATOM     19  H   UNL     1      19.799   0.996  53.786  0.00  0.00    +0.000 HD
BRANCH  18  20
ATOM     20  C   UNL     1      18.958   0.827  51.832  0.00  0.00    +0.000 C 
BRANCH  20  21
ATOM     21  C   UNL     1      19.641   0.404  50.495  0.00  0.00    +0.000 C 
BRANCH  21  22
ATOM     22  N   UNL     1      19.222   1.241  49.338  0.00  0.00    +0.000 N 
ATOM     23  H   UNL     1      18.952   0.602  48.591  0.00  0.00    +0.000 HD
BRANCH  22  24
ATOM     24  C   UNL     1      18.003   2.015  49.628  0.00  0.00    +0.000 C 
BRANCH  24  25
ATOM     25  C   UNL     1      18.017   3.537  49.360  0.00  0.00    +0.000 C 
BRANCH  25  27
ATOM     26  C   UNL     1      16.834   3.856  51.633  0.00  0.00    +0.000 C 
ATOM     27  C   UNL     1      17.175   4.440  50.270  0.00  0.00    +0.000 C 
ENDBRANCH  25  27
ENDBRANCH  24  25
ENDBRANCH  22  24
BRANCH  22  28
ATOM     28  C   UNL     1      20.328   2.008  48.730  0.00  0.00    +0.000 C 
BRANCH  28  29
ATOM     29  C   UNL     1      21.800   1.536  48.789  0.00  0.00    +0.000 C 
BRANCH  29  30
ATOM     30  C   UNL     1      22.901   2.474  48.292  0.00  0.00    +0.000 C 
ATOM     31  C   UNL     1      22.427   3.845  47.835  0.00  0.00    +0.000 C 
ENDBRANCH  29  30
ENDBRANCH  28  29
ENDBRANCH  22  28
ENDBRANCH  21  22
ENDBRANCH  20  21
ENDBRANCH  18  20
ENDBRANCH   1  18
BRANCH  11  32
ATOM     32  O   UNL     1      27.238  -0.781  54.371  0.00  0.00    +0.000 OA
ATOM     33  H   UNL     1      27.623  -0.031  54.779  0.00  0.00    +0.000 HD
ENDBRANCH  11  32
TORSDOF 11
ENDMDL
