MODEL 1
REMARK VINA RESULT:    -8.128      0.000      0.000
REMARK INTER + INTRA:         -12.756
REMARK INTER:                 -10.980
REMARK INTRA:                  -1.776
REMARK UNBOUND:                -1.776
REMARK  Name = 
REMARK  12 active torsions:
REMARK  status: ('A' for Active; 'I' for Inactive)
REMARK    1  A    between atoms: C_1  and  C_2
REMARK    2  A    between atoms: C_2  and  C_3
REMARK    3  A    between atoms: C_3  and  C_4
REMARK    4  A    between atoms: C_10  and  C_11
REMARK    5  A    between atoms: C_11  and  C_13
REMARK    6  A    between atoms: C_13  and  C_14
REMARK    7  A    between atoms: C_13  and  C_15
REMARK    8  A    between atoms: C_15  and  C_16
REMARK    9  A    between atoms: C_15  and  O_17
REMARK   10  A    between atoms: C_18  and  O_19
REMARK   11  A    between atoms: C_24  and  C_25
REMARK   12  A    between atoms: C_24  and  C_26
REMARK                            x       y       z     vdW  Elec       q    Type
REMARK                         _______ _______ _______ _____ _____    ______ ____
ROOT
ATOM      1  C   UNL     1      22.328   0.011  52.423  0.00  0.00    +0.000 A 
ATOM      2  C   UNL     1      21.530   0.401  51.397  0.00  0.00    +0.000 A 
ATOM      3  C   UNL     1      20.522   1.314  52.057  0.00  0.00    +0.000 A 
ATOM      4  O   UNL     1      19.320   1.096  52.041  0.00  0.00    +0.000 OA
ATOM      5  O   UNL     1      21.106   2.374  52.749  0.00  0.00    +0.000 OA
ATOM      6  C   UNL     1      22.518   2.419  52.628  0.00  0.00    +0.000 A 
ATOM      7  C   UNL     1      23.114   3.515  51.967  0.00  0.00    +0.000 A 
ATOM      8  C   UNL     1      24.488   3.371  51.721  0.00  0.00    +0.000 A 
ATOM      9  C   UNL     1      25.231   2.255  52.220  0.00  0.00    +0.000 A 
ATOM     10  C   UNL     1      24.577   1.146  52.779  0.00  0.00    +0.000 A 
ATOM     11  C   UNL     1      23.186   1.176  52.845  0.00  0.00    +0.000 A 
ATOM     12  O   UNL     1      25.227  -0.008  53.130  0.00  0.00    +0.000 OA
ATOM     13  C   UNL     1      26.671   0.042  53.286  0.00  0.00    +0.000 C 
ATOM     14  C   UNL     1      27.008   0.224  54.774  0.00  0.00    +0.000 C 
ATOM     15  C   UNL     1      27.202  -1.316  52.815  0.00  0.00    +0.000 C 
ATOM     16  C   UNL     1      27.333   1.129  52.485  0.00  0.00    +0.000 C 
ATOM     17  C   UNL     1      26.673   2.169  51.984  0.00  0.00    +0.000 C 
ENDROOT
BRANCH   7  18
ATOM     18  C   UNL     1      22.157   4.428  51.213  0.00  0.00    +0.000 C 
ATOM     19  O   UNL     1      21.965   5.540  51.729  0.00  0.00    +0.000 OA
BRANCH  18  20
ATOM     20  C   UNL     1      21.385   4.157  49.905  0.00  0.00    +0.000 C 
ATOM     21  C   UNL     1      20.148   5.050  49.819  0.00  0.00    +0.000 C 
BRANCH  20  22
ATOM     22  C   UNL     1      22.211   3.993  48.636  0.00  0.00    +0.000 C 
ATOM     23  C   UNL     1      22.881   2.652  48.369  0.00  0.00    +0.000 C 
BRANCH  22  24
ATOM     24  O   UNL     1      23.274   4.966  48.759  0.00  0.00    +0.000 OA
ATOM     25  H   UNL     1      22.901   5.860  48.716  0.00  0.00    +0.000 HD
ENDBRANCH  22  24
ENDBRANCH  20  22
ENDBRANCH  18  20
ENDBRANCH   7  18
BRANCH   8  26
ATOM     26  O   UNL     1      25.215   4.166  50.882  0.00  0.00    +0.000 OA
ATOM     27  H   UNL     1      25.136   4.063  49.954  0.00  0.00    +0.000 HD
ENDBRANCH   8  26
BRANCH   1  28
ATOM     28  C   UNL     1      21.767  -1.059  53.327  0.00  0.00    +0.000 C 
BRANCH  28  30
ATOM     29  C   UNL     1      23.107  -1.399  55.520  0.00  0.00    +0.000 C 
ATOM     30  C   UNL     1      21.835  -0.904  54.845  0.00  0.00    +0.000 C 
ENDBRANCH  28  30
ENDBRANCH   1  28
TORSDOF 7
ENDMDL
MODEL 2
REMARK VINA RESULT:    -7.995      1.706      2.195
REMARK INTER + INTRA:         -12.576
REMARK INTER:                 -11.546
REMARK INTRA:                  -1.030
REMARK UNBOUND:                -1.776
REMARK  Name = 
REMARK  12 active torsions:
REMARK  status: ('A' for Active; 'I' for Inactive)
REMARK    1  A    between atoms: C_1  and  C_2
REMARK    2  A    between atoms: C_2  and  C_3
REMARK    3  A    between atoms: C_3  and  C_4
REMARK    4  A    between atoms: C_10  and  C_11
REMARK    5  A    between atoms: C_11  and  C_13
REMARK    6  A    between atoms: C_13  and  C_14
REMARK    7  A    between atoms: C_13  and  C_15
REMARK    8  A    between atoms: C_15  and  C_16
REMARK    9  A    between atoms: C_15  and  O_17
REMARK   10  A    between atoms: C_18  and  O_19
REMARK   11  A    between atoms: C_24  and  C_25
REMARK   12  A    between atoms: C_24  and  C_26
REMARK                            x       y       z     vdW  Elec       q    Type
REMARK                         _______ _______ _______ _____ _____    ______ ____
ROOT
ATOM      1  C   UNL     1      22.297   0.824  51.424  0.00  0.00    +0.000 A 
ATOM      2  C   UNL     1      21.851   1.310  50.238  0.00  0.00    +0.000 A 
ATOM      3  C   UNL     1      20.978   2.478  50.638  0.00  0.00    +0.000 A 
ATOM      4  O   UNL     1      19.790   2.544  50.361  0.00  0.00    +0.000 OA
ATOM      5  O   UNL     1      21.644   3.423  51.417  0.00  0.00    +0.000 OA
ATOM      6  C   UNL     1      23.018   3.131  51.611  0.00  0.00    +0.000 A 
ATOM      7  C   UNL     1      23.987   4.006  51.073  0.00  0.00    +0.000 A 
ATOM      8  C   UNL     1      25.305   3.530  51.141  0.00  0.00    +0.000 A 
ATOM      9  C   UNL     1      25.633   2.313  51.818  0.00  0.00    +0.000 A 
ATOM     10  C   UNL     1      24.627   1.431  52.243  0.00  0.00    +0.000 A 
ATOM     11  C   UNL     1      23.304   1.786  51.999  0.00  0.00    +0.000 A 
ATOM     12  O   UNL     1      24.891   0.187  52.756  0.00  0.00    +0.000 OA
ATOM     13  C   UNL     1      26.237  -0.087  53.226  0.00  0.00    +0.000 C 
ATOM     14  C   UNL     1      26.289   0.123  54.747  0.00  0.00    +0.000 C 
ATOM     15  C   UNL     1      26.509  -1.563  52.915  0.00  0.00    +0.000 C 
ATOM     16  C   UNL     1      27.296   0.754  52.567  0.00  0.00    +0.000 C 
ATOM     17  C   UNL     1      27.028   1.877  51.908  0.00  0.00    +0.000 C 
ENDROOT
BRANCH   7  18
ATOM     18  C   UNL     1      23.459   5.057  50.106  0.00  0.00    +0.000 C 
ATOM     19  O   UNL     1      23.279   4.665  48.943  0.00  0.00    +0.000 OA
BRANCH  18  20
ATOM     20  C   UNL     1      23.129   6.541  50.369  0.00  0.00    +0.000 C 
ATOM     21  C   UNL     1      21.735   6.679  50.980  0.00  0.00    +0.000 C 
BRANCH  20  22
ATOM     22  C   UNL     1      24.236   7.399  50.968  0.00  0.00    +0.000 C 
ATOM     23  C   UNL     1      25.592   7.430  50.276  0.00  0.00    +0.000 C 
BRANCH  22  24
ATOM     24  O   UNL     1      24.460   6.847  52.285  0.00  0.00    +0.000 OA
ATOM     25  H   UNL     1      23.762   7.151  52.886  0.00  0.00    +0.000 HD
ENDBRANCH  22  24
ENDBRANCH  20  22
ENDBRANCH  18  20
ENDBRANCH   7  18
BRANCH   8  26
ATOM     26  O   UNL     1      26.362   4.069  50.467  0.00  0.00    +0.000 OA
ATOM     27  H   UNL     1      26.259   4.878  50.004  0.00  0.00    +0.000 HD
ENDBRANCH   8  26
BRANCH   1  28
ATOM     28  C   UNL     1      21.316  -0.016  52.205  0.00  0.00    +0.000 C 
BRANCH  28  30
ATOM     29  C   UNL     1      21.997  -0.814  54.577  0.00  0.00    +0.000 C 
ATOM     30  C   UNL     1      21.189   0.151  53.718  0.00  0.00    +0.000 C 
ENDBRANCH  28  30
ENDBRANCH   1  28
TORSDOF 7
ENDMDL
MODEL 3
REMARK VINA RESULT:    -7.801      2.066      4.683
REMARK INTER + INTRA:         -12.313
REMARK INTER:                 -11.102
REMARK INTRA:                  -1.211
REMARK UNBOUND:                -1.776
REMARK  Name = 
REMARK  12 active torsions:
REMARK  status: ('A' for Active; 'I' for Inactive)
REMARK    1  A    between atoms: C_1  and  C_2
REMARK    2  A    between atoms: C_2  and  C_3
REMARK    3  A    between atoms: C_3  and  C_4
REMARK    4  A    between atoms: C_10  and  C_11
REMARK    5  A    between atoms: C_11  and  C_13
REMARK    6  A    between atoms: C_13  and  C_14
REMARK    7  A    between atoms: C_13  and  C_15
REMARK    8  A    between atoms: C_15  and  C_16
REMARK    9  A    between atoms: C_15  and  O_17
REMARK   10  A    between atoms: C_18  and  O_19
REMARK   11  A    between atoms: C_24  and  C_25
REMARK   12  A    between atoms: C_24  and  C_26
REMARK                            x       y       z     vdW  Elec       q    Type
REMARK                         _______ _______ _______ _____ _____    ______ ____
ROOT
ATOM      1  C   UNL     1      24.022   2.946  50.866  0.00  0.00    +0.000 A 
ATOM      2  C   UNL     1      22.902   3.682  51.077  0.00  0.00    +0.000 A 
ATOM      3  C   UNL     1      21.954   3.203  50.000  0.00  0.00    +0.000 A 
ATOM      4  O   UNL     1      21.487   3.944  49.149  0.00  0.00    +0.000 OA
ATOM      5  O   UNL     1      21.736   1.826  50.031  0.00  0.00    +0.000 OA
ATOM      6  C   UNL     1      22.387   1.173  51.108  0.00  0.00    +0.000 A 
ATOM      7  C   UNL     1      21.604   0.554  52.107  0.00  0.00    +0.000 A 
ATOM      8  C   UNL     1      22.329   0.114  53.226  0.00  0.00    +0.000 A 
ATOM      9  C   UNL     1      23.757   0.183  53.274  0.00  0.00    +0.000 A 
ATOM     10  C   UNL     1      24.477   0.897  52.305  0.00  0.00    +0.000 A 
ATOM     11  C   UNL     1      23.759   1.524  51.290  0.00  0.00    +0.000 A 
ATOM     12  O   UNL     1      25.828   1.122  52.390  0.00  0.00    +0.000 OA
ATOM     13  C   UNL     1      26.602   0.288  53.293  0.00  0.00    +0.000 C 
ATOM     14  C   UNL     1      27.237  -0.860  52.494  0.00  0.00    +0.000 C 
ATOM     15  C   UNL     1      27.714   1.182  53.854  0.00  0.00    +0.000 C 
ATOM     16  C   UNL     1      25.805  -0.276  54.437  0.00  0.00    +0.000 C 
ATOM     17  C   UNL     1      24.476  -0.333  54.440  0.00  0.00    +0.000 C 
ENDROOT
BRANCH   7  18
ATOM     18  C   UNL     1      20.116   0.872  52.068  0.00  0.00    +0.000 C 
ATOM     19  O   UNL     1      19.798   1.984  52.516  0.00  0.00    +0.000 OA
BRANCH  18  20
ATOM     20  C   UNL     1      18.950  -0.002  51.559  0.00  0.00    +0.000 C 
ATOM     21  C   UNL     1      18.309  -0.765  52.717  0.00  0.00    +0.000 C 
BRANCH  20  22
ATOM     22  C   UNL     1      18.011   0.625  50.538  0.00  0.00    +0.000 C 
ATOM     23  C   UNL     1      16.994  -0.266  49.836  0.00  0.00    +0.000 C 
BRANCH  22  24
ATOM     24  O   UNL     1      18.881   1.145  49.506  0.00  0.00    +0.000 OA
ATOM     25  H   UNL     1      19.803   1.077  49.796  0.00  0.00    +0.000 HD
ENDBRANCH  22  24
ENDBRANCH  20  22
ENDBRANCH  18  20
ENDBRANCH   7  18
BRANCH   8  26
ATOM     26  O   UNL     1      21.771  -0.270  54.411  0.00  0.00    +0.000 OA
ATOM     27  H   UNL     1      20.952   0.095  54.683  0.00  0.00    +0.000 HD
ENDBRANCH   8  26
BRANCH   1  28
ATOM     28  C   UNL     1      24.901   3.390  49.722  0.00  0.00    +0.000 C 
BRANCH  28  30
ATOM     29  C   UNL     1      27.137   4.543  49.096  0.00  0.00    +0.000 C 
ATOM     30  C   UNL     1      26.417   3.467  49.897  0.00  0.00    +0.000 C 
ENDBRANCH  28  30
ENDBRANCH   1  28
TORSDOF 7
ENDMDL
MODEL 4
REMARK VINA RESULT:    -7.226      1.578      4.296
REMARK INTER + INTRA:         -11.536
REMARK INTER:                  -9.905
REMARK INTRA:                  -1.631
REMARK UNBOUND:                -1.776
REMARK  Name = 
REMARK  12 active torsions:
REMARK  status: ('A' for Active; 'I' for Inactive)
REMARK    1  A    between atoms: C_1  and  C_2
REMARK    2  A    between atoms: C_2  and  C_3
REMARK    3  A    between atoms: C_3  and  C_4
REMARK    4  A    between atoms: C_10  and  C_11
REMARK    5  A    between atoms: C_11  and  C_13
REMARK    6  A    between atoms: C_13  and  C_14
REMARK    7  A    between atoms: C_13  and  C_15
REMARK    8  A    between atoms: C_15  and  C_16
REMARK    9  A    between atoms: C_15  and  O_17
REMARK   10  A    between atoms: C_18  and  O_19
REMARK   11  A    between atoms: C_24  and  C_25
REMARK   12  A    between atoms: C_24  and  C_26
REMARK                            x       y       z     vdW  Elec       q    Type
REMARK                         _______ _______ _______ _____ _____    ______ ____
ROOT
ATOM      1  C   UNL     1      25.358   1.396  52.111  0.00  0.00    +0.000 A 
ATOM      2  C   UNL     1      25.649   2.716  51.994  0.00  0.00    +0.000 A 
ATOM      3  C   UNL     1      25.581   2.964  50.504  0.00  0.00    +0.000 A 
ATOM      4  O   UNL     1      26.533   3.371  49.855  0.00  0.00    +0.000 OA
ATOM      5  O   UNL     1      24.357   2.606  49.940  0.00  0.00    +0.000 OA
ATOM      6  C   UNL     1      23.406   2.155  50.890  0.00  0.00    +0.000 A 
ATOM      7  C   UNL     1      22.231   2.911  51.095  0.00  0.00    +0.000 A 
ATOM      8  C   UNL     1      21.455   2.497  52.189  0.00  0.00    +0.000 A 
ATOM      9  C   UNL     1      21.780   1.326  52.944  0.00  0.00    +0.000 A 
ATOM     10  C   UNL     1      23.009   0.673  52.767  0.00  0.00    +0.000 A 
ATOM     11  C   UNL     1      23.893   1.191  51.825  0.00  0.00    +0.000 A 
ATOM     12  O   UNL     1      23.431  -0.357  53.569  0.00  0.00    +0.000 OA
ATOM     13  C   UNL     1      22.439  -1.044  54.377  0.00  0.00    +0.000 C 
ATOM     14  C   UNL     1      21.990  -2.317  53.643  0.00  0.00    +0.000 C 
ATOM     15  C   UNL     1      23.144  -1.440  55.679  0.00  0.00    +0.000 C 
ATOM     16  C   UNL     1      21.235  -0.205  54.710  0.00  0.00    +0.000 C 
ATOM     17  C   UNL     1      20.915   0.903  54.047  0.00  0.00    +0.000 C 
ENDROOT
BRANCH   7  18
ATOM     18  C   UNL     1      22.216   4.291  50.452  0.00  0.00    +0.000 C 
ATOM     19  O   UNL     1      21.559   4.382  49.405  0.00  0.00    +0.000 OA
BRANCH  18  20
ATOM     20  C   UNL     1      22.915   5.585  50.918  0.00  0.00    +0.000 C 
ATOM     21  C   UNL     1      23.405   5.441  52.358  0.00  0.00    +0.000 C 
BRANCH  20  22
ATOM     22  C   UNL     1      23.859   6.256  49.928  0.00  0.00    +0.000 C 
ATOM     23  C   UNL     1      23.401   7.530  49.231  0.00  0.00    +0.000 C 
BRANCH  22  24
ATOM     24  O   UNL     1      24.065   5.271  48.890  0.00  0.00    +0.000 OA
ATOM     25  H   UNL     1      23.843   4.391  49.230  0.00  0.00    +0.000 HD
ENDBRANCH  22  24
ENDBRANCH  20  22
ENDBRANCH  18  20
ENDBRANCH   7  18
BRANCH   8  26
ATOM     26  O   UNL     1      20.432   3.219  52.733  0.00  0.00    +0.000 OA
ATOM     27  H   UNL     1      20.616   4.003  53.212  0.00  0.00    +0.000 HD
ENDBRANCH   8  26
BRANCH   1  28
ATOM     28  C   UNL     1      26.476   0.439  51.776  0.00  0.00    +0.000 C 
BRANCH  28  30
ATOM     29  C   UNL     1      26.896  -2.007  52.525  0.00  0.00    +0.000 C 
ATOM     30  C   UNL     1      27.015  -0.521  52.836  0.00  0.00    +0.000 C 
ENDBRANCH  28  30
ENDBRANCH   1  28
TORSDOF 7
ENDMDL
MODEL 5
REMARK VINA RESULT:    -7.061      2.059      4.580
REMARK INTER + INTRA:         -11.313
REMARK INTER:                  -9.755
REMARK INTRA:                  -1.558
REMARK UNBOUND:                -1.776
REMARK  Name = 
REMARK  12 active torsions:
REMARK  status: ('A' for Active; 'I' for Inactive)
REMARK    1  A    between atoms: C_1  and  C_2
REMARK    2  A    between atoms: C_2  and  C_3
REMARK    3  A    between atoms: C_3  and  C_4
REMARK    4  A    between atoms: C_10  and  C_11
REMARK    5  A    between atoms: C_11  and  C_13
REMARK    6  A    between atoms: C_13  and  C_14
REMARK    7  A    between atoms: C_13  and  C_15
REMARK    8  A    between atoms: C_15  and  C_16
REMARK    9  A    between atoms: C_15  and  O_17
REMARK   10  A    between atoms: C_18  and  O_19
REMARK   11  A    between atoms: C_24  and  C_25
REMARK   12  A    between atoms: C_24  and  C_26
REMARK                            x       y       z     vdW  Elec       q    Type
REMARK                         _______ _______ _______ _____ _____    ______ ____
ROOT
ATOM      1  C   UNL     1      24.517   3.121  50.419  0.00  0.00    +0.000 A 
ATOM      2  C   UNL     1      23.494   4.013  50.427  0.00  0.00    +0.000 A 
ATOM      3  C   UNL     1      22.726   3.684  49.167  0.00  0.00    +0.000 A 
ATOM      4  O   UNL     1      22.551   4.491  48.266  0.00  0.00    +0.000 OA
ATOM      5  O   UNL     1      22.311   2.354  49.105  0.00  0.00    +0.000 OA
ATOM      6  C   UNL     1      22.631   1.607  50.267  0.00  0.00    +0.000 A 
ATOM      7  C   UNL     1      21.582   1.104  51.067  0.00  0.00    +0.000 A 
ATOM      8  C   UNL     1      21.994   0.557  52.292  0.00  0.00    +0.000 A 
ATOM      9  C   UNL     1      23.377   0.414  52.627  0.00  0.00    +0.000 A 
ATOM     10  C   UNL     1      24.374   1.021  51.847  0.00  0.00    +0.000 A 
ATOM     11  C   UNL     1      23.973   1.751  50.732  0.00  0.00    +0.000 A 
ATOM     12  O   UNL     1      25.697   1.044  52.208  0.00  0.00    +0.000 OA
ATOM     13  C   UNL     1      26.145   0.101  53.218  0.00  0.00    +0.000 C 
ATOM     14  C   UNL     1      26.758  -1.124  52.522  0.00  0.00    +0.000 C 
ATOM     15  C   UNL     1      27.236   0.818  54.021  0.00  0.00    +0.000 C 
ATOM     16  C   UNL     1      25.060  -0.346  54.159  0.00  0.00    +0.000 C 
ATOM     17  C   UNL     1      23.764  -0.208  53.894  0.00  0.00    +0.000 C 
ENDROOT
BRANCH   7  18
ATOM     18  C   UNL     1      20.193   1.637  50.743  0.00  0.00    +0.000 C 
ATOM     19  O   UNL     1      19.478   0.880  50.069  0.00  0.00    +0.000 OA
BRANCH  18  20
ATOM     20  C   UNL     1      19.559   2.991  51.125  0.00  0.00    +0.000 C 
ATOM     21  C   UNL     1      20.413   3.705  52.171  0.00  0.00    +0.000 C 
BRANCH  20  22
ATOM     22  C   UNL     1      19.002   3.839  49.989  0.00  0.00    +0.000 C 
ATOM     23  C   UNL     1      17.500   3.826  49.736  0.00  0.00    +0.000 C 
BRANCH  22  24
ATOM     24  O   UNL     1      19.624   3.311  48.795  0.00  0.00    +0.000 OA
ATOM     25  H   UNL     1      20.527   3.655  48.721  0.00  0.00    +0.000 HD
ENDBRANCH  22  24
ENDBRANCH  20  22
ENDBRANCH  18  20
ENDBRANCH   7  18
BRANCH   8  26
ATOM     26  O   UNL     1      21.158   0.252  53.328  0.00  0.00    +0.000 OA
ATOM     27  H   UNL     1      21.279  -0.544  53.808  0.00  0.00    +0.000 HD
ENDBRANCH   8  26
BRANCH   1  28
ATOM     28  C   UNL     1      25.663   3.438  49.490  0.00  0.00    +0.000 C 
BRANCH  28  30
ATOM     29  C   UNL     1      27.518   5.043  48.648  0.00  0.00    +0.000 C 
ATOM     30  C   UNL     1      26.187   4.868  49.368  0.00  0.00    +0.000 C 
ENDBRANCH  28  30
ENDBRANCH   1  28
TORSDOF 7
ENDMDL
MODEL 6
REMARK VINA RESULT:    -6.947      2.119      4.956
REMARK INTER + INTRA:         -11.159
REMARK INTER:                  -9.861
REMARK INTRA:                  -1.298
REMARK UNBOUND:                -1.776
REMARK  Name = 
REMARK  12 active torsions:
REMARK  status: ('A' for Active; 'I' for Inactive)
REMARK    1  A    between atoms: C_1  and  C_2
REMARK    2  A    between atoms: C_2  and  C_3
REMARK    3  A    between atoms: C_3  and  C_4
REMARK    4  A    between atoms: C_10  and  C_11
REMARK    5  A    between atoms: C_11  and  C_13
REMARK    6  A    between atoms: C_13  and  C_14
REMARK    7  A    between atoms: C_13  and  C_15
REMARK    8  A    between atoms: C_15  and  C_16
REMARK    9  A    between atoms: C_15  and  O_17
REMARK   10  A    between atoms: C_18  and  O_19
REMARK   11  A    between atoms: C_24  and  C_25
REMARK   12  A    between atoms: C_24  and  C_26
REMARK                            x       y       z     vdW  Elec       q    Type
REMARK                         _______ _______ _______ _____ _____    ______ ____
ROOT
ATOM      1  C   UNL     1      24.593   4.456  50.452  0.00  0.00    +0.000 A 
ATOM      2  C   UNL     1      23.501   5.260  50.390  0.00  0.00    +0.000 A 
ATOM      3  C   UNL     1      23.097   5.199  48.934  0.00  0.00    +0.000 A 
ATOM      4  O   UNL     1      23.049   6.187  48.217  0.00  0.00    +0.000 OA
ATOM      5  O   UNL     1      22.866   3.901  48.480  0.00  0.00    +0.000 OA
ATOM      6  C   UNL     1      22.985   2.916  49.493  0.00  0.00    +0.000 A 
ATOM      7  C   UNL     1      21.841   2.178  49.867  0.00  0.00    +0.000 A 
ATOM      8  C   UNL     1      22.012   1.377  51.008  0.00  0.00    +0.000 A 
ATOM      9  C   UNL     1      23.283   1.238  51.648  0.00  0.00    +0.000 A 
ATOM     10  C   UNL     1      24.359   2.070  51.303  0.00  0.00    +0.000 A 
ATOM     11  C   UNL     1      24.153   3.022  50.308  0.00  0.00    +0.000 A 
ATOM     12  O   UNL     1      25.547   2.082  51.988  0.00  0.00    +0.000 OA
ATOM     13  C   UNL     1      25.849   0.952  52.849  0.00  0.00    +0.000 C 
ATOM     14  C   UNL     1      26.747  -0.034  52.086  0.00  0.00    +0.000 C 
ATOM     15  C   UNL     1      26.627   1.517  54.043  0.00  0.00    +0.000 C 
ATOM     16  C   UNL     1      24.631   0.231  53.359  0.00  0.00    +0.000 C 
ATOM     17  C   UNL     1      23.428   0.354  52.806  0.00  0.00    +0.000 C 
ENDROOT
BRANCH   7  18
ATOM     18  C   UNL     1      20.518   2.692  49.320  0.00  0.00    +0.000 C 
ATOM     19  O   UNL     1      20.137   2.162  48.265  0.00  0.00    +0.000 OA
BRANCH  18  20
ATOM     20  C   UNL     1      19.592   3.788  49.889  0.00  0.00    +0.000 C 
ATOM     21  C   UNL     1      19.167   4.755  48.785  0.00  0.00    +0.000 C 
BRANCH  20  22
ATOM     22  C   UNL     1      18.518   3.344  50.872  0.00  0.00    +0.000 C 
ATOM     23  C   UNL     1      17.294   4.229  51.066  0.00  0.00    +0.000 C 
BRANCH  22  24
ATOM     24  O   UNL     1      19.189   3.287  52.152  0.00  0.00    +0.000 OA
ATOM     25  H   UNL     1      19.039   2.419  52.557  0.00  0.00    +0.000 HD
ENDBRANCH  22  24
ENDBRANCH  20  22
ENDBRANCH  18  20
ENDBRANCH   7  18
BRANCH   8  26
ATOM     26  O   UNL     1      20.995   0.786  51.701  0.00  0.00    +0.000 OA
ATOM     27  H   UNL     1      20.463   0.135  51.287  0.00  0.00    +0.000 HD
ENDBRANCH   8  26
BRANCH   1  28
ATOM     28  C   UNL     1      25.882   5.052  49.942  0.00  0.00    +0.000 C 
BRANCH  28  30
ATOM     29  C   UNL     1      28.035   4.914  48.502  0.00  0.00    +0.000 C 
ATOM     30  C   UNL     1      26.892   4.183  49.193  0.00  0.00    +0.000 C 
ENDBRANCH  28  30
ENDBRANCH   1  28
TORSDOF 7
ENDMDL
MODEL 7
REMARK VINA RESULT:    -6.126      1.601      4.681
REMARK INTER + INTRA:         -10.050
REMARK INTER:                  -8.783
REMARK INTRA:                  -1.267
REMARK UNBOUND:                -1.776
REMARK  Name = 
REMARK  12 active torsions:
REMARK  status: ('A' for Active; 'I' for Inactive)
REMARK    1  A    between atoms: C_1  and  C_2
REMARK    2  A    between atoms: C_2  and  C_3
REMARK    3  A    between atoms: C_3  and  C_4
REMARK    4  A    between atoms: C_10  and  C_11
REMARK    5  A    between atoms: C_11  and  C_13
REMARK    6  A    between atoms: C_13  and  C_14
REMARK    7  A    between atoms: C_13  and  C_15
REMARK    8  A    between atoms: C_15  and  C_16
REMARK    9  A    between atoms: C_15  and  O_17
REMARK   10  A    between atoms: C_18  and  O_19
REMARK   11  A    between atoms: C_24  and  C_25
REMARK   12  A    between atoms: C_24  and  C_26
REMARK                            x       y       z     vdW  Elec       q    Type
REMARK                         _______ _______ _______ _____ _____    ______ ____
ROOT
ATOM      1  C   UNL     1      24.100   2.881  52.267  0.00  0.00    +0.000 A 
ATOM      2  C   UNL     1      23.961   4.106  51.701  0.00  0.00    +0.000 A 
ATOM      3  C   UNL     1      24.820   4.024  50.459  0.00  0.00    +0.000 A 
ATOM      4  O   UNL     1      25.770   4.766  50.260  0.00  0.00    +0.000 OA
ATOM      5  O   UNL     1      24.470   2.971  49.615  0.00  0.00    +0.000 OA
ATOM      6  C   UNL     1      23.336   2.243  50.056  0.00  0.00    +0.000 A 
ATOM      7  C   UNL     1      22.162   2.263  49.272  0.00  0.00    +0.000 A 
ATOM      8  C   UNL     1      21.041   1.685  49.887  0.00  0.00    +0.000 A 
ATOM      9  C   UNL     1      21.131   1.023  51.152  0.00  0.00    +0.000 A 
ATOM     10  C   UNL     1      22.292   1.122  51.935  0.00  0.00    +0.000 A 
ATOM     11  C   UNL     1      23.354   1.870  51.435  0.00  0.00    +0.000 A 
ATOM     12  O   UNL     1      22.375   0.637  53.216  0.00  0.00    +0.000 OA
ATOM     13  C   UNL     1      21.381  -0.331  53.644  0.00  0.00    +0.000 C 
ATOM     14  C   UNL     1      21.960  -1.746  53.487  0.00  0.00    +0.000 C 
ATOM     15  C   UNL     1      21.126  -0.057  55.131  0.00  0.00    +0.000 C 
ATOM     16  C   UNL     1      20.076  -0.237  52.901  0.00  0.00    +0.000 C 
ATOM     17  C   UNL     1      19.947   0.391  51.735  0.00  0.00    +0.000 C 
ENDROOT
BRANCH   7  18
ATOM     18  C   UNL     1      22.142   3.283  48.143  0.00  0.00    +0.000 C 
ATOM     19  O   UNL     1      22.346   2.825  47.009  0.00  0.00    +0.000 OA
BRANCH  18  20
ATOM     20  C   UNL     1      21.915   4.808  48.217  0.00  0.00    +0.000 C 
ATOM     21  C   UNL     1      21.341   5.328  46.900  0.00  0.00    +0.000 C 
BRANCH  20  22
ATOM     22  C   UNL     1      21.308   5.355  49.501  0.00  0.00    +0.000 C 
ATOM     23  C   UNL     1      19.858   5.823  49.483  0.00  0.00    +0.000 C 
BRANCH  22  24
ATOM     24  O   UNL     1      22.109   6.515  49.824  0.00  0.00    +0.000 OA
ATOM     25  H   UNL     1      22.950   6.471  49.344  0.00  0.00    +0.000 HD
ENDBRANCH  22  24
ENDBRANCH  20  22
ENDBRANCH  18  20
ENDBRANCH   7  18
BRANCH   8  26
ATOM     26  O   UNL     1      19.756   1.816  49.443  0.00  0.00    +0.000 OA
ATOM     27  H   UNL     1      19.085   2.103  50.030  0.00  0.00    +0.000 HD
ENDBRANCH   8  26
BRANCH   1  28
ATOM     28  C   UNL     1      25.384   2.643  53.022  0.00  0.00    +0.000 C 
BRANCH  28  30
ATOM     29  C   UNL     1      26.622   0.497  52.257  0.00  0.00    +0.000 C 
ATOM     30  C   UNL     1      25.840   1.221  53.345  0.00  0.00    +0.000 C 
ENDBRANCH  28  30
ENDBRANCH   1  28
TORSDOF 7
ENDMDL
MODEL 8
REMARK VINA RESULT:    -6.053      5.316      8.199
REMARK INTER + INTRA:          -9.952
REMARK INTER:                  -8.717
REMARK INTRA:                  -1.235
REMARK UNBOUND:                -1.776
REMARK  Name = 
REMARK  12 active torsions:
REMARK  status: ('A' for Active; 'I' for Inactive)
REMARK    1  A    between atoms: C_1  and  C_2
REMARK    2  A    between atoms: C_2  and  C_3
REMARK    3  A    between atoms: C_3  and  C_4
REMARK    4  A    between atoms: C_10  and  C_11
REMARK    5  A    between atoms: C_11  and  C_13
REMARK    6  A    between atoms: C_13  and  C_14
REMARK    7  A    between atoms: C_13  and  C_15
REMARK    8  A    between atoms: C_15  and  C_16
REMARK    9  A    between atoms: C_15  and  O_17
REMARK   10  A    between atoms: C_18  and  O_19
REMARK   11  A    between atoms: C_24  and  C_25
REMARK   12  A    between atoms: C_24  and  C_26
REMARK                            x       y       z     vdW  Elec       q    Type
REMARK                         _______ _______ _______ _____ _____    ______ ____
ROOT
ATOM      1  C   UNL     1      23.984   7.423  47.874  0.00  0.00    +0.000 A 
ATOM      2  C   UNL     1      24.709   8.018  46.893  0.00  0.00    +0.000 A 
ATOM      3  C   UNL     1      25.217   9.284  47.545  0.00  0.00    +0.000 A 
ATOM      4  O   UNL     1      24.956  10.399  47.121  0.00  0.00    +0.000 OA
ATOM      5  O   UNL     1      25.939   9.050  48.715  0.00  0.00    +0.000 OA
ATOM      6  C   UNL     1      26.111   7.674  49.009  0.00  0.00    +0.000 A 
ATOM      7  C   UNL     1      27.413   7.128  48.997  0.00  0.00    +0.000 A 
ATOM      8  C   UNL     1      27.459   5.729  49.100  0.00  0.00    +0.000 A 
ATOM      9  C   UNL     1      26.280   4.950  49.326  0.00  0.00    +0.000 A 
ATOM     10  C   UNL     1      25.005   5.527  49.228  0.00  0.00    +0.000 A 
ATOM     11  C   UNL     1      24.925   6.882  48.918  0.00  0.00    +0.000 A 
ATOM     12  O   UNL     1      23.846   4.796  49.284  0.00  0.00    +0.000 OA
ATOM     13  C   UNL     1      23.912   3.453  49.835  0.00  0.00    +0.000 C 
ATOM     14  C   UNL     1      23.496   3.497  51.313  0.00  0.00    +0.000 C 
ATOM     15  C   UNL     1      22.892   2.618  49.053  0.00  0.00    +0.000 C 
ATOM     16  C   UNL     1      25.266   2.809  49.713  0.00  0.00    +0.000 C 
ATOM     17  C   UNL     1      26.380   3.497  49.478  0.00  0.00    +0.000 C 
ENDROOT
BRANCH   7  18
ATOM     18  C   UNL     1      28.495   8.022  48.410  0.00  0.00    +0.000 C 
ATOM     19  O   UNL     1      28.660   7.923  47.184  0.00  0.00    +0.000 OA
BRANCH  18  20
ATOM     20  C   UNL     1      29.422   9.024  49.130  0.00  0.00    +0.000 C 
ATOM     21  C   UNL     1      30.859   8.504  49.149  0.00  0.00    +0.000 C 
BRANCH  20  22
ATOM     22  C   UNL     1      29.224  10.500  48.813  0.00  0.00    +0.000 C 
ATOM     23  C   UNL     1      30.350  11.474  49.135  0.00  0.00    +0.000 C 
BRANCH  22  24
ATOM     24  O   UNL     1      28.091  10.901  49.618  0.00  0.00    +0.000 OA
ATOM     25  H   UNL     1      28.388  11.095  50.521  0.00  0.00    +0.000 HD
ENDBRANCH  22  24
ENDBRANCH  20  22
ENDBRANCH  18  20
ENDBRANCH   7  18
BRANCH   8  26
ATOM     26  O   UNL     1      28.565   4.967  48.853  0.00  0.00    +0.000 OA
ATOM     27  H   UNL     1      28.782   4.729  47.973  0.00  0.00    +0.000 HD
ENDBRANCH   8  26
BRANCH   1  28
ATOM     28  C   UNL     1      22.609   7.995  48.121  0.00  0.00    +0.000 C 
BRANCH  28  30
ATOM     29  C   UNL     1      21.093   7.720  50.206  0.00  0.00    +0.000 C 
ATOM     30  C   UNL     1      22.214   8.484  49.513  0.00  0.00    +0.000 C 
ENDBRANCH  28  30
ENDBRANCH   1  28
TORSDOF 7
ENDMDL
MODEL 9
REMARK VINA RESULT:    -5.480      2.647      6.104
REMARK INTER + INTRA:          -9.179
REMARK INTER:                  -8.480
REMARK INTRA:                  -0.698
REMARK UNBOUND:                -1.776
REMARK  Name = 
REMARK  12 active torsions:
REMARK  status: ('A' for Active; 'I' for Inactive)
REMARK    1  A    between atoms: C_1  and  C_2
REMARK    2  A    between atoms: C_2  and  C_3
REMARK    3  A    between atoms: C_3  and  C_4
REMARK    4  A    between atoms: C_10  and  C_11
REMARK    5  A    between atoms: C_11  and  C_13
REMARK    6  A    between atoms: C_13  and  C_14
REMARK    7  A    between atoms: C_13  and  C_15
REMARK    8  A    between atoms: C_15  and  C_16
REMARK    9  A    between atoms: C_15  and  O_17
REMARK   10  A    between atoms: C_18  and  O_19
REMARK   11  A    between atoms: C_24  and  C_25
REMARK   12  A    between atoms: C_24  and  C_26
REMARK                            x       y       z     vdW  Elec       q    Type
REMARK                         _______ _______ _______ _____ _____    ______ ____
ROOT
ATOM      1  C   UNL     1      23.322   2.860  51.219  0.00  0.00    +0.000 A 
ATOM      2  C   UNL     1      24.339   3.684  51.577  0.00  0.00    +0.000 A 
ATOM      3  C   UNL     1      25.403   3.406  50.540  0.00  0.00    +0.000 A 
ATOM      4  O   UNL     1      26.516   2.989  50.825  0.00  0.00    +0.000 OA
ATOM      5  O   UNL     1      24.961   3.594  49.231  0.00  0.00    +0.000 OA
ATOM      6  C   UNL     1      23.631   4.079  49.147  0.00  0.00    +0.000 A 
ATOM      7  C   UNL     1      23.403   5.362  48.605  0.00  0.00    +0.000 A 
ATOM      8  C   UNL     1      22.088   5.831  48.749  0.00  0.00    +0.000 A 
ATOM      9  C   UNL     1      21.049   5.009  49.290  0.00  0.00    +0.000 A 
ATOM     10  C   UNL     1      21.348   3.784  49.908  0.00  0.00    +0.000 A 
ATOM     11  C   UNL     1      22.682   3.390  49.962  0.00  0.00    +0.000 A 
ATOM     12  O   UNL     1      20.413   3.035  50.574  0.00  0.00    +0.000 OA
ATOM     13  C   UNL     1      19.010   3.310  50.320  0.00  0.00    +0.000 C 
ATOM     14  C   UNL     1      18.486   2.318  49.270  0.00  0.00    +0.000 C 
ATOM     15  C   UNL     1      18.278   3.068  51.645  0.00  0.00    +0.000 C 
ATOM     16  C   UNL     1      18.737   4.717  49.862  0.00  0.00    +0.000 C 
ATOM     17  C   UNL     1      19.681   5.519  49.377  0.00  0.00    +0.000 C 
ENDROOT
BRANCH   7  18
ATOM     18  C   UNL     1      24.644   6.218  48.395  0.00  0.00    +0.000 C 
ATOM     19  O   UNL     1      24.742   6.748  47.278  0.00  0.00    +0.000 OA
BRANCH  18  20
ATOM     20  C   UNL     1      25.800   6.507  49.375  0.00  0.00    +0.000 C 
ATOM     21  C   UNL     1      27.148   6.359  48.671  0.00  0.00    +0.000 C 
BRANCH  20  22
ATOM     22  C   UNL     1      25.634   7.699  50.309  0.00  0.00    +0.000 C 
ATOM     23  C   UNL     1      24.893   8.928  49.800  0.00  0.00    +0.000 C 
BRANCH  22  24
ATOM     24  O   UNL     1      26.983   8.127  50.605  0.00  0.00    +0.000 OA
ATOM     25  H   UNL     1      27.262   7.753  51.456  0.00  0.00    +0.000 HD
ENDBRANCH  22  24
ENDBRANCH  20  22
ENDBRANCH  18  20
ENDBRANCH   7  18
BRANCH   8  26
ATOM     26  O   UNL     1      21.696   7.122  48.543  0.00  0.00    +0.000 OA
ATOM     27  H   UNL     1      20.999   7.310  47.944  0.00  0.00    +0.000 HD
ENDBRANCH   8  26
BRANCH   1  28
ATOM     28  C   UNL     1      23.484   1.407  51.595  0.00  0.00    +0.000 C 
BRANCH  28  30
ATOM     29  C   UNL     1      25.215   0.040  52.958  0.00  0.00    +0.000 C 
ATOM     30  C   UNL     1      24.049   1.021  52.961  0.00  0.00    +0.000 C 
ENDBRANCH  28  30
ENDBRANCH   1  28
TORSDOF 7
ENDMDL
