MODEL 1
REMARK VINA RESULT:   -10.418      0.000      0.000
REMARK INTER + INTRA:         -13.654
REMARK INTER:                 -12.855
REMARK INTRA:                  -0.799
REMARK UNBOUND:                -0.799
REMARK  Name = 
REMARK  4 active torsions:
REMARK  status: ('A' for Active; 'I' for Inactive)
REMARK    1  A    between atoms: C_2  and  C_4
REMARK    2  A    between atoms: C_7  and  C_8
REMARK    3  A    between atoms: C_10  and  C_11
REMARK    4  A    between atoms: C_17  and  C_18
REMARK                            x       y       z     vdW  Elec       q    Type
REMARK                         _______ _______ _______ _____ _____    ______ ____
ROOT
ATOM      1  C   UNL     1      22.876   1.060  52.080  0.00  0.00    +0.000 A 
ATOM      2  N   UNL     1      23.136   2.026  51.222  0.00  0.00    +0.000 NA
ATOM      3  C   UNL     1      24.500   2.264  51.303  0.00  0.00    +0.000 A 
ATOM      4  C   UNL     1      25.107   1.345  52.154  0.00  0.00    +0.000 A 
ATOM      5  N   UNL     1      24.045   0.613  52.640  0.00  0.00    +0.000 N 
ATOM      6  H   UNL     1      24.116  -0.122  53.292  0.00  0.00    +0.000 HD
ENDROOT
BRANCH   4   7
ATOM      7  C   UNL     1      26.488   1.086  52.569  0.00  0.00    +0.000 A 
ATOM      8  C   UNL     1      27.300   2.126  53.078  0.00  0.00    +0.000 A 
ATOM      9  C   UNL     1      28.583   1.871  53.578  0.00  0.00    +0.000 A 
ATOM     10  C   UNL     1      29.037   0.574  53.540  0.00  0.00    +0.000 A 
ATOM     11  C   UNL     1      28.280  -0.436  52.996  0.00  0.00    +0.000 A 
ATOM     12  C   UNL     1      27.015  -0.215  52.494  0.00  0.00    +0.000 A 
ATOM     13  O   UNL     1      28.906  -1.642  53.056  0.00  0.00    +0.000 OA
ATOM     14  C   UNL     1      30.056  -1.297  53.857  0.00  0.00    +0.000 C 
ATOM     15  O   UNL     1      30.223   0.125  54.027  0.00  0.00    +0.000 OA
ENDBRANCH   4   7
BRANCH   1  19
ATOM     16  C   UNL     1      19.030  -0.624  52.924  0.00  0.00    +0.000 A 
ATOM     17  C   UNL     1      19.228   0.160  51.782  0.00  0.00    +0.000 A 
ATOM     18  C   UNL     1      20.487   0.715  51.523  0.00  0.00    +0.000 A 
ATOM     19  C   UNL     1      21.565   0.490  52.391  0.00  0.00    +0.000 A 
ATOM     20  C   UNL     1      21.349  -0.276  53.547  0.00  0.00    +0.000 A 
ATOM     21  C   UNL     1      20.089  -0.823  53.815  0.00  0.00    +0.000 A 
BRANCH  16  23
ATOM     22  N   UNL     1      17.719  -2.387  53.978  0.00  0.00    +0.000 N 
ATOM     23  C   UNL     1      17.714  -1.233  53.248  0.00  0.00    +0.000 C 
ATOM     24  O   UNL     1      16.661  -0.704  52.915  0.00  0.00    +0.000 OA
ATOM     25  H   UNL     1      16.870  -2.824  54.215  0.00  0.00    +0.000 HD
ATOM     26  H   UNL     1      18.573  -2.782  54.267  0.00  0.00    +0.000 HD
ENDBRANCH  16  23
ENDBRANCH   1  19
BRANCH   3  27
ATOM     27  C   UNL     1      25.146   3.350  50.567  0.00  0.00    +0.000 A 
ATOM     28  C   UNL     1      26.279   3.102  49.802  0.00  0.00    +0.000 A 
ATOM     29  C   UNL     1      26.895   4.166  49.147  0.00  0.00    +0.000 A 
ATOM     30  C   UNL     1      26.359   5.444  49.266  0.00  0.00    +0.000 A 
ATOM     31  C   UNL     1      25.216   5.602  50.028  0.00  0.00    +0.000 A 
ATOM     32  N   UNL     1      24.599   4.589  50.672  0.00  0.00    +0.000 NA
ENDBRANCH   3  27
TORSDOF 4
ENDMDL
MODEL 2
REMARK VINA RESULT:   -10.058      2.674      4.857
REMARK INTER + INTRA:         -13.209
REMARK INTER:                 -12.465
REMARK INTRA:                  -0.744
REMARK UNBOUND:                -0.799
REMARK  Name = 
REMARK  4 active torsions:
REMARK  status: ('A' for Active; 'I' for Inactive)
REMARK    1  A    between atoms: C_2  and  C_4
REMARK    2  A    between atoms: C_7  and  C_8
REMARK    3  A    between atoms: C_10  and  C_11
REMARK    4  A    between atoms: C_17  and  C_18
REMARK                            x       y       z     vdW  Elec       q    Type
REMARK                         _______ _______ _______ _____ _____    ______ ____
ROOT
ATOM      1  C   UNL     1      23.178   0.531  52.731  0.00  0.00    +0.000 A 
ATOM      2  N   UNL     1      24.311   0.190  53.311  0.00  0.00    +0.000 NA
ATOM      3  C   UNL     1      25.296   0.982  52.739  0.00  0.00    +0.000 A 
ATOM      4  C   UNL     1      24.733   1.907  51.864  0.00  0.00    +0.000 A 
ATOM      5  N   UNL     1      23.394   1.578  51.872  0.00  0.00    +0.000 N 
ATOM      6  H   UNL     1      22.698   2.027  51.340  0.00  0.00    +0.000 HD
ENDROOT
BRANCH   4   7
ATOM      7  C   UNL     1      25.263   2.998  51.043  0.00  0.00    +0.000 A 
ATOM      8  C   UNL     1      26.405   2.807  50.232  0.00  0.00    +0.000 A 
ATOM      9  C   UNL     1      26.858   3.807  49.361  0.00  0.00    +0.000 A 
ATOM     10  C   UNL     1      26.163   4.992  49.336  0.00  0.00    +0.000 A 
ATOM     11  C   UNL     1      25.085   5.211  50.160  0.00  0.00    +0.000 A 
ATOM     12  C   UNL     1      24.619   4.247  51.029  0.00  0.00    +0.000 A 
ATOM     13  O   UNL     1      24.538   6.444  49.980  0.00  0.00    +0.000 OA
ATOM     14  C   UNL     1      25.284   6.893  48.830  0.00  0.00    +0.000 C 
ATOM     15  O   UNL     1      26.414   6.052  48.522  0.00  0.00    +0.000 OA
ENDBRANCH   4   7
BRANCH   1  19
ATOM     16  C   UNL     1      19.305  -1.189  53.351  0.00  0.00    +0.000 A 
ATOM     17  C   UNL     1      19.478  -0.134  52.448  0.00  0.00    +0.000 A 
ATOM     18  C   UNL     1      20.747   0.428  52.263  0.00  0.00    +0.000 A 
ATOM     19  C   UNL     1      21.859  -0.058  52.965  0.00  0.00    +0.000 A 
ATOM     20  C   UNL     1      21.669  -1.099  53.888  0.00  0.00    +0.000 A 
ATOM     21  C   UNL     1      20.400  -1.655  54.084  0.00  0.00    +0.000 A 
BRANCH  16  23
ATOM     22  N   UNL     1      16.880  -1.010  53.513  0.00  0.00    +0.000 N 
ATOM     23  C   UNL     1      17.979  -1.818  53.588  0.00  0.00    +0.000 C 
ATOM     24  O   UNL     1      17.864  -3.018  53.797  0.00  0.00    +0.000 OA
ATOM     25  H   UNL     1      15.983  -1.385  53.663  0.00  0.00    +0.000 HD
ATOM     26  H   UNL     1      16.986  -0.053  53.311  0.00  0.00    +0.000 HD
ENDBRANCH  16  23
ENDBRANCH   1  19
BRANCH   3  27
ATOM     27  C   UNL     1      26.713   0.813  53.058  0.00  0.00    +0.000 A 
ATOM     28  C   UNL     1      27.322  -0.428  52.907  0.00  0.00    +0.000 A 
ATOM     29  C   UNL     1      28.663  -0.565  53.259  0.00  0.00    +0.000 A 
ATOM     30  C   UNL     1      29.359   0.537  53.742  0.00  0.00    +0.000 A 
ATOM     31  C   UNL     1      28.686   1.741  53.840  0.00  0.00    +0.000 A 
ATOM     32  N   UNL     1      27.389   1.903  53.505  0.00  0.00    +0.000 NA
ENDBRANCH   3  27
TORSDOF 4
ENDMDL
MODEL 3
REMARK VINA RESULT:    -9.437      2.942      7.464
REMARK INTER + INTRA:         -12.443
REMARK INTER:                 -11.698
REMARK INTRA:                  -0.745
REMARK UNBOUND:                -0.799
REMARK  Name = 
REMARK  4 active torsions:
REMARK  status: ('A' for Active; 'I' for Inactive)
REMARK    1  A    between atoms: C_2  and  C_4
REMARK    2  A    between atoms: C_7  and  C_8
REMARK    3  A    between atoms: C_10  and  C_11
REMARK    4  A    between atoms: C_17  and  C_18
REMARK                            x       y       z     vdW  Elec       q    Type
REMARK                         _______ _______ _______ _____ _____    ______ ____
ROOT
ATOM      1  C   UNL     1      25.337   4.446  50.569  0.00  0.00    +0.000 A 
ATOM      2  N   UNL     1      24.137   3.959  50.813  0.00  0.00    +0.000 NA
ATOM      3  C   UNL     1      24.331   2.700  51.362  0.00  0.00    +0.000 A 
ATOM      4  C   UNL     1      25.687   2.456  51.559  0.00  0.00    +0.000 A 
ATOM      5  N   UNL     1      26.292   3.575  51.029  0.00  0.00    +0.000 N 
ATOM      6  H   UNL     1      27.264   3.726  50.986  0.00  0.00    +0.000 HD
ENDROOT
BRANCH   4   7
ATOM      7  C   UNL     1      26.458   1.352  52.136  0.00  0.00    +0.000 A 
ATOM      8  C   UNL     1      26.037   0.011  51.978  0.00  0.00    +0.000 A 
ATOM      9  C   UNL     1      26.820  -1.058  52.430  0.00  0.00    +0.000 A 
ATOM     10  C   UNL     1      28.008  -0.759  53.054  0.00  0.00    +0.000 A 
ATOM     11  C   UNL     1      28.401   0.540  53.265  0.00  0.00    +0.000 A 
ATOM     12  C   UNL     1      27.650   1.613  52.833  0.00  0.00    +0.000 A 
ATOM     13  O   UNL     1      29.604   0.621  53.895  0.00  0.00    +0.000 OA
ATOM     14  C   UNL     1      29.993  -0.769  53.890  0.00  0.00    +0.000 C 
ATOM     15  O   UNL     1      28.923  -1.656  53.507  0.00  0.00    +0.000 OA
ENDBRANCH   4   7
BRANCH   1  19
ATOM     16  C   UNL     1      26.270   8.236  48.806  0.00  0.00    +0.000 A 
ATOM     17  C   UNL     1      25.431   8.158  49.922  0.00  0.00    +0.000 A 
ATOM     18  C   UNL     1      25.123   6.913  50.482  0.00  0.00    +0.000 A 
ATOM     19  C   UNL     1      25.654   5.732  49.946  0.00  0.00    +0.000 A 
ATOM     20  C   UNL     1      26.475   5.818  48.810  0.00  0.00    +0.000 A 
ATOM     21  C   UNL     1      26.775   7.061  48.241  0.00  0.00    +0.000 A 
BRANCH  16  23
ATOM     22  N   UNL     1      26.512  10.656  48.937  0.00  0.00    +0.000 N 
ATOM     23  C   UNL     1      26.625   9.532  48.171  0.00  0.00    +0.000 C 
ATOM     24  O   UNL     1      27.044   9.593  47.022  0.00  0.00    +0.000 OA
ATOM     25  H   UNL     1      26.737  11.535  48.557  0.00  0.00    +0.000 HD
ATOM     26  H   UNL     1      26.207  10.588  49.870  0.00  0.00    +0.000 HD
ENDBRANCH  16  23
ENDBRANCH   1  19
BRANCH   3  27
ATOM     27  C   UNL     1      23.216   1.804  51.666  0.00  0.00    +0.000 A 
ATOM     28  C   UNL     1      22.439   1.278  50.640  0.00  0.00    +0.000 A 
ATOM     29  C   UNL     1      21.359   0.461  50.966  0.00  0.00    +0.000 A 
ATOM     30  C   UNL     1      21.089   0.185  52.302  0.00  0.00    +0.000 A 
ATOM     31  C   UNL     1      21.924   0.729  53.260  0.00  0.00    +0.000 A 
ATOM     32  N   UNL     1      22.978   1.522  52.973  0.00  0.00    +0.000 NA
ENDBRANCH   3  27
TORSDOF 4
ENDMDL
MODEL 4
REMARK VINA RESULT:    -9.264      3.170      7.912
REMARK INTER + INTRA:         -12.230
REMARK INTER:                 -11.757
REMARK INTRA:                  -0.473
REMARK UNBOUND:                -0.799
REMARK  Name = 
REMARK  4 active torsions:
REMARK  status: ('A' for Active; 'I' for Inactive)
REMARK    1  A    between atoms: C_2  and  C_4
REMARK    2  A    between atoms: C_7  and  C_8
REMARK    3  A    between atoms: C_10  and  C_11
REMARK    4  A    between atoms: C_17  and  C_18
REMARK                            x       y       z     vdW  Elec       q    Type
REMARK                         _______ _______ _______ _____ _____    ______ ____
ROOT
ATOM      1  C   UNL     1      25.756   3.364  50.611  0.00  0.00    +0.000 A 
ATOM      2  N   UNL     1      26.827   2.705  51.007  0.00  0.00    +0.000 NA
ATOM      3  C   UNL     1      26.376   1.696  51.845  0.00  0.00    +0.000 A 
ATOM      4  C   UNL     1      24.984   1.671  51.875  0.00  0.00    +0.000 A 
ATOM      5  N   UNL     1      24.629   2.751  51.098  0.00  0.00    +0.000 N 
ATOM      6  H   UNL     1      23.705   3.040  50.918  0.00  0.00    +0.000 HD
ENDROOT
BRANCH   4   7
ATOM      7  C   UNL     1      23.987   0.815  52.524  0.00  0.00    +0.000 A 
ATOM      8  C   UNL     1      24.323   0.041  53.659  0.00  0.00    +0.000 A 
ATOM      9  C   UNL     1      23.354  -0.695  54.353  0.00  0.00    +0.000 A 
ATOM     10  C   UNL     1      22.064  -0.656  53.881  0.00  0.00    +0.000 A 
ATOM     11  C   UNL     1      21.736   0.047  52.746  0.00  0.00    +0.000 A 
ATOM     12  C   UNL     1      22.668   0.778  52.042  0.00  0.00    +0.000 A 
ATOM     13  O   UNL     1      20.411  -0.040  52.449  0.00  0.00    +0.000 OA
ATOM     14  C   UNL     1      19.927  -0.726  53.623  0.00  0.00    +0.000 C 
ATOM     15  O   UNL     1      20.984  -1.255  54.448  0.00  0.00    +0.000 OA
ENDBRANCH   4   7
BRANCH   1  19
ATOM     16  C   UNL     1      25.607   6.853  48.131  0.00  0.00    +0.000 A 
ATOM     17  C   UNL     1      24.438   6.334  48.700  0.00  0.00    +0.000 A 
ATOM     18  C   UNL     1      24.498   5.186  49.498  0.00  0.00    +0.000 A 
ATOM     19  C   UNL     1      25.720   4.546  49.749  0.00  0.00    +0.000 A 
ATOM     20  C   UNL     1      26.883   5.060  49.153  0.00  0.00    +0.000 A 
ATOM     21  C   UNL     1      26.825   6.200  48.345  0.00  0.00    +0.000 A 
BRANCH  16  23
ATOM     22  N   UNL     1      24.381   8.556  46.894  0.00  0.00    +0.000 N 
ATOM     23  C   UNL     1      25.598   8.065  47.272  0.00  0.00    +0.000 C 
ATOM     24  O   UNL     1      26.633   8.633  46.949  0.00  0.00    +0.000 OA
ATOM     25  H   UNL     1      24.329   9.358  46.326  0.00  0.00    +0.000 HD
ATOM     26  H   UNL     1      23.556   8.109  47.190  0.00  0.00    +0.000 HD
ENDBRANCH  16  23
ENDBRANCH   1  19
BRANCH   3  27
ATOM     27  C   UNL     1      27.294   0.816  52.567  0.00  0.00    +0.000 A 
ATOM     28  C   UNL     1      27.237  -0.560  52.382  0.00  0.00    +0.000 A 
ATOM     29  C   UNL     1      28.098  -1.374  53.116  0.00  0.00    +0.000 A 
ATOM     30  C   UNL     1      28.994  -0.792  54.006  0.00  0.00    +0.000 A 
ATOM     31  C   UNL     1      29.001   0.586  54.115  0.00  0.00    +0.000 A 
ATOM     32  N   UNL     1      28.181   1.398  53.415  0.00  0.00    +0.000 NA
ENDBRANCH   3  27
TORSDOF 4
ENDMDL
MODEL 5
REMARK VINA RESULT:    -9.212      1.414      2.228
REMARK INTER + INTRA:         -12.165
REMARK INTER:                 -11.319
REMARK INTRA:                  -0.847
REMARK UNBOUND:                -0.799
REMARK  Name = 
REMARK  4 active torsions:
REMARK  status: ('A' for Active; 'I' for Inactive)
REMARK    1  A    between atoms: C_2  and  C_4
REMARK    2  A    between atoms: C_7  and  C_8
REMARK    3  A    between atoms: C_10  and  C_11
REMARK    4  A    between atoms: C_17  and  C_18
REMARK                            x       y       z     vdW  Elec       q    Type
REMARK                         _______ _______ _______ _____ _____    ______ ____
ROOT
ATOM      1  C   UNL     1      21.441   0.848  51.984  0.00  0.00    +0.000 A 
ATOM      2  N   UNL     1      21.765   1.895  51.252  0.00  0.00    +0.000 NA
ATOM      3  C   UNL     1      23.114   2.127  51.479  0.00  0.00    +0.000 A 
ATOM      4  C   UNL     1      23.652   1.129  52.288  0.00  0.00    +0.000 A 
ATOM      5  N   UNL     1      22.560   0.350  52.601  0.00  0.00    +0.000 N 
ATOM      6  H   UNL     1      22.579  -0.446  53.181  0.00  0.00    +0.000 HD
ENDROOT
BRANCH   4   7
ATOM      7  C   UNL     1      24.993   0.833  52.798  0.00  0.00    +0.000 A 
ATOM      8  C   UNL     1      25.472  -0.496  52.854  0.00  0.00    +0.000 A 
ATOM      9  C   UNL     1      26.789  -0.782  53.237  0.00  0.00    +0.000 A 
ATOM     10  C   UNL     1      27.598   0.276  53.578  0.00  0.00    +0.000 A 
ATOM     11  C   UNL     1      27.128   1.567  53.582  0.00  0.00    +0.000 A 
ATOM     12  C   UNL     1      25.836   1.878  53.213  0.00  0.00    +0.000 A 
ATOM     13  O   UNL     1      28.083   2.464  53.947  0.00  0.00    +0.000 OA
ATOM     14  C   UNL     1      29.241   1.605  53.994  0.00  0.00    +0.000 C 
ATOM     15  O   UNL     1      28.911   0.203  53.919  0.00  0.00    +0.000 OA
ENDBRANCH   4   7
BRANCH   1  19
ATOM     16  C   UNL     1      17.557  -0.899  52.437  0.00  0.00    +0.000 A 
ATOM     17  C   UNL     1      18.546  -1.105  53.404  0.00  0.00    +0.000 A 
ATOM     18  C   UNL     1      19.816  -0.539  53.239  0.00  0.00    +0.000 A 
ATOM     19  C   UNL     1      20.113   0.246  52.116  0.00  0.00    +0.000 A 
ATOM     20  C   UNL     1      19.121   0.425  51.139  0.00  0.00    +0.000 A 
ATOM     21  C   UNL     1      17.855  -0.149  51.295  0.00  0.00    +0.000 A 
BRANCH  16  23
ATOM     22  N   UNL     1      15.208  -0.668  53.043  0.00  0.00    +0.000 N 
ATOM     23  C   UNL     1      16.195  -1.481  52.562  0.00  0.00    +0.000 C 
ATOM     24  O   UNL     1      15.949  -2.626  52.208  0.00  0.00    +0.000 OA
ATOM     25  H   UNL     1      14.292  -1.012  53.141  0.00  0.00    +0.000 HD
ATOM     26  H   UNL     1      15.414   0.262  53.291  0.00  0.00    +0.000 HD
ENDBRANCH  16  23
ENDBRANCH   1  19
BRANCH   3  27
ATOM     27  C   UNL     1      23.811   3.282  50.916  0.00  0.00    +0.000 A 
ATOM     28  C   UNL     1      24.731   3.112  49.888  0.00  0.00    +0.000 A 
ATOM     29  C   UNL     1      25.409   4.228  49.401  0.00  0.00    +0.000 A 
ATOM     30  C   UNL     1      25.144   5.480  49.946  0.00  0.00    +0.000 A 
ATOM     31  C   UNL     1      24.198   5.565  50.951  0.00  0.00    +0.000 A 
ATOM     32  N   UNL     1      23.526   4.502  51.439  0.00  0.00    +0.000 NA
ENDBRANCH   3  27
TORSDOF 4
ENDMDL
MODEL 6
REMARK VINA RESULT:    -9.050      3.738      7.664
REMARK INTER + INTRA:         -11.965
REMARK INTER:                 -11.127
REMARK INTRA:                  -0.838
REMARK UNBOUND:                -0.799
REMARK  Name = 
REMARK  4 active torsions:
REMARK  status: ('A' for Active; 'I' for Inactive)
REMARK    1  A    between atoms: C_2  and  C_4
REMARK    2  A    between atoms: C_7  and  C_8
REMARK    3  A    between atoms: C_10  and  C_11
REMARK    4  A    between atoms: C_17  and  C_18
REMARK                            x       y       z     vdW  Elec       q    Type
REMARK                         _______ _______ _______ _____ _____    ______ ____
ROOT
ATOM      1  C   UNL     1      25.411   2.113  51.780  0.00  0.00    +0.000 A 
ATOM      2  N   UNL     1      24.108   1.969  51.640  0.00  0.00    +0.000 NA
ATOM      3  C   UNL     1      23.622   3.203  51.231  0.00  0.00    +0.000 A 
ATOM      4  C   UNL     1      24.669   4.093  51.010  0.00  0.00    +0.000 A 
ATOM      5  N   UNL     1      25.782   3.373  51.387  0.00  0.00    +0.000 N 
ATOM      6  H   UNL     1      26.706   3.713  51.374  0.00  0.00    +0.000 HD
ENDROOT
BRANCH   4   7
ATOM      7  C   UNL     1      24.758   5.475  50.533  0.00  0.00    +0.000 A 
ATOM      8  C   UNL     1      23.955   6.492  51.099  0.00  0.00    +0.000 A 
ATOM      9  C   UNL     1      24.108   7.834  50.727  0.00  0.00    +0.000 A 
ATOM     10  C   UNL     1      25.055   8.128  49.776  0.00  0.00    +0.000 A 
ATOM     11  C   UNL     1      25.802   7.143  49.177  0.00  0.00    +0.000 A 
ATOM     12  C   UNL     1      25.672   5.814  49.521  0.00  0.00    +0.000 A 
ATOM     13  O   UNL     1      26.682   7.641  48.267  0.00  0.00    +0.000 OA
ATOM     14  C   UNL     1      26.520   9.056  48.499  0.00  0.00    +0.000 C 
ATOM     15  O   UNL     1      25.385   9.369  49.331  0.00  0.00    +0.000 OA
ENDBRANCH   4   7
BRANCH   1  19
ATOM     16  C   UNL     1      28.175  -0.890  53.078  0.00  0.00    +0.000 A 
ATOM     17  C   UNL     1      26.903  -1.246  52.617  0.00  0.00    +0.000 A 
ATOM     18  C   UNL     1      26.004  -0.254  52.207  0.00  0.00    +0.000 A 
ATOM     19  C   UNL     1      26.362   1.101  52.241  0.00  0.00    +0.000 A 
ATOM     20  C   UNL     1      27.631   1.449  52.730  0.00  0.00    +0.000 A 
ATOM     21  C   UNL     1      28.528   0.461  53.151  0.00  0.00    +0.000 A 
BRANCH  16  23
ATOM     22  N   UNL     1      28.826  -3.217  53.386  0.00  0.00    +0.000 N 
ATOM     23  C   UNL     1      29.166  -1.902  53.529  0.00  0.00    +0.000 C 
ATOM     24  O   UNL     1      30.261  -1.579  53.970  0.00  0.00    +0.000 OA
ATOM     25  H   UNL     1      29.453  -3.920  53.671  0.00  0.00    +0.000 HD
ATOM     26  H   UNL     1      27.956  -3.461  52.998  0.00  0.00    +0.000 HD
ENDBRANCH  16  23
ENDBRANCH   1  19
BRANCH   3  27
ATOM     27  C   UNL     1      22.191   3.461  51.073  0.00  0.00    +0.000 A 
ATOM     28  C   UNL     1      21.337   3.366  52.166  0.00  0.00    +0.000 A 
ATOM     29  C   UNL     1      19.973   3.578  51.974  0.00  0.00    +0.000 A 
ATOM     30  C   UNL     1      19.502   3.886  50.702  0.00  0.00    +0.000 A 
ATOM     31  C   UNL     1      20.421   3.984  49.674  0.00  0.00    +0.000 A 
ATOM     32  N   UNL     1      21.746   3.786  49.831  0.00  0.00    +0.000 NA
ENDBRANCH   3  27
TORSDOF 4
ENDMDL
MODEL 7
REMARK VINA RESULT:    -8.906      2.896      6.583
REMARK INTER + INTRA:         -11.787
REMARK INTER:                 -11.133
REMARK INTRA:                  -0.654
REMARK UNBOUND:                -0.799
REMARK  Name = 
REMARK  4 active torsions:
REMARK  status: ('A' for Active; 'I' for Inactive)
REMARK    1  A    between atoms: C_2  and  C_4
REMARK    2  A    between atoms: C_7  and  C_8
REMARK    3  A    between atoms: C_10  and  C_11
REMARK    4  A    between atoms: C_17  and  C_18
REMARK                            x       y       z     vdW  Elec       q    Type
REMARK                         _______ _______ _______ _____ _____    ______ ____
ROOT
ATOM      1  C   UNL     1      24.307   2.727  50.894  0.00  0.00    +0.000 A 
ATOM      2  N   UNL     1      23.319   2.230  51.612  0.00  0.00    +0.000 NA
ATOM      3  C   UNL     1      23.832   1.116  52.262  0.00  0.00    +0.000 A 
ATOM      4  C   UNL     1      25.197   0.994  52.018  0.00  0.00    +0.000 A 
ATOM      5  N   UNL     1      25.456   2.019  51.135  0.00  0.00    +0.000 N 
ATOM      6  H   UNL     1      26.335   2.214  50.736  0.00  0.00    +0.000 HD
ENDROOT
BRANCH   4   7
ATOM      7  C   UNL     1      26.242   0.071  52.470  0.00  0.00    +0.000 A 
ATOM      8  C   UNL     1      26.156  -1.313  52.195  0.00  0.00    +0.000 A 
ATOM      9  C   UNL     1      27.198  -2.189  52.526  0.00  0.00    +0.000 A 
ATOM     10  C   UNL     1      28.303  -1.659  53.147  0.00  0.00    +0.000 A 
ATOM     11  C   UNL     1      28.375  -0.325  53.470  0.00  0.00    +0.000 A 
ATOM     12  C   UNL     1      27.364   0.559  53.160  0.00  0.00    +0.000 A 
ATOM     13  O   UNL     1      29.549  -0.002  54.077  0.00  0.00    +0.000 OA
ATOM     14  C   UNL     1      30.266  -1.246  53.931  0.00  0.00    +0.000 C 
ATOM     15  O   UNL     1      29.431  -2.335  53.492  0.00  0.00    +0.000 OA
ENDBRANCH   4   7
BRANCH   1  19
ATOM     16  C   UNL     1      24.070   6.122  48.293  0.00  0.00    +0.000 A 
ATOM     17  C   UNL     1      22.923   5.385  48.607  0.00  0.00    +0.000 A 
ATOM     18  C   UNL     1      23.015   4.270  49.448  0.00  0.00    +0.000 A 
ATOM     19  C   UNL     1      24.245   3.881  49.995  0.00  0.00    +0.000 A 
ATOM     20  C   UNL     1      25.394   4.611  49.653  0.00  0.00    +0.000 A 
ATOM     21  C   UNL     1      25.308   5.720  48.804  0.00  0.00    +0.000 A 
BRANCH  16  23
ATOM     22  N   UNL     1      25.223   7.828  46.991  0.00  0.00    +0.000 N 
ATOM     23  C   UNL     1      24.028   7.311  47.403  0.00  0.00    +0.000 C 
ATOM     24  O   UNL     1      22.970   7.786  47.012  0.00  0.00    +0.000 OA
ATOM     25  H   UNL     1      25.242   8.614  46.400  0.00  0.00    +0.000 HD
ATOM     26  H   UNL     1      26.066   7.414  47.286  0.00  0.00    +0.000 HD
ENDBRANCH  16  23
ENDBRANCH   1  19
BRANCH   3  27
ATOM     27  C   UNL     1      22.995   0.236  53.075  0.00  0.00    +0.000 A 
ATOM     28  C   UNL     1      23.522  -0.394  54.196  0.00  0.00    +0.000 A 
ATOM     29  C   UNL     1      22.709  -1.259  54.926  0.00  0.00    +0.000 A 
ATOM     30  C   UNL     1      21.395  -1.466  54.521  0.00  0.00    +0.000 A 
ATOM     31  C   UNL     1      20.941  -0.783  53.407  0.00  0.00    +0.000 A 
ATOM     32  N   UNL     1      21.705   0.062  52.684  0.00  0.00    +0.000 NA
ENDBRANCH   3  27
TORSDOF 4
ENDMDL
MODEL 8
REMARK VINA RESULT:    -8.824      2.277      7.890
REMARK INTER + INTRA:         -11.686
REMARK INTER:                 -10.820
REMARK INTRA:                  -0.866
REMARK UNBOUND:                -0.799
REMARK  Name = 
REMARK  4 active torsions:
REMARK  status: ('A' for Active; 'I' for Inactive)
REMARK    1  A    between atoms: C_2  and  C_4
REMARK    2  A    between atoms: C_7  and  C_8
REMARK    3  A    between atoms: C_10  and  C_11
REMARK    4  A    between atoms: C_17  and  C_18
REMARK                            x       y       z     vdW  Elec       q    Type
REMARK                         _______ _______ _______ _____ _____    ______ ____
ROOT
ATOM      1  C   UNL     1      24.506   1.039  52.173  0.00  0.00    +0.000 A 
ATOM      2  N   UNL     1      24.340   2.296  51.813  0.00  0.00    +0.000 NA
ATOM      3  C   UNL     1      22.990   2.445  51.529  0.00  0.00    +0.000 A 
ATOM      4  C   UNL     1      22.295   1.276  51.827  0.00  0.00    +0.000 A 
ATOM      5  N   UNL     1      23.290   0.404  52.214  0.00  0.00    +0.000 N 
ATOM      6  H   UNL     1      23.150  -0.533  52.480  0.00  0.00    +0.000 HD
ENDROOT
BRANCH   4   7
ATOM      7  C   UNL     1      20.885   0.879  51.782  0.00  0.00    +0.000 A 
ATOM      8  C   UNL     1      20.078   1.198  50.666  0.00  0.00    +0.000 A 
ATOM      9  C   UNL     1      18.761   0.732  50.562  0.00  0.00    +0.000 A 
ATOM     10  C   UNL     1      18.271  -0.033  51.594  0.00  0.00    +0.000 A 
ATOM     11  C   UNL     1      19.027  -0.302  52.709  0.00  0.00    +0.000 A 
ATOM     12  C   UNL     1      20.325   0.146  52.841  0.00  0.00    +0.000 A 
ATOM     13  O   UNL     1      18.362  -1.074  53.611  0.00  0.00    +0.000 OA
ATOM     14  C   UNL     1      17.180  -1.399  52.851  0.00  0.00    +0.000 C 
ATOM     15  O   UNL     1      17.046  -0.618  51.647  0.00  0.00    +0.000 OA
ENDBRANCH   4   7
BRANCH   1  19
ATOM     16  C   UNL     1      28.206  -0.829  53.251  0.00  0.00    +0.000 A 
ATOM     17  C   UNL     1      28.094   0.565  53.227  0.00  0.00    +0.000 A 
ATOM     18  C   UNL     1      26.882   1.164  52.861  0.00  0.00    +0.000 A 
ATOM     19  C   UNL     1      25.767   0.385  52.525  0.00  0.00    +0.000 A 
ATOM     20  C   UNL     1      25.898  -1.013  52.526  0.00  0.00    +0.000 A 
ATOM     21  C   UNL     1      27.110  -1.615  52.880  0.00  0.00    +0.000 A 
BRANCH  16  23
ATOM     22  N   UNL     1      29.454  -2.880  53.665  0.00  0.00    +0.000 N 
ATOM     23  C   UNL     1      29.469  -1.515  53.628  0.00  0.00    +0.000 C 
ATOM     24  O   UNL     1      30.498  -0.892  53.853  0.00  0.00    +0.000 OA
ATOM     25  H   UNL     1      30.269  -3.375  53.909  0.00  0.00    +0.000 HD
ATOM     26  H   UNL     1      28.628  -3.369  53.447  0.00  0.00    +0.000 HD
ENDBRANCH  16  23
ENDBRANCH   1  19
BRANCH   3  27
ATOM     27  C   UNL     1      22.441   3.689  50.991  0.00  0.00    +0.000 A 
ATOM     28  C   UNL     1      22.055   4.713  51.848  0.00  0.00    +0.000 A 
ATOM     29  C   UNL     1      21.497   5.869  51.306  0.00  0.00    +0.000 A 
ATOM     30  C   UNL     1      21.347   5.974  49.927  0.00  0.00    +0.000 A 
ATOM     31  C   UNL     1      21.777   4.918  49.144  0.00  0.00    +0.000 A 
ATOM     32  N   UNL     1      22.323   3.789  49.642  0.00  0.00    +0.000 NA
ENDBRANCH   3  27
TORSDOF 4
ENDMDL
MODEL 9
REMARK VINA RESULT:    -8.732      2.402      8.342
REMARK INTER + INTRA:         -11.573
REMARK INTER:                 -10.893
REMARK INTRA:                  -0.680
REMARK UNBOUND:                -0.799
REMARK  Name = 
REMARK  4 active torsions:
REMARK  status: ('A' for Active; 'I' for Inactive)
REMARK    1  A    between atoms: C_2  and  C_4
REMARK    2  A    between atoms: C_7  and  C_8
REMARK    3  A    between atoms: C_10  and  C_11
REMARK    4  A    between atoms: C_17  and  C_18
REMARK                            x       y       z     vdW  Elec       q    Type
REMARK                         _______ _______ _______ _____ _____    ______ ____
ROOT
ATOM      1  C   UNL     1      23.663   1.392  52.071  0.00  0.00    +0.000 A 
ATOM      2  N   UNL     1      23.178   2.225  51.172  0.00  0.00    +0.000 NA
ATOM      3  C   UNL     1      21.851   1.863  50.982  0.00  0.00    +0.000 A 
ATOM      4  C   UNL     1      21.488   0.853  51.868  0.00  0.00    +0.000 A 
ATOM      5  N   UNL     1      22.665   0.569  52.527  0.00  0.00    +0.000 N 
ATOM      6  H   UNL     1      22.773  -0.120  53.221  0.00  0.00    +0.000 HD
ENDROOT
BRANCH   4   7
ATOM      7  C   UNL     1      20.243   0.136  52.153  0.00  0.00    +0.000 A 
ATOM      8  C   UNL     1      20.107  -0.647  53.323  0.00  0.00    +0.000 A 
ATOM      9  C   UNL     1      18.888  -1.248  53.661  0.00  0.00    +0.000 A 
ATOM     10  C   UNL     1      17.828  -1.067  52.805  0.00  0.00    +0.000 A 
ATOM     11  C   UNL     1      17.962  -0.355  51.637  0.00  0.00    +0.000 A 
ATOM     12  C   UNL     1      19.150   0.245  51.276  0.00  0.00    +0.000 A 
ATOM     13  O   UNL     1      16.799  -0.291  50.934  0.00  0.00    +0.000 OA
ATOM     14  C   UNL     1      15.890  -0.889  51.881  0.00  0.00    +0.000 C 
ATOM     15  O   UNL     1      16.561  -1.521  52.990  0.00  0.00    +0.000 OA
ENDBRANCH   4   7
BRANCH   1  19
ATOM     16  C   UNL     1      27.707   1.232  53.472  0.00  0.00    +0.000 A 
ATOM     17  C   UNL     1      27.235   0.289  52.552  0.00  0.00    +0.000 A 
ATOM     18  C   UNL     1      25.908   0.345  52.111  0.00  0.00    +0.000 A 
ATOM     19  C   UNL     1      25.038   1.343  52.571  0.00  0.00    +0.000 A 
ATOM     20  C   UNL     1      25.514   2.268  53.514  0.00  0.00    +0.000 A 
ATOM     21  C   UNL     1      26.837   2.208  53.965  0.00  0.00    +0.000 A 
BRANCH  16  23
ATOM     22  N   UNL     1      29.528   2.302  54.686  0.00  0.00    +0.000 N 
ATOM     23  C   UNL     1      29.106   1.215  53.975  0.00  0.00    +0.000 C 
ATOM     24  O   UNL     1      29.841   0.252  53.802  0.00  0.00    +0.000 OA
ATOM     25  H   UNL     1      30.446   2.332  55.039  0.00  0.00    +0.000 HD
ATOM     26  H   UNL     1      28.914   3.054  54.847  0.00  0.00    +0.000 HD
ENDBRANCH  16  23
ENDBRANCH   1  19
BRANCH   3  27
ATOM     27  C   UNL     1      21.009   2.499  49.970  0.00  0.00    +0.000 A 
ATOM     28  C   UNL     1      21.021   2.038  48.658  0.00  0.00    +0.000 A 
ATOM     29  C   UNL     1      20.238   2.692  47.709  0.00  0.00    +0.000 A 
ATOM     30  C   UNL     1      19.462   3.779  48.095  0.00  0.00    +0.000 A 
ATOM     31  C   UNL     1      19.490   4.160  49.424  0.00  0.00    +0.000 A 
ATOM     32  N   UNL     1      20.236   3.544  50.364  0.00  0.00    +0.000 NA
ENDBRANCH   3  27
TORSDOF 4
ENDMDL
