MODEL 1
REMARK VINA RESULT:    -7.439      0.000      0.000
REMARK INTER + INTRA:         -13.776
REMARK INTER:                 -10.918
REMARK INTRA:                  -2.858
REMARK UNBOUND:                -2.858
REMARK  Name = 
REMARK  11 active torsions:
REMARK  status: ('A' for Active; 'I' for Inactive)
REMARK    1  A    between atoms: C_1  and  O_2
REMARK    2  A    between atoms: O_2  and  C_3
REMARK    3  A    between atoms: C_6  and  C_7
REMARK    4  A    between atoms: C_8  and  C_9
REMARK    5  A    between atoms: C_12  and  C_13
REMARK    6  A    between atoms: N_23  and  C_24
REMARK    7  A    between atoms: C_24  and  C_25
REMARK    8  A    between atoms: C_26  and  C_27
REMARK    9  A    between atoms: C_27  and  C_28
REMARK   10  A    between atoms: C_28  and  C_29
REMARK   11  A    between atoms: C_28  and  C_30
REMARK                            x       y       z     vdW  Elec       q    Type
REMARK                         _______ _______ _______ _____ _____    ______ ____
ROOT
ATOM      1  C   UNL     1      24.179   1.450  53.262  0.00  0.00    +0.000 C 
ATOM      2  C   UNL     1      23.023   1.008  52.352  0.00  0.00    +0.000 C 
ATOM      3  C   UNL     1      22.189   2.291  52.194  0.00  0.00    +0.000 C 
ATOM      4  C   UNL     1      23.158   3.435  52.534  0.00  0.00    +0.000 C 
ATOM      5  N   UNL     1      24.476   2.853  52.858  0.00  0.00    +0.000 N 
ATOM      6  H   UNL     1      24.956   3.334  53.619  0.00  0.00    +0.000 HD
ENDROOT
BRANCH   3   7
ATOM      7  C   UNL     1      21.483   2.472  50.857  0.00  0.00    +0.000 A 
ATOM      8  C   UNL     1      21.917   1.707  49.745  0.00  0.00    +0.000 A 
ATOM      9  C   UNL     1      21.256   1.762  48.516  0.00  0.00    +0.000 A 
ATOM     10  C   UNL     1      20.157   2.585  48.414  0.00  0.00    +0.000 A 
ATOM     11  C   UNL     1      19.730   3.343  49.474  0.00  0.00    +0.000 A 
ATOM     12  C   UNL     1      20.370   3.320  50.697  0.00  0.00    +0.000 A 
ATOM     13  O   UNL     1      18.619   4.075  49.172  0.00  0.00    +0.000 OA
ATOM     14  C   UNL     1      18.364   3.630  47.822  0.00  0.00    +0.000 C 
ATOM     15  O   UNL     1      19.376   2.739  47.311  0.00  0.00    +0.000 OA
ENDBRANCH   3   7
BRANCH   1  19
ATOM     16  C   UNL     1      27.875  -0.828  53.575  0.00  0.00    +0.000 A 
ATOM     17  C   UNL     1      26.951  -1.140  52.579  0.00  0.00    +0.000 A 
ATOM     18  C   UNL     1      25.731  -0.455  52.493  0.00  0.00    +0.000 A 
ATOM     19  C   UNL     1      25.413   0.569  53.396  0.00  0.00    +0.000 A 
ATOM     20  C   UNL     1      26.338   0.847  54.419  0.00  0.00    +0.000 A 
ATOM     21  C   UNL     1      27.549   0.154  54.510  0.00  0.00    +0.000 A 
BRANCH  16  23
ATOM     22  C   UNL     1      30.224  -0.514  53.726  0.00  0.00    +0.000 C 
ATOM     23  O   UNL     1      29.108  -1.397  53.734  0.00  0.00    +0.000 OA
ENDBRANCH  16  23
ENDBRANCH   1  19
BRANCH   2  24
ATOM     24  C   UNL     1      22.215  -0.065  53.042  0.00  0.00    +0.000 C 
ATOM     25  O   UNL     1      22.347  -1.273  52.928  0.00  0.00    +0.000 OA
ATOM     26  O   UNL     1      21.253   0.434  53.840  0.00  0.00    +0.000 OA
ENDBRANCH   2  24
BRANCH   5  27
ATOM     27  C   UNL     1      25.430   3.003  51.747  0.00  0.00    +0.000 C 
BRANCH  27  28
ATOM     28  C   UNL     1      24.977   4.081  50.798  0.00  0.00    +0.000 C 
ATOM     29  C   UNL     1      24.850   3.959  49.465  0.00  0.00    +0.000 C 
BRANCH  29  30
ATOM     30  C   UNL     1      24.365   5.078  48.579  0.00  0.00    +0.000 C 
BRANCH  30  31
ATOM     31  C   UNL     1      22.829   5.171  48.478  0.00  0.00    +0.000 C 
ATOM     32  C   UNL     1      22.259   6.315  49.319  0.00  0.00    +0.000 C 
ATOM     33  C   UNL     1      22.410   5.354  47.014  0.00  0.00    +0.000 C 
ENDBRANCH  30  31
ENDBRANCH  29  30
ENDBRANCH  27  28
ENDBRANCH   5  27
TORSDOF 8
ENDMDL
MODEL 2
REMARK VINA RESULT:    -7.175      3.129      6.703
REMARK INTER + INTRA:         -13.389
REMARK INTER:                 -12.268
REMARK INTRA:                  -1.121
REMARK UNBOUND:                -2.858
REMARK  Name = 
REMARK  11 active torsions:
REMARK  status: ('A' for Active; 'I' for Inactive)
REMARK    1  A    between atoms: C_1  and  O_2
REMARK    2  A    between atoms: O_2  and  C_3
REMARK    3  A    between atoms: C_6  and  C_7
REMARK    4  A    between atoms: C_8  and  C_9
REMARK    5  A    between atoms: C_12  and  C_13
REMARK    6  A    between atoms: N_23  and  C_24
REMARK    7  A    between atoms: C_24  and  C_25
REMARK    8  A    between atoms: C_26  and  C_27
REMARK    9  A    between atoms: C_27  and  C_28
REMARK   10  A    between atoms: C_28  and  C_29
REMARK   11  A    between atoms: C_28  and  C_30
REMARK                            x       y       z     vdW  Elec       q    Type
REMARK                         _______ _______ _______ _____ _____    ______ ____
ROOT
ATOM      1  C   UNL     1      22.278   3.706  50.852  0.00  0.00    +0.000 C 
ATOM      2  C   UNL     1      23.338   3.631  49.743  0.00  0.00    +0.000 C 
ATOM      3  C   UNL     1      23.869   5.073  49.665  0.00  0.00    +0.000 C 
ATOM      4  C   UNL     1      23.508   5.699  51.022  0.00  0.00    +0.000 C 
ATOM      5  N   UNL     1      22.819   4.681  51.840  0.00  0.00    +0.000 N 
ATOM      6  H   UNL     1      22.056   5.060  52.401  0.00  0.00    +0.000 HD
ENDROOT
BRANCH   3   7
ATOM      7  C   UNL     1      25.339   5.226  49.299  0.00  0.00    +0.000 A 
ATOM      8  C   UNL     1      26.183   4.089  49.359  0.00  0.00    +0.000 A 
ATOM      9  C   UNL     1      27.518   4.145  48.953  0.00  0.00    +0.000 A 
ATOM     10  C   UNL     1      27.996   5.347  48.482  0.00  0.00    +0.000 A 
ATOM     11  C   UNL     1      27.200   6.462  48.428  0.00  0.00    +0.000 A 
ATOM     12  C   UNL     1      25.880   6.441  48.835  0.00  0.00    +0.000 A 
ATOM     13  O   UNL     1      27.858   7.543  47.918  0.00  0.00    +0.000 OA
ATOM     14  C   UNL     1      29.135   6.951  47.595  0.00  0.00    +0.000 C 
ATOM     15  O   UNL     1      29.253   5.577  48.015  0.00  0.00    +0.000 OA
ENDBRANCH   3   7
BRANCH   1  19
ATOM     16  C   UNL     1      20.880   0.125  52.893  0.00  0.00    +0.000 A 
ATOM     17  C   UNL     1      21.811   0.015  51.862  0.00  0.00    +0.000 A 
ATOM     18  C   UNL     1      22.235   1.150  51.156  0.00  0.00    +0.000 A 
ATOM     19  C   UNL     1      21.745   2.423  51.475  0.00  0.00    +0.000 A 
ATOM     20  C   UNL     1      20.777   2.514  52.492  0.00  0.00    +0.000 A 
ATOM     21  C   UNL     1      20.347   1.379  53.187  0.00  0.00    +0.000 A 
BRANCH  16  23
ATOM     22  C   UNL     1      21.405  -1.653  54.378  0.00  0.00    +0.000 C 
ATOM     23  O   UNL     1      20.423  -0.899  53.675  0.00  0.00    +0.000 OA
ENDBRANCH  16  23
ENDBRANCH   1  19
BRANCH   2  24
ATOM     24  C   UNL     1      22.682   3.240  48.440  0.00  0.00    +0.000 C 
ATOM     25  O   UNL     1      22.722   2.147  47.896  0.00  0.00    +0.000 OA
ATOM     26  O   UNL     1      22.014   4.254  47.863  0.00  0.00    +0.000 OA
ENDBRANCH   2  24
BRANCH   5  27
ATOM     27  C   UNL     1      23.706   4.113  52.869  0.00  0.00    +0.000 C 
BRANCH  27  28
ATOM     28  C   UNL     1      24.685   3.147  52.254  0.00  0.00    +0.000 C 
ATOM     29  C   UNL     1      25.313   2.143  52.891  0.00  0.00    +0.000 C 
BRANCH  29  30
ATOM     30  C   UNL     1      26.263   1.198  52.201  0.00  0.00    +0.000 C 
BRANCH  30  31
ATOM     31  C   UNL     1      26.015  -0.288  52.532  0.00  0.00    +0.000 C 
ATOM     32  C   UNL     1      27.303  -1.021  52.915  0.00  0.00    +0.000 C 
ATOM     33  C   UNL     1      24.998  -0.408  53.673  0.00  0.00    +0.000 C 
ENDBRANCH  30  31
ENDBRANCH  29  30
ENDBRANCH  27  28
ENDBRANCH   5  27
TORSDOF 8
ENDMDL
MODEL 3
REMARK VINA RESULT:    -7.103      2.980      7.032
REMARK INTER + INTRA:         -13.283
REMARK INTER:                 -11.567
REMARK INTRA:                  -1.716
REMARK UNBOUND:                -2.858
REMARK  Name = 
REMARK  11 active torsions:
REMARK  status: ('A' for Active; 'I' for Inactive)
REMARK    1  A    between atoms: C_1  and  O_2
REMARK    2  A    between atoms: O_2  and  C_3
REMARK    3  A    between atoms: C_6  and  C_7
REMARK    4  A    between atoms: C_8  and  C_9
REMARK    5  A    between atoms: C_12  and  C_13
REMARK    6  A    between atoms: N_23  and  C_24
REMARK    7  A    between atoms: C_24  and  C_25
REMARK    8  A    between atoms: C_26  and  C_27
REMARK    9  A    between atoms: C_27  and  C_28
REMARK   10  A    between atoms: C_28  and  C_29
REMARK   11  A    between atoms: C_28  and  C_30
REMARK                            x       y       z     vdW  Elec       q    Type
REMARK                         _______ _______ _______ _____ _____    ______ ____
ROOT
ATOM      1  C   UNL     1      24.332   4.647  49.459  0.00  0.00    +0.000 C 
ATOM      2  C   UNL     1      23.147   4.375  50.397  0.00  0.00    +0.000 C 
ATOM      3  C   UNL     1      22.903   2.866  50.228  0.00  0.00    +0.000 C 
ATOM      4  C   UNL     1      24.228   2.312  49.679  0.00  0.00    +0.000 C 
ATOM      5  N   UNL     1      25.185   3.429  49.547  0.00  0.00    +0.000 N 
ATOM      6  H   UNL     1      25.775   3.363  48.717  0.00  0.00    +0.000 HD
ENDROOT
BRANCH   3   7
ATOM      7  C   UNL     1      22.401   2.125  51.460  0.00  0.00    +0.000 A 
ATOM      8  C   UNL     1      21.064   2.327  51.883  0.00  0.00    +0.000 A 
ATOM      9  C   UNL     1      20.518   1.612  52.952  0.00  0.00    +0.000 A 
ATOM     10  C   UNL     1      21.322   0.693  53.587  0.00  0.00    +0.000 A 
ATOM     11  C   UNL     1      22.623   0.493  53.202  0.00  0.00    +0.000 A 
ATOM     12  C   UNL     1      23.194   1.193  52.158  0.00  0.00    +0.000 A 
ATOM     13  O   UNL     1      23.241  -0.468  53.946  0.00  0.00    +0.000 OA
ATOM     14  C   UNL     1      22.151  -0.893  54.794  0.00  0.00    +0.000 C 
ATOM     15  O   UNL     1      20.952  -0.112  54.619  0.00  0.00    +0.000 OA
ENDBRANCH   3   7
BRANCH   1  19
ATOM     16  C   UNL     1      26.781   8.222  49.873  0.00  0.00    +0.000 A 
ATOM     17  C   UNL     1      25.708   8.014  50.738  0.00  0.00    +0.000 A 
ATOM     18  C   UNL     1      24.874   6.896  50.588  0.00  0.00    +0.000 A 
ATOM     19  C   UNL     1      25.104   5.954  49.577  0.00  0.00    +0.000 A 
ATOM     20  C   UNL     1      26.167   6.197  48.687  0.00  0.00    +0.000 A 
ATOM     21  C   UNL     1      26.990   7.319  48.831  0.00  0.00    +0.000 A 
BRANCH  16  23
ATOM     22  C   UNL     1      28.895   9.083  49.217  0.00  0.00    +0.000 C 
ATOM     23  O   UNL     1      27.682   9.248  49.943  0.00  0.00    +0.000 OA
ENDBRANCH  16  23
ENDBRANCH   1  19
BRANCH   2  24
ATOM     24  C   UNL     1      21.942   5.159  49.934  0.00  0.00    +0.000 C 
ATOM     25  O   UNL     1      21.539   5.278  48.788  0.00  0.00    +0.000 OA
ATOM     26  O   UNL     1      21.301   5.780  50.940  0.00  0.00    +0.000 OA
ENDBRANCH   2  24
BRANCH   5  27
ATOM     27  C   UNL     1      26.179   3.430  50.633  0.00  0.00    +0.000 C 
BRANCH  27  28
ATOM     28  C   UNL     1      26.521   2.022  51.044  0.00  0.00    +0.000 C 
ATOM     29  C   UNL     1      26.958   1.635  52.255  0.00  0.00    +0.000 C 
BRANCH  29  30
ATOM     30  C   UNL     1      27.257   0.199  52.602  0.00  0.00    +0.000 C 
BRANCH  30  31
ATOM     31  C   UNL     1      28.288   0.032  53.736  0.00  0.00    +0.000 C 
ATOM     32  C   UNL     1      29.344  -1.028  53.411  0.00  0.00    +0.000 C 
ATOM     33  C   UNL     1      28.978   1.371  54.019  0.00  0.00    +0.000 C 
ENDBRANCH  30  31
ENDBRANCH  29  30
ENDBRANCH  27  28
ENDBRANCH   5  27
TORSDOF 8
ENDMDL
MODEL 4
REMARK VINA RESULT:    -7.085      2.983      5.630
REMARK INTER + INTRA:         -13.257
REMARK INTER:                 -11.564
REMARK INTRA:                  -1.693
REMARK UNBOUND:                -2.858
REMARK  Name = 
REMARK  11 active torsions:
REMARK  status: ('A' for Active; 'I' for Inactive)
REMARK    1  A    between atoms: C_1  and  O_2
REMARK    2  A    between atoms: O_2  and  C_3
REMARK    3  A    between atoms: C_6  and  C_7
REMARK    4  A    between atoms: C_8  and  C_9
REMARK    5  A    between atoms: C_12  and  C_13
REMARK    6  A    between atoms: N_23  and  C_24
REMARK    7  A    between atoms: C_24  and  C_25
REMARK    8  A    between atoms: C_26  and  C_27
REMARK    9  A    between atoms: C_27  and  C_28
REMARK   10  A    between atoms: C_28  and  C_29
REMARK   11  A    between atoms: C_28  and  C_30
REMARK                            x       y       z     vdW  Elec       q    Type
REMARK                         _______ _______ _______ _____ _____    ______ ____
ROOT
ATOM      1  C   UNL     1      24.885   2.880  50.254  0.00  0.00    +0.000 C 
ATOM      2  C   UNL     1      24.819   4.403  50.068  0.00  0.00    +0.000 C 
ATOM      3  C   UNL     1      23.759   4.578  48.968  0.00  0.00    +0.000 C 
ATOM      4  C   UNL     1      22.940   3.276  48.999  0.00  0.00    +0.000 C 
ATOM      5  N   UNL     1      23.486   2.404  50.059  0.00  0.00    +0.000 N 
ATOM      6  H   UNL     1      23.493   1.415  49.808  0.00  0.00    +0.000 HD
ENDROOT
BRANCH   3   7
ATOM      7  C   UNL     1      22.902   5.834  49.056  0.00  0.00    +0.000 A 
ATOM      8  C   UNL     1      21.977   5.958  50.122  0.00  0.00    +0.000 A 
ATOM      9  C   UNL     1      21.225   7.121  50.309  0.00  0.00    +0.000 A 
ATOM     10  C   UNL     1      21.415   8.156  49.422  0.00  0.00    +0.000 A 
ATOM     11  C   UNL     1      22.296   8.051  48.376  0.00  0.00    +0.000 A 
ATOM     12  C   UNL     1      23.042   6.910  48.159  0.00  0.00    +0.000 A 
ATOM     13  O   UNL     1      22.346   9.189  47.627  0.00  0.00    +0.000 OA
ATOM     14  C   UNL     1      21.446  10.040  48.370  0.00  0.00    +0.000 C 
ATOM     15  O   UNL     1      20.798   9.368  49.468  0.00  0.00    +0.000 OA
ENDBRANCH   3   7
BRANCH   1  19
ATOM     16  C   UNL     1      26.669   0.974  53.738  0.00  0.00    +0.000 A 
ATOM     17  C   UNL     1      25.934   2.148  53.892  0.00  0.00    +0.000 A 
ATOM     18  C   UNL     1      25.395   2.807  52.777  0.00  0.00    +0.000 A 
ATOM     19  C   UNL     1      25.570   2.298  51.483  0.00  0.00    +0.000 A 
ATOM     20  C   UNL     1      26.348   1.134  51.339  0.00  0.00    +0.000 A 
ATOM     21  C   UNL     1      26.894   0.485  52.452  0.00  0.00    +0.000 A 
BRANCH  16  23
ATOM     22  C   UNL     1      28.614   0.010  54.702  0.00  0.00    +0.000 C 
ATOM     23  O   UNL     1      27.207   0.226  54.747  0.00  0.00    +0.000 OA
ENDBRANCH  16  23
ENDBRANCH   1  19
BRANCH   2  24
ATOM     24  C   UNL     1      26.159   4.914  49.595  0.00  0.00    +0.000 C 
ATOM     25  O   UNL     1      27.086   4.251  49.157  0.00  0.00    +0.000 OA
ATOM     26  O   UNL     1      26.283   6.248  49.711  0.00  0.00    +0.000 OA
ENDBRANCH   2  24
BRANCH   5  27
ATOM     27  C   UNL     1      22.641   2.411  51.264  0.00  0.00    +0.000 C 
BRANCH  27  28
ATOM     28  C   UNL     1      22.271   1.007  51.663  0.00  0.00    +0.000 C 
ATOM     29  C   UNL     1      22.784   0.317  52.698  0.00  0.00    +0.000 C 
BRANCH  29  30
ATOM     30  C   UNL     1      22.344  -1.080  53.053  0.00  0.00    +0.000 C 
BRANCH  30  31
ATOM     31  C   UNL     1      21.864  -1.231  54.511  0.00  0.00    +0.000 C 
ATOM     32  C   UNL     1      23.025  -1.408  55.491  0.00  0.00    +0.000 C 
ATOM     33  C   UNL     1      21.032  -0.009  54.918  0.00  0.00    +0.000 C 
ENDBRANCH  30  31
ENDBRANCH  29  30
ENDBRANCH  27  28
ENDBRANCH   5  27
TORSDOF 8
ENDMDL
MODEL 5
REMARK VINA RESULT:    -7.073      2.787      5.849
REMARK INTER + INTRA:         -13.239
REMARK INTER:                 -11.468
REMARK INTRA:                  -1.772
REMARK UNBOUND:                -2.858
REMARK  Name = 
REMARK  11 active torsions:
REMARK  status: ('A' for Active; 'I' for Inactive)
REMARK    1  A    between atoms: C_1  and  O_2
REMARK    2  A    between atoms: O_2  and  C_3
REMARK    3  A    between atoms: C_6  and  C_7
REMARK    4  A    between atoms: C_8  and  C_9
REMARK    5  A    between atoms: C_12  and  C_13
REMARK    6  A    between atoms: N_23  and  C_24
REMARK    7  A    between atoms: C_24  and  C_25
REMARK    8  A    between atoms: C_26  and  C_27
REMARK    9  A    between atoms: C_27  and  C_28
REMARK   10  A    between atoms: C_28  and  C_29
REMARK   11  A    between atoms: C_28  and  C_30
REMARK                            x       y       z     vdW  Elec       q    Type
REMARK                         _______ _______ _______ _____ _____    ______ ____
ROOT
ATOM      1  C   UNL     1      23.686   2.399  49.852  0.00  0.00    +0.000 C 
ATOM      2  C   UNL     1      22.214   2.680  49.516  0.00  0.00    +0.000 C 
ATOM      3  C   UNL     1      21.465   1.546  50.237  0.00  0.00    +0.000 C 
ATOM      4  C   UNL     1      22.439   1.061  51.324  0.00  0.00    +0.000 C 
ATOM      5  N   UNL     1      23.672   1.870  51.244  0.00  0.00    +0.000 N 
ATOM      6  H   UNL     1      24.522   1.332  51.415  0.00  0.00    +0.000 HD
ENDROOT
BRANCH   3   7
ATOM      7  C   UNL     1      20.082   1.891  50.772  0.00  0.00    +0.000 A 
ATOM      8  C   UNL     1      19.762   3.249  51.018  0.00  0.00    +0.000 A 
ATOM      9  C   UNL     1      18.484   3.639  51.426  0.00  0.00    +0.000 A 
ATOM     10  C   UNL     1      17.533   2.656  51.580  0.00  0.00    +0.000 A 
ATOM     11  C   UNL     1      17.826   1.335  51.360  0.00  0.00    +0.000 A 
ATOM     12  C   UNL     1      19.083   0.918  50.969  0.00  0.00    +0.000 A 
ATOM     13  O   UNL     1      16.744   0.526  51.551  0.00  0.00    +0.000 OA
ATOM     14  C   UNL     1      15.725   1.507  51.847  0.00  0.00    +0.000 C 
ATOM     15  O   UNL     1      16.234   2.852  51.936  0.00  0.00    +0.000 OA
ENDBRANCH   3   7
BRANCH   1  19
ATOM     16  C   UNL     1      26.582   5.500  48.878  0.00  0.00    +0.000 A 
ATOM     17  C   UNL     1      27.022   4.213  49.181  0.00  0.00    +0.000 A 
ATOM     18  C   UNL     1      26.110   3.213  49.549  0.00  0.00    +0.000 A 
ATOM     19  C   UNL     1      24.735   3.476  49.610  0.00  0.00    +0.000 A 
ATOM     20  C   UNL     1      24.309   4.790  49.339  0.00  0.00    +0.000 A 
ATOM     21  C   UNL     1      25.222   5.788  48.984  0.00  0.00    +0.000 A 
BRANCH  16  23
ATOM     22  C   UNL     1      28.698   6.223  48.078  0.00  0.00    +0.000 C 
ATOM     23  O   UNL     1      27.367   6.542  48.471  0.00  0.00    +0.000 OA
ENDBRANCH  16  23
ENDBRANCH   1  19
BRANCH   2  24
ATOM     24  C   UNL     1      22.007   2.582  48.023  0.00  0.00    +0.000 C 
ATOM     25  O   UNL     1      22.670   1.933  47.230  0.00  0.00    +0.000 OA
ATOM     26  O   UNL     1      20.977   3.327  47.585  0.00  0.00    +0.000 OA
ENDBRANCH   2  24
BRANCH   5  27
ATOM     27  C   UNL     1      23.730   2.886  52.308  0.00  0.00    +0.000 C 
BRANCH  27  28
ATOM     28  C   UNL     1      24.956   2.693  53.162  0.00  0.00    +0.000 C 
ATOM     29  C   UNL     1      26.047   1.980  52.831  0.00  0.00    +0.000 C 
BRANCH  29  30
ATOM     30  C   UNL     1      27.251   1.853  53.728  0.00  0.00    +0.000 C 
BRANCH  30  31
ATOM     31  C   UNL     1      28.086   0.581  53.477  0.00  0.00    +0.000 C 
ATOM     32  C   UNL     1      28.704   0.028  54.764  0.00  0.00    +0.000 C 
ATOM     33  C   UNL     1      27.215  -0.497  52.823  0.00  0.00    +0.000 C 
ENDBRANCH  30  31
ENDBRANCH  29  30
ENDBRANCH  27  28
ENDBRANCH   5  27
TORSDOF 8
ENDMDL
MODEL 6
REMARK VINA RESULT:    -6.951      2.654      8.141
REMARK INTER + INTRA:         -13.060
REMARK INTER:                 -11.228
REMARK INTRA:                  -1.831
REMARK UNBOUND:                -2.858
REMARK  Name = 
REMARK  11 active torsions:
REMARK  status: ('A' for Active; 'I' for Inactive)
REMARK    1  A    between atoms: C_1  and  O_2
REMARK    2  A    between atoms: O_2  and  C_3
REMARK    3  A    between atoms: C_6  and  C_7
REMARK    4  A    between atoms: C_8  and  C_9
REMARK    5  A    between atoms: C_12  and  C_13
REMARK    6  A    between atoms: N_23  and  C_24
REMARK    7  A    between atoms: C_24  and  C_25
REMARK    8  A    between atoms: C_26  and  C_27
REMARK    9  A    between atoms: C_27  and  C_28
REMARK   10  A    between atoms: C_28  and  C_29
REMARK   11  A    between atoms: C_28  and  C_30
REMARK                            x       y       z     vdW  Elec       q    Type
REMARK                         _______ _______ _______ _____ _____    ______ ____
ROOT
ATOM      1  C   UNL     1      23.161   3.100  51.138  0.00  0.00    +0.000 C 
ATOM      2  C   UNL     1      24.647   2.746  50.982  0.00  0.00    +0.000 C 
ATOM      3  C   UNL     1      25.102   2.488  52.429  0.00  0.00    +0.000 C 
ATOM      4  C   UNL     1      23.807   2.178  53.198  0.00  0.00    +0.000 C 
ATOM      5  N   UNL     1      22.673   2.243  52.255  0.00  0.00    +0.000 N 
ATOM      6  H   UNL     1      21.831   2.654  52.659  0.00  0.00    +0.000 HD
ENDROOT
BRANCH   3   7
ATOM      7  C   UNL     1      26.183   1.432  52.613  0.00  0.00    +0.000 A 
ATOM      8  C   UNL     1      27.437   1.822  53.147  0.00  0.00    +0.000 A 
ATOM      9  C   UNL     1      28.439   0.888  53.422  0.00  0.00    +0.000 A 
ATOM     10  C   UNL     1      28.170  -0.436  53.162  0.00  0.00    +0.000 A 
ATOM     11  C   UNL     1      26.968  -0.833  52.634  0.00  0.00    +0.000 A 
ATOM     12  C   UNL     1      25.964   0.068  52.339  0.00  0.00    +0.000 A 
ATOM     13  O   UNL     1      26.897  -2.185  52.467  0.00  0.00    +0.000 OA
ATOM     14  C   UNL     1      28.168  -2.590  53.020  0.00  0.00    +0.000 C 
ATOM     15  O   UNL     1      29.009  -1.481  53.397  0.00  0.00    +0.000 OA
ENDBRANCH   3   7
BRANCH   1  19
ATOM     16  C   UNL     1      20.346   2.992  47.819  0.00  0.00    +0.000 A 
ATOM     17  C   UNL     1      21.475   2.174  47.796  0.00  0.00    +0.000 A 
ATOM     18  C   UNL     1      22.422   2.232  48.829  0.00  0.00    +0.000 A 
ATOM     19  C   UNL     1      22.253   3.101  49.915  0.00  0.00    +0.000 A 
ATOM     20  C   UNL     1      21.129   3.947  49.906  0.00  0.00    +0.000 A 
ATOM     21  C   UNL     1      20.192   3.896  48.868  0.00  0.00    +0.000 A 
BRANCH  16  23
ATOM     22  C   UNL     1      18.022   3.215  47.385  0.00  0.00    +0.000 C 
ATOM     23  O   UNL     1      19.340   2.997  46.893  0.00  0.00    +0.000 OA
ENDBRANCH  16  23
ENDBRANCH   1  19
BRANCH   2  24
ATOM     24  C   UNL     1      25.391   3.923  50.398  0.00  0.00    +0.000 C 
ATOM     25  O   UNL     1      25.144   5.107  50.569  0.00  0.00    +0.000 OA
ATOM     26  O   UNL     1      26.411   3.558  49.601  0.00  0.00    +0.000 OA
ENDBRANCH   2  24
BRANCH   5  27
ATOM     27  C   UNL     1      22.206   0.902  51.866  0.00  0.00    +0.000 C 
BRANCH  27  28
ATOM     28  C   UNL     1      20.749   0.726  52.205  0.00  0.00    +0.000 C 
ATOM     29  C   UNL     1      19.709   1.018  51.404  0.00  0.00    +0.000 C 
BRANCH  29  30
ATOM     30  C   UNL     1      18.274   0.790  51.804  0.00  0.00    +0.000 C 
BRANCH  30  31
ATOM     31  C   UNL     1      17.870  -0.698  51.855  0.00  0.00    +0.000 C 
ATOM     32  C   UNL     1      17.978  -1.282  53.266  0.00  0.00    +0.000 C 
ATOM     33  C   UNL     1      16.436  -0.869  51.339  0.00  0.00    +0.000 C 
ENDBRANCH  30  31
ENDBRANCH  29  30
ENDBRANCH  27  28
ENDBRANCH   5  27
TORSDOF 8
ENDMDL
MODEL 7
REMARK VINA RESULT:    -6.935      3.278      7.334
REMARK INTER + INTRA:         -13.036
REMARK INTER:                 -11.045
REMARK INTRA:                  -1.991
REMARK UNBOUND:                -2.858
REMARK  Name = 
REMARK  11 active torsions:
REMARK  status: ('A' for Active; 'I' for Inactive)
REMARK    1  A    between atoms: C_1  and  O_2
REMARK    2  A    between atoms: O_2  and  C_3
REMARK    3  A    between atoms: C_6  and  C_7
REMARK    4  A    between atoms: C_8  and  C_9
REMARK    5  A    between atoms: C_12  and  C_13
REMARK    6  A    between atoms: N_23  and  C_24
REMARK    7  A    between atoms: C_24  and  C_25
REMARK    8  A    between atoms: C_26  and  C_27
REMARK    9  A    between atoms: C_27  and  C_28
REMARK   10  A    between atoms: C_28  and  C_29
REMARK   11  A    between atoms: C_28  and  C_30
REMARK                            x       y       z     vdW  Elec       q    Type
REMARK                         _______ _______ _______ _____ _____    ______ ____
ROOT
ATOM      1  C   UNL     1      21.802   4.005  51.444  0.00  0.00    +0.000 C 
ATOM      2  C   UNL     1      22.584   4.616  50.272  0.00  0.00    +0.000 C 
ATOM      3  C   UNL     1      23.715   5.391  50.969  0.00  0.00    +0.000 C 
ATOM      4  C   UNL     1      23.830   4.750  52.363  0.00  0.00    +0.000 C 
ATOM      5  N   UNL     1      22.834   3.665  52.464  0.00  0.00    +0.000 N 
ATOM      6  H   UNL     1      22.398   3.599  53.384  0.00  0.00    +0.000 HD
ENDROOT
BRANCH   3   7
ATOM      7  C   UNL     1      25.041   5.458  50.223  0.00  0.00    +0.000 A 
ATOM      8  C   UNL     1      25.685   4.248  49.861  0.00  0.00    +0.000 A 
ATOM      9  C   UNL     1      26.856   4.241  49.100  0.00  0.00    +0.000 A 
ATOM     10  C   UNL     1      27.371   5.454  48.703  0.00  0.00    +0.000 A 
ATOM     11  C   UNL     1      26.770   6.636  49.054  0.00  0.00    +0.000 A 
ATOM     12  C   UNL     1      25.619   6.676  49.816  0.00  0.00    +0.000 A 
ATOM     13  O   UNL     1      27.427   7.720  48.549  0.00  0.00    +0.000 OA
ATOM     14  C   UNL     1      28.466   7.071  47.784  0.00  0.00    +0.000 C 
ATOM     15  O   UNL     1      28.478   5.638  47.934  0.00  0.00    +0.000 OA
ENDBRANCH   3   7
BRANCH   1  19
ATOM     16  C   UNL     1      19.060   0.664  50.924  0.00  0.00    +0.000 A 
ATOM     17  C   UNL     1      19.974   0.973  49.917  0.00  0.00    +0.000 A 
ATOM     18  C   UNL     1      20.829   2.077  50.041  0.00  0.00    +0.000 A 
ATOM     19  C   UNL     1      20.799   2.889  51.183  0.00  0.00    +0.000 A 
ATOM     20  C   UNL     1      19.846   2.588  52.174  0.00  0.00    +0.000 A 
ATOM     21  C   UNL     1      18.985   1.493  52.042  0.00  0.00    +0.000 A 
BRANCH  16  23
ATOM     22  C   UNL     1      17.696  -0.802  52.201  0.00  0.00    +0.000 C 
ATOM     23  O   UNL     1      18.207  -0.404  50.933  0.00  0.00    +0.000 OA
ENDBRANCH  16  23
ENDBRANCH   1  19
BRANCH   2  24
ATOM     24  C   UNL     1      21.691   5.563  49.506  0.00  0.00    +0.000 C 
ATOM     25  O   UNL     1      21.467   5.553  48.306  0.00  0.00    +0.000 OA
ATOM     26  O   UNL     1      21.128   6.502  50.287  0.00  0.00    +0.000 OA
ENDBRANCH   2  24
BRANCH   5  27
ATOM     27  C   UNL     1      23.453   2.337  52.320  0.00  0.00    +0.000 C 
BRANCH  27  28
ATOM     28  C   UNL     1      24.860   2.344  52.857  0.00  0.00    +0.000 C 
ATOM     29  C   UNL     1      25.890   1.618  52.387  0.00  0.00    +0.000 C 
BRANCH  29  30
ATOM     30  C   UNL     1      27.282   1.698  52.961  0.00  0.00    +0.000 C 
BRANCH  30  31
ATOM     31  C   UNL     1      27.932   0.322  53.215  0.00  0.00    +0.000 C 
ATOM     32  C   UNL     1      28.388   0.154  54.665  0.00  0.00    +0.000 C 
ATOM     33  C   UNL     1      26.948  -0.797  52.853  0.00  0.00    +0.000 C 
ENDBRANCH  30  31
ENDBRANCH  29  30
ENDBRANCH  27  28
ENDBRANCH   5  27
TORSDOF 8
ENDMDL
MODEL 8
REMARK VINA RESULT:    -6.679      2.202      7.627
REMARK INTER + INTRA:         -12.661
REMARK INTER:                 -10.825
REMARK INTRA:                  -1.836
REMARK UNBOUND:                -2.858
REMARK  Name = 
REMARK  11 active torsions:
REMARK  status: ('A' for Active; 'I' for Inactive)
REMARK    1  A    between atoms: C_1  and  O_2
REMARK    2  A    between atoms: O_2  and  C_3
REMARK    3  A    between atoms: C_6  and  C_7
REMARK    4  A    between atoms: C_8  and  C_9
REMARK    5  A    between atoms: C_12  and  C_13
REMARK    6  A    between atoms: N_23  and  C_24
REMARK    7  A    between atoms: C_24  and  C_25
REMARK    8  A    between atoms: C_26  and  C_27
REMARK    9  A    between atoms: C_27  and  C_28
REMARK   10  A    between atoms: C_28  and  C_29
REMARK   11  A    between atoms: C_28  and  C_30
REMARK                            x       y       z     vdW  Elec       q    Type
REMARK                         _______ _______ _______ _____ _____    ______ ____
ROOT
ATOM      1  C   UNL     1      21.425   3.726  49.813  0.00  0.00    +0.000 C 
ATOM      2  C   UNL     1      20.890   3.016  51.065  0.00  0.00    +0.000 C 
ATOM      3  C   UNL     1      21.420   1.580  50.910  0.00  0.00    +0.000 C 
ATOM      4  C   UNL     1      22.608   1.702  49.942  0.00  0.00    +0.000 C 
ATOM      5  N   UNL     1      22.765   3.122  49.567  0.00  0.00    +0.000 N 
ATOM      6  H   UNL     1      23.028   3.257  48.590  0.00  0.00    +0.000 HD
ENDROOT
BRANCH   3   7
ATOM      7  C   UNL     1      21.762   0.849  52.201  0.00  0.00    +0.000 A 
ATOM      8  C   UNL     1      20.710   0.311  52.983  0.00  0.00    +0.000 A 
ATOM      9  C   UNL     1      20.962  -0.446  54.130  0.00  0.00    +0.000 A 
ATOM     10  C   UNL     1      22.276  -0.659  54.481  0.00  0.00    +0.000 A 
ATOM     11  C   UNL     1      23.308  -0.136  53.745  0.00  0.00    +0.000 A 
ATOM     12  C   UNL     1      23.089   0.626  52.615  0.00  0.00    +0.000 A 
ATOM     13  O   UNL     1      24.528  -0.476  54.252  0.00  0.00    +0.000 OA
ATOM     14  C   UNL     1      24.135  -1.331  55.347  0.00  0.00    +0.000 C 
ATOM     15  O   UNL     1      22.708  -1.395  55.541  0.00  0.00    +0.000 OA
ENDBRANCH   3   7
BRANCH   1  19
ATOM     16  C   UNL     1      21.654   8.061  49.487  0.00  0.00    +0.000 A 
ATOM     17  C   UNL     1      21.607   7.463  50.745  0.00  0.00    +0.000 A 
ATOM     18  C   UNL     1      21.479   6.072  50.873  0.00  0.00    +0.000 A 
ATOM     19  C   UNL     1      21.409   5.247  49.742  0.00  0.00    +0.000 A 
ATOM     20  C   UNL     1      21.419   5.867  48.479  0.00  0.00    +0.000 A 
ATOM     21  C   UNL     1      21.534   7.256  48.355  0.00  0.00    +0.000 A 
BRANCH  16  23
ATOM     22  C   UNL     1      20.645  10.123  48.879  0.00  0.00    +0.000 C 
ATOM     23  O   UNL     1      21.815   9.395  49.238  0.00  0.00    +0.000 OA
ENDBRANCH  16  23
ENDBRANCH   1  19
BRANCH   2  24
ATOM     24  C   UNL     1      19.380   3.026  51.047  0.00  0.00    +0.000 C 
ATOM     25  O   UNL     1      18.641   3.719  51.728  0.00  0.00    +0.000 OA
ATOM     26  O   UNL     1      18.859   2.140  50.179  0.00  0.00    +0.000 OA
ENDBRANCH   2  24
BRANCH   5  27
ATOM     27  C   UNL     1      23.885   3.757  50.280  0.00  0.00    +0.000 C 
BRANCH  27  28
ATOM     28  C   UNL     1      25.035   2.795  50.430  0.00  0.00    +0.000 C 
ATOM     29  C   UNL     1      25.706   2.535  51.566  0.00  0.00    +0.000 C 
BRANCH  29  30
ATOM     30  C   UNL     1      26.832   1.537  51.646  0.00  0.00    +0.000 C 
BRANCH  30  31
ATOM     31  C   UNL     1      27.356   1.300  53.077  0.00  0.00    +0.000 C 
ATOM     32  C   UNL     1      27.976  -0.089  53.246  0.00  0.00    +0.000 C 
ATOM     33  C   UNL     1      28.391   2.371  53.440  0.00  0.00    +0.000 C 
ENDBRANCH  30  31
ENDBRANCH  29  30
ENDBRANCH  27  28
ENDBRANCH   5  27
TORSDOF 8
ENDMDL
MODEL 9
REMARK VINA RESULT:    -6.497      3.062      7.929
REMARK INTER + INTRA:         -12.394
REMARK INTER:                 -10.781
REMARK INTRA:                  -1.613
REMARK UNBOUND:                -2.858
REMARK  Name = 
REMARK  11 active torsions:
REMARK  status: ('A' for Active; 'I' for Inactive)
REMARK    1  A    between atoms: C_1  and  O_2
REMARK    2  A    between atoms: O_2  and  C_3
REMARK    3  A    between atoms: C_6  and  C_7
REMARK    4  A    between atoms: C_8  and  C_9
REMARK    5  A    between atoms: C_12  and  C_13
REMARK    6  A    between atoms: N_23  and  C_24
REMARK    7  A    between atoms: C_24  and  C_25
REMARK    8  A    between atoms: C_26  and  C_27
REMARK    9  A    between atoms: C_27  and  C_28
REMARK   10  A    between atoms: C_28  and  C_29
REMARK   11  A    between atoms: C_28  and  C_30
REMARK                            x       y       z     vdW  Elec       q    Type
REMARK                         _______ _______ _______ _____ _____    ______ ____
ROOT
ATOM      1  C   UNL     1      23.278   4.087  49.711  0.00  0.00    +0.000 C 
ATOM      2  C   UNL     1      23.366   3.325  51.042  0.00  0.00    +0.000 C 
ATOM      3  C   UNL     1      24.376   2.205  50.740  0.00  0.00    +0.000 C 
ATOM      4  C   UNL     1      25.168   2.707  49.521  0.00  0.00    +0.000 C 
ATOM      5  N   UNL     1      24.656   4.040  49.145  0.00  0.00    +0.000 N 
ATOM      6  H   UNL     1      24.617   4.191  48.137  0.00  0.00    +0.000 HD
ENDROOT
BRANCH   3   7
ATOM      7  C   UNL     1      25.262   1.771  51.900  0.00  0.00    +0.000 A 
ATOM      8  C   UNL     1      24.748   0.848  52.845  0.00  0.00    +0.000 A 
ATOM      9  C   UNL     1      25.538   0.344  53.881  0.00  0.00    +0.000 A 
ATOM     10  C   UNL     1      26.845   0.769  53.956  0.00  0.00    +0.000 A 
ATOM     11  C   UNL     1      27.357   1.671  53.060  0.00  0.00    +0.000 A 
ATOM     12  C   UNL     1      26.597   2.197  52.033  0.00  0.00    +0.000 A 
ATOM     13  O   UNL     1      28.671   1.949  53.298  0.00  0.00    +0.000 OA
ATOM     14  C   UNL     1      28.936   1.060  54.405  0.00  0.00    +0.000 C 
ATOM     15  O   UNL     1      27.765   0.361  54.872  0.00  0.00    +0.000 OA
ENDBRANCH   3   7
BRANCH   1  19
ATOM     16  C   UNL     1      21.707   8.140  49.476  0.00  0.00    +0.000 A 
ATOM     17  C   UNL     1      21.935   7.557  50.722  0.00  0.00    +0.000 A 
ATOM     18  C   UNL     1      22.390   6.234  50.821  0.00  0.00    +0.000 A 
ATOM     19  C   UNL     1      22.640   5.469  49.673  0.00  0.00    +0.000 A 
ATOM     20  C   UNL     1      22.369   6.058  48.424  0.00  0.00    +0.000 A 
ATOM     21  C   UNL     1      21.904   7.373  48.329  0.00  0.00    +0.000 A 
BRANCH  16  23
ATOM     22  C   UNL     1      19.956   9.740  49.592  0.00  0.00    +0.000 C 
ATOM     23  O   UNL     1      21.303   9.427  49.254  0.00  0.00    +0.000 OA
ENDBRANCH  16  23
ENDBRANCH   1  19
BRANCH   2  24
ATOM     24  C   UNL     1      22.016   2.740  51.381  0.00  0.00    +0.000 C 
ATOM     25  O   UNL     1      21.403   1.892  50.752  0.00  0.00    +0.000 OA
ATOM     26  O   UNL     1      21.481   3.265  52.498  0.00  0.00    +0.000 OA
ENDBRANCH   2  24
BRANCH   5  27
ATOM     27  C   UNL     1      25.557   5.118  49.584  0.00  0.00    +0.000 C 
BRANCH  27  28
ATOM     28  C   UNL     1      26.974   4.833  49.159  0.00  0.00    +0.000 C 
ATOM     29  C   UNL     1      27.766   5.652  48.443  0.00  0.00    +0.000 C 
BRANCH  29  30
ATOM     30  C   UNL     1      29.186   5.309  48.077  0.00  0.00    +0.000 C 
BRANCH  30  31
ATOM     31  C   UNL     1      30.151   6.511  48.126  0.00  0.00    +0.000 C 
ATOM     32  C   UNL     1      29.441   7.811  48.511  0.00  0.00    +0.000 C 
ATOM     33  C   UNL     1      31.285   6.233  49.119  0.00  0.00    +0.000 C 
ENDBRANCH  30  31
ENDBRANCH  29  30
ENDBRANCH  27  28
ENDBRANCH   5  27
TORSDOF 8
ENDMDL
