MODEL 1
REMARK VINA RESULT:    -9.857      0.000      0.000
REMARK INTER + INTRA:         -13.844
REMARK INTER:                 -13.315
REMARK INTRA:                  -0.529
REMARK UNBOUND:                -0.529
REMARK  Name = 
REMARK  7 active torsions:
REMARK  status: ('A' for Active; 'I' for Inactive)
REMARK    1  A    between atoms: C_1  and  C_2
REMARK    2  A    between atoms: C_2  and  N_3
REMARK    3  A    between atoms: N_3  and  C_4
REMARK    4  A    between atoms: C_4  and  C_5
REMARK    5  A    between atoms: N_8  and  C_9
REMARK    6  A    between atoms: C_16  and  C_17
REMARK    7  A    between atoms: N_21  and  C_22
REMARK                            x       y       z     vdW  Elec       q    Type
REMARK                         _______ _______ _______ _____ _____    ______ ____
ROOT
ATOM      1  C   UNL     1      25.031   3.449  50.769  0.00  0.00    +0.000 A 
ATOM      2  C   UNL     1      23.641   3.574  50.923  0.00  0.00    +0.000 A 
ATOM      3  F   UNL     1      22.973   4.568  50.317  0.00  0.00    +0.000 F 
ATOM      4  C   UNL     1      22.897   2.711  51.709  0.00  0.00    +0.000 A 
ATOM      5  C   UNL     1      23.529   1.666  52.386  0.00  0.00    +0.000 A 
ATOM      6  C   UNL     1      22.662   0.775  53.200  0.00  0.00    +0.000 A 
ATOM      7  O   UNL     1      21.462   1.013  53.286  0.00  0.00    +0.000 OA
ATOM      8  C   UNL     1      23.303  -0.345  53.904  0.00  0.00    +0.000 A 
ATOM      9  C   UNL     1      24.634  -0.443  53.784  0.00  0.00    +0.000 A 
ATOM     10  N   UNL     1      25.488   0.367  53.032  0.00  0.00    +0.000 N 
ATOM     11  C   UNL     1      24.926   1.458  52.305  0.00  0.00    +0.000 A 
ATOM     12  C   UNL     1      25.635   2.381  51.482  0.00  0.00    +0.000 A 
ATOM     13  F   UNL     1      26.953   2.232  51.286  0.00  0.00    +0.000 F 
ENDROOT
BRANCH  10  14
ATOM     14  C   UNL     1      26.947   0.076  52.984  0.00  0.00    +0.000 C 
ATOM     15  C   UNL     1      27.217  -1.442  52.978  0.00  0.00    +0.000 C 
ATOM     16  C   UNL     1      28.718  -1.722  52.915  0.00  0.00    +0.000 C 
ATOM     17  C   UNL     1      29.466  -1.021  54.043  0.00  0.00    +0.000 C 
ATOM     18  C   UNL     1      29.197   0.483  54.054  0.00  0.00    +0.000 C 
ATOM     19  C   UNL     1      27.699   0.789  54.119  0.00  0.00    +0.000 C 
ENDBRANCH  10  14
BRANCH   1  23
ATOM     20  C   UNL     1      26.570   6.096  48.611  0.00  0.00    +0.000 C 
ATOM     21  C   UNL     1      27.612   4.988  48.762  0.00  0.00    +0.000 C 
ATOM     22  C   UNL     1      26.773   3.759  49.036  0.00  0.00    +0.000 C 
ATOM     23  N   UNL     1      25.748   4.280  49.927  0.00  0.00    +0.000 N 
ATOM     24  C   UNL     1      25.478   5.700  49.644  0.00  0.00    +0.000 C 
BRANCH  20  25
ATOM     25  C   UNL     1      27.215   7.480  48.808  0.00  0.00    +0.000 C 
BRANCH  25  26
ATOM     26  N   UNL     1      27.007   8.092  50.134  0.00  0.00    +0.000 N 
ATOM     27  H   UNL     1      26.003   8.175  50.294  0.00  0.00    +0.000 HD
ATOM     28  H   UNL     1      27.466   7.485  50.813  0.00  0.00    +0.000 HD
BRANCH  26  30
ATOM     29  C   UNL     1      28.936   9.497  49.534  0.00  0.00    +0.000 C 
ATOM     30  C   UNL     1      27.606   9.419  50.281  0.00  0.00    +0.000 C 
ENDBRANCH  26  30
ENDBRANCH  25  26
ENDBRANCH  20  25
ENDBRANCH   1  23
BRANCH   8  31
ATOM     31  C   UNL     1      22.608  -1.356  54.718  0.00  0.00    +0.000 C 
ATOM     32  O   UNL     1      21.534  -1.862  54.453  0.00  0.00    +0.000 OA
ATOM     33  O   UNL     1      23.235  -1.651  55.869  0.00  0.00    +0.000 OA
ENDBRANCH   8  31
TORSDOF 6
ENDMDL
MODEL 2
REMARK VINA RESULT:    -8.808      4.213      7.180
REMARK INTER + INTRA:         -12.427
REMARK INTER:                 -11.546
REMARK INTRA:                  -0.881
REMARK UNBOUND:                -0.529
REMARK  Name = 
REMARK  7 active torsions:
REMARK  status: ('A' for Active; 'I' for Inactive)
REMARK    1  A    between atoms: C_1  and  C_2
REMARK    2  A    between atoms: C_2  and  N_3
REMARK    3  A    between atoms: N_3  and  C_4
REMARK    4  A    between atoms: C_4  and  C_5
REMARK    5  A    between atoms: N_8  and  C_9
REMARK    6  A    between atoms: C_16  and  C_17
REMARK    7  A    between atoms: N_21  and  C_22
REMARK                            x       y       z     vdW  Elec       q    Type
REMARK                         _______ _______ _______ _____ _____    ______ ____
ROOT
ATOM      1  C   UNL     1      23.151  -0.666  53.567  0.00  0.00    +0.000 A 
ATOM      2  C   UNL     1      22.259  -1.418  54.348  0.00  0.00    +0.000 A 
ATOM      3  F   UNL     1      22.709  -2.194  55.345  0.00  0.00    +0.000 F 
ATOM      4  C   UNL     1      20.893  -1.420  54.125  0.00  0.00    +0.000 A 
ATOM      5  C   UNL     1      20.354  -0.652  53.091  0.00  0.00    +0.000 A 
ATOM      6  C   UNL     1      18.879  -0.696  52.921  0.00  0.00    +0.000 A 
ATOM      7  O   UNL     1      18.209  -1.425  53.645  0.00  0.00    +0.000 OA
ATOM      8  C   UNL     1      18.288   0.122  51.852  0.00  0.00    +0.000 A 
ATOM      9  C   UNL     1      19.145   0.812  51.087  0.00  0.00    +0.000 A 
ATOM     10  N   UNL     1      20.534   0.886  51.207  0.00  0.00    +0.000 N 
ATOM     11  C   UNL     1      21.167   0.135  52.241  0.00  0.00    +0.000 A 
ATOM     12  C   UNL     1      22.565   0.092  52.521  0.00  0.00    +0.000 A 
ATOM     13  F   UNL     1      23.415   0.852  51.815  0.00  0.00    +0.000 F 
ENDROOT
BRANCH  10  14
ATOM     14  C   UNL     1      21.322   1.748  50.284  0.00  0.00    +0.000 C 
ATOM     15  C   UNL     1      20.723   3.166  50.192  0.00  0.00    +0.000 C 
ATOM     16  C   UNL     1      21.550   4.040  49.251  0.00  0.00    +0.000 C 
ATOM     17  C   UNL     1      21.697   3.399  47.875  0.00  0.00    +0.000 C 
ATOM     18  C   UNL     1      22.286   1.992  47.964  0.00  0.00    +0.000 C 
ATOM     19  C   UNL     1      21.472   1.096  48.900  0.00  0.00    +0.000 C 
ENDBRANCH  10  14
BRANCH   1  23
ATOM     20  C   UNL     1      26.891  -0.715  53.773  0.00  0.00    +0.000 C 
ATOM     21  C   UNL     1      26.389   0.014  55.020  0.00  0.00    +0.000 C 
ATOM     22  C   UNL     1      24.998  -0.548  55.213  0.00  0.00    +0.000 C 
ATOM     23  N   UNL     1      24.506  -0.624  53.846  0.00  0.00    +0.000 N 
ATOM     24  C   UNL     1      25.612  -0.850  52.901  0.00  0.00    +0.000 C 
BRANCH  20  25
ATOM     25  C   UNL     1      28.067   0.044  53.135  0.00  0.00    +0.000 C 
BRANCH  25  26
ATOM     26  N   UNL     1      29.248   0.226  53.999  0.00  0.00    +0.000 N 
ATOM     27  H   UNL     1      29.121  -0.341  54.837  0.00  0.00    +0.000 HD
ATOM     28  H   UNL     1      30.060  -0.057  53.450  0.00  0.00    +0.000 HD
BRANCH  26  30
ATOM     29  C   UNL     1      28.663   2.574  53.555  0.00  0.00    +0.000 C 
ATOM     30  C   UNL     1      29.480   1.610  54.412  0.00  0.00    +0.000 C 
ENDBRANCH  26  30
ENDBRANCH  25  26
ENDBRANCH  20  25
ENDBRANCH   1  23
BRANCH   8  31
ATOM     31  C   UNL     1      16.850   0.243  51.560  0.00  0.00    +0.000 C 
ATOM     32  O   UNL     1      16.096   1.066  52.046  0.00  0.00    +0.000 OA
ATOM     33  O   UNL     1      16.382  -0.704  50.732  0.00  0.00    +0.000 OA
ENDBRANCH   8  31
TORSDOF 6
ENDMDL
MODEL 3
REMARK VINA RESULT:    -8.784      1.920      4.759
REMARK INTER + INTRA:         -12.394
REMARK INTER:                 -11.551
REMARK INTRA:                  -0.843
REMARK UNBOUND:                -0.529
REMARK  Name = 
REMARK  7 active torsions:
REMARK  status: ('A' for Active; 'I' for Inactive)
REMARK    1  A    between atoms: C_1  and  C_2
REMARK    2  A    between atoms: C_2  and  N_3
REMARK    3  A    between atoms: N_3  and  C_4
REMARK    4  A    between atoms: C_4  and  C_5
REMARK    5  A    between atoms: N_8  and  C_9
REMARK    6  A    between atoms: C_16  and  C_17
REMARK    7  A    between atoms: N_21  and  C_22
REMARK                            x       y       z     vdW  Elec       q    Type
REMARK                         _______ _______ _______ _____ _____    ______ ____
ROOT
ATOM      1  C   UNL     1      25.347   3.056  50.991  0.00  0.00    +0.000 A 
ATOM      2  C   UNL     1      26.235   2.349  51.818  0.00  0.00    +0.000 A 
ATOM      3  F   UNL     1      27.550   2.616  51.797  0.00  0.00    +0.000 F 
ATOM      4  C   UNL     1      25.817   1.341  52.670  0.00  0.00    +0.000 A 
ATOM      5  C   UNL     1      24.466   0.994  52.730  0.00  0.00    +0.000 A 
ATOM      6  C   UNL     1      24.093  -0.088  53.675  0.00  0.00    +0.000 A 
ATOM      7  O   UNL     1      24.969  -0.659  54.317  0.00  0.00    +0.000 OA
ATOM      8  C   UNL     1      22.672  -0.455  53.770  0.00  0.00    +0.000 A 
ATOM      9  C   UNL     1      21.832   0.198  52.956  0.00  0.00    +0.000 A 
ATOM     10  N   UNL     1      22.134   1.219  52.053  0.00  0.00    +0.000 N 
ATOM     11  C   UNL     1      23.492   1.639  51.931  0.00  0.00    +0.000 A 
ATOM     12  C   UNL     1      23.986   2.666  51.074  0.00  0.00    +0.000 A 
ATOM     13  F   UNL     1      23.136   3.382  50.325  0.00  0.00    +0.000 F 
ENDROOT
BRANCH  10  14
ATOM     14  C   UNL     1      21.052   1.861  51.258  0.00  0.00    +0.000 C 
ATOM     15  C   UNL     1      20.323   2.946  52.075  0.00  0.00    +0.000 C 
ATOM     16  C   UNL     1      19.224   3.602  51.240  0.00  0.00    +0.000 C 
ATOM     17  C   UNL     1      18.252   2.568  50.681  0.00  0.00    +0.000 C 
ATOM     18  C   UNL     1      18.974   1.490  49.874  0.00  0.00    +0.000 C 
ATOM     19  C   UNL     1      20.078   0.816  50.691  0.00  0.00    +0.000 C 
ENDBRANCH  10  14
BRANCH   1  23
ATOM     20  C   UNL     1      26.072   6.197  49.082  0.00  0.00    +0.000 C 
ATOM     21  C   UNL     1      27.278   5.276  48.892  0.00  0.00    +0.000 C 
ATOM     22  C   UNL     1      26.692   3.895  49.088  0.00  0.00    +0.000 C 
ATOM     23  N   UNL     1      25.774   4.105  50.195  0.00  0.00    +0.000 N 
ATOM     24  C   UNL     1      25.249   5.481  50.190  0.00  0.00    +0.000 C 
BRANCH  20  25
ATOM     25  C   UNL     1      26.528   7.632  49.401  0.00  0.00    +0.000 C 
BRANCH  25  26
ATOM     26  N   UNL     1      27.988   7.838  49.443  0.00  0.00    +0.000 N 
ATOM     27  H   UNL     1      28.346   7.415  50.300  0.00  0.00    +0.000 HD
ATOM     28  H   UNL     1      28.369   7.407  48.601  0.00  0.00    +0.000 HD
BRANCH  26  30
ATOM     29  C   UNL     1      29.913   9.365  49.316  0.00  0.00    +0.000 C 
ATOM     30  C   UNL     1      28.394   9.243  49.420  0.00  0.00    +0.000 C 
ENDBRANCH  26  30
ENDBRANCH  25  26
ENDBRANCH  20  25
ENDBRANCH   1  23
BRANCH   8  31
ATOM     31  C   UNL     1      22.107  -1.467  54.679  0.00  0.00    +0.000 C 
ATOM     32  O   UNL     1      22.706  -2.023  55.580  0.00  0.00    +0.000 OA
ATOM     33  O   UNL     1      20.839  -1.806  54.392  0.00  0.00    +0.000 OA
ENDBRANCH   8  31
TORSDOF 6
ENDMDL
MODEL 4
REMARK VINA RESULT:    -8.531      3.941      7.014
REMARK INTER + INTRA:         -12.053
REMARK INTER:                 -11.560
REMARK INTRA:                  -0.493
REMARK UNBOUND:                -0.529
REMARK  Name = 
REMARK  7 active torsions:
REMARK  status: ('A' for Active; 'I' for Inactive)
REMARK    1  A    between atoms: C_1  and  C_2
REMARK    2  A    between atoms: C_2  and  N_3
REMARK    3  A    between atoms: N_3  and  C_4
REMARK    4  A    between atoms: C_4  and  C_5
REMARK    5  A    between atoms: N_8  and  C_9
REMARK    6  A    between atoms: C_16  and  C_17
REMARK    7  A    between atoms: N_21  and  C_22
REMARK                            x       y       z     vdW  Elec       q    Type
REMARK                         _______ _______ _______ _____ _____    ______ ____
ROOT
ATOM      1  C   UNL     1      24.129   0.352  53.106  0.00  0.00    +0.000 A 
ATOM      2  C   UNL     1      23.664  -0.572  54.055  0.00  0.00    +0.000 A 
ATOM      3  F   UNL     1      24.506  -1.127  54.941  0.00  0.00    +0.000 F 
ATOM      4  C   UNL     1      22.341  -0.974  54.117  0.00  0.00    +0.000 A 
ATOM      5  C   UNL     1      21.411  -0.454  53.214  0.00  0.00    +0.000 A 
ATOM      6  C   UNL     1      20.009  -0.924  53.351  0.00  0.00    +0.000 A 
ATOM      7  O   UNL     1      19.734  -1.768  54.198  0.00  0.00    +0.000 OA
ATOM      8  C   UNL     1      19.009  -0.374  52.424  0.00  0.00    +0.000 A 
ATOM      9  C   UNL     1      19.462   0.482  51.498  0.00  0.00    +0.000 A 
ATOM     10  N   UNL     1      20.766   0.953  51.330  0.00  0.00    +0.000 N 
ATOM     11  C   UNL     1      21.779   0.476  52.214  0.00  0.00    +0.000 A 
ATOM     12  C   UNL     1      23.156   0.848  52.201  0.00  0.00    +0.000 A 
ATOM     13  F   UNL     1      23.594   1.772  51.335  0.00  0.00    +0.000 F 
ENDROOT
BRANCH  10  14
ATOM     14  C   UNL     1      21.074   1.944  50.264  0.00  0.00    +0.000 C 
ATOM     15  C   UNL     1      19.922   2.954  50.087  0.00  0.00    +0.000 C 
ATOM     16  C   UNL     1      20.260   3.971  48.997  0.00  0.00    +0.000 C 
ATOM     17  C   UNL     1      20.618   3.286  47.683  0.00  0.00    +0.000 C 
ATOM     18  C   UNL     1      21.755   2.281  47.857  0.00  0.00    +0.000 C 
ATOM     19  C   UNL     1      21.439   1.250  48.942  0.00  0.00    +0.000 C 
ENDBRANCH  10  14
BRANCH   1  23
ATOM     20  C   UNL     1      27.617   1.599  53.666  0.00  0.00    +0.000 C 
ATOM     21  C   UNL     1      27.574   1.030  52.248  0.00  0.00    +0.000 C 
ATOM     22  C   UNL     1      26.115   1.162  51.867  0.00  0.00    +0.000 C 
ATOM     23  N   UNL     1      25.441   0.792  53.102  0.00  0.00    +0.000 N 
ATOM     24  C   UNL     1      26.261   1.143  54.274  0.00  0.00    +0.000 C 
BRANCH  20  25
ATOM     25  C   UNL     1      28.881   1.124  54.405  0.00  0.00    +0.000 C 
BRANCH  25  26
ATOM     26  N   UNL     1      28.937  -0.320  54.699  0.00  0.00    +0.000 N 
ATOM     27  H   UNL     1      29.208  -0.437  55.675  0.00  0.00    +0.000 HD
ATOM     28  H   UNL     1      28.011  -0.697  54.499  0.00  0.00    +0.000 HD
BRANCH  26  30
ATOM     29  C   UNL     1      29.197  -2.253  53.198  0.00  0.00    +0.000 C 
ATOM     30  C   UNL     1      29.883  -1.064  53.867  0.00  0.00    +0.000 C 
ENDBRANCH  26  30
ENDBRANCH  25  26
ENDBRANCH  20  25
ENDBRANCH   1  23
BRANCH   8  31
ATOM     31  C   UNL     1      17.569  -0.683  52.433  0.00  0.00    +0.000 C 
ATOM     32  O   UNL     1      17.075  -1.743  52.766  0.00  0.00    +0.000 OA
ATOM     33  O   UNL     1      16.798   0.310  51.962  0.00  0.00    +0.000 OA
ENDBRANCH   8  31
TORSDOF 6
ENDMDL
MODEL 5
REMARK VINA RESULT:    -8.526      1.397      1.830
REMARK INTER + INTRA:         -12.045
REMARK INTER:                 -11.242
REMARK INTRA:                  -0.803
REMARK UNBOUND:                -0.529
REMARK  Name = 
REMARK  7 active torsions:
REMARK  status: ('A' for Active; 'I' for Inactive)
REMARK    1  A    between atoms: C_1  and  C_2
REMARK    2  A    between atoms: C_2  and  N_3
REMARK    3  A    between atoms: N_3  and  C_4
REMARK    4  A    between atoms: C_4  and  C_5
REMARK    5  A    between atoms: N_8  and  C_9
REMARK    6  A    between atoms: C_16  and  C_17
REMARK    7  A    between atoms: N_21  and  C_22
REMARK                            x       y       z     vdW  Elec       q    Type
REMARK                         _______ _______ _______ _____ _____    ______ ____
ROOT
ATOM      1  C   UNL     1      25.665   4.589  49.850  0.00  0.00    +0.000 A 
ATOM      2  C   UNL     1      24.313   4.892  49.623  0.00  0.00    +0.000 A 
ATOM      3  F   UNL     1      23.965   5.939  48.858  0.00  0.00    +0.000 F 
ATOM      4  C   UNL     1      23.281   4.159  50.182  0.00  0.00    +0.000 A 
ATOM      5  C   UNL     1      23.567   3.068  51.005  0.00  0.00    +0.000 A 
ATOM      6  C   UNL     1      22.407   2.323  51.558  0.00  0.00    +0.000 A 
ATOM      7  O   UNL     1      21.269   2.712  51.318  0.00  0.00    +0.000 OA
ATOM      8  C   UNL     1      22.685   1.158  52.411  0.00  0.00    +0.000 A 
ATOM      9  C   UNL     1      23.976   0.891  52.653  0.00  0.00    +0.000 A 
ATOM     10  N   UNL     1      25.097   1.560  52.158  0.00  0.00    +0.000 N 
ATOM     11  C   UNL     1      24.896   2.684  51.304  0.00  0.00    +0.000 A 
ATOM     12  C   UNL     1      25.913   3.481  50.700  0.00  0.00    +0.000 A 
ATOM     13  F   UNL     1      27.204   3.162  50.867  0.00  0.00    +0.000 F 
ENDROOT
BRANCH  10  14
ATOM     14  C   UNL     1      26.465   1.087  52.504  0.00  0.00    +0.000 C 
ATOM     15  C   UNL     1      26.510  -0.448  52.646  0.00  0.00    +0.000 C 
ATOM     16  C   UNL     1      27.924  -0.916  52.989  0.00  0.00    +0.000 C 
ATOM     17  C   UNL     1      28.458  -0.218  54.235  0.00  0.00    +0.000 C 
ATOM     18  C   UNL     1      28.410   1.303  54.099  0.00  0.00    +0.000 C 
ATOM     19  C   UNL     1      27.003   1.796  53.758  0.00  0.00    +0.000 C 
ENDBRANCH  10  14
BRANCH   1  23
ATOM     20  C   UNL     1      28.100   6.964  48.280  0.00  0.00    +0.000 C 
ATOM     21  C   UNL     1      28.829   5.630  48.448  0.00  0.00    +0.000 C 
ATOM     22  C   UNL     1      27.704   4.619  48.444  0.00  0.00    +0.000 C 
ATOM     23  N   UNL     1      26.682   5.293  49.230  0.00  0.00    +0.000 N 
ATOM     24  C   UNL     1      26.786   6.755  49.084  0.00  0.00    +0.000 C 
BRANCH  20  25
ATOM     25  C   UNL     1      28.992   8.132  48.737  0.00  0.00    +0.000 C 
BRANCH  25  26
ATOM     26  N   UNL     1      28.409   9.006  49.772  0.00  0.00    +0.000 N 
ATOM     27  H   UNL     1      27.519   8.604  50.066  0.00  0.00    +0.000 HD
ATOM     28  H   UNL     1      29.089   9.057  50.530  0.00  0.00    +0.000 HD
BRANCH  26  30
ATOM     29  C   UNL     1      28.508  10.538  47.848  0.00  0.00    +0.000 C 
ATOM     30  C   UNL     1      28.167  10.380  49.329  0.00  0.00    +0.000 C 
ENDBRANCH  26  30
ENDBRANCH  25  26
ENDBRANCH  20  25
ENDBRANCH   1  23
BRANCH   8  31
ATOM     31  C   UNL     1      21.673   0.272  53.010  0.00  0.00    +0.000 C 
ATOM     32  O   UNL     1      20.732  -0.228  52.421  0.00  0.00    +0.000 OA
ATOM     33  O   UNL     1      21.820   0.096  54.333  0.00  0.00    +0.000 OA
ENDBRANCH   8  31
TORSDOF 6
ENDMDL
MODEL 6
REMARK VINA RESULT:    -8.483      3.916      7.675
REMARK INTER + INTRA:         -11.987
REMARK INTER:                 -10.770
REMARK INTRA:                  -1.217
REMARK UNBOUND:                -0.529
REMARK  Name = 
REMARK  7 active torsions:
REMARK  status: ('A' for Active; 'I' for Inactive)
REMARK    1  A    between atoms: C_1  and  C_2
REMARK    2  A    between atoms: C_2  and  N_3
REMARK    3  A    between atoms: N_3  and  C_4
REMARK    4  A    between atoms: C_4  and  C_5
REMARK    5  A    between atoms: N_8  and  C_9
REMARK    6  A    between atoms: C_16  and  C_17
REMARK    7  A    between atoms: N_21  and  C_22
REMARK                            x       y       z     vdW  Elec       q    Type
REMARK                         _______ _______ _______ _____ _____    ______ ____
ROOT
ATOM      1  C   UNL     1      21.415   0.828  52.185  0.00  0.00    +0.000 A 
ATOM      2  C   UNL     1      21.600  -0.150  53.176  0.00  0.00    +0.000 A 
ATOM      3  F   UNL     1      20.552  -0.812  53.688  0.00  0.00    +0.000 F 
ATOM      4  C   UNL     1      22.847  -0.466  53.687  0.00  0.00    +0.000 A 
ATOM      5  C   UNL     1      23.982   0.197  53.215  0.00  0.00    +0.000 A 
ATOM      6  C   UNL     1      25.285  -0.205  53.803  0.00  0.00    +0.000 A 
ATOM      7  O   UNL     1      25.313  -1.048  54.694  0.00  0.00    +0.000 OA
ATOM      8  C   UNL     1      26.496   0.465  53.306  0.00  0.00    +0.000 A 
ATOM      9  C   UNL     1      26.313   1.421  52.386  0.00  0.00    +0.000 A 
ATOM     10  N   UNL     1      25.112   1.833  51.804  0.00  0.00    +0.000 N 
ATOM     11  C   UNL     1      23.903   1.204  52.225  0.00  0.00    +0.000 A 
ATOM     12  C   UNL     1      22.591   1.485  51.741  0.00  0.00    +0.000 A 
ATOM     13  F   UNL     1      22.415   2.376  50.756  0.00  0.00    +0.000 F 
ENDROOT
BRANCH  10  14
ATOM     14  C   UNL     1      25.110   2.890  50.756  0.00  0.00    +0.000 C 
ATOM     15  C   UNL     1      26.499   3.033  50.100  0.00  0.00    +0.000 C 
ATOM     16  C   UNL     1      26.475   4.113  49.020  0.00  0.00    +0.000 C 
ATOM     17  C   UNL     1      25.969   5.443  49.567  0.00  0.00    +0.000 C 
ATOM     18  C   UNL     1      24.596   5.303  50.222  0.00  0.00    +0.000 C 
ATOM     19  C   UNL     1      24.595   4.228  51.310  0.00  0.00    +0.000 C 
ENDBRANCH  10  14
BRANCH   1  23
ATOM     20  C   UNL     1      18.154   1.072  50.358  0.00  0.00    +0.000 C 
ATOM     21  C   UNL     1      18.027   1.945  51.607  0.00  0.00    +0.000 C 
ATOM     22  C   UNL     1      19.460   2.324  51.911  0.00  0.00    +0.000 C 
ATOM     23  N   UNL     1      20.169   1.083  51.639  0.00  0.00    +0.000 N 
ATOM     24  C   UNL     1      19.484   0.304  50.594  0.00  0.00    +0.000 C 
BRANCH  20  25
ATOM     25  C   UNL     1      16.897   0.204  50.170  0.00  0.00    +0.000 C 
BRANCH  25  26
ATOM     26  N   UNL     1      16.060   0.033  51.373  0.00  0.00    +0.000 N 
ATOM     27  H   UNL     1      16.389   0.684  52.086  0.00  0.00    +0.000 HD
ATOM     28  H   UNL     1      15.098   0.212  51.088  0.00  0.00    +0.000 HD
BRANCH  26  30
ATOM     29  C   UNL     1      17.219  -1.454  52.954  0.00  0.00    +0.000 C 
ATOM     30  C   UNL     1      16.090  -1.317  51.935  0.00  0.00    +0.000 C 
ENDBRANCH  26  30
ENDBRANCH  25  26
ENDBRANCH  20  25
ENDBRANCH   1  23
BRANCH   8  31
ATOM     31  C   UNL     1      27.875   0.171  53.732  0.00  0.00    +0.000 C 
ATOM     32  O   UNL     1      28.568   0.887  54.431  0.00  0.00    +0.000 OA
ATOM     33  O   UNL     1      28.372  -0.965  53.218  0.00  0.00    +0.000 OA
ENDBRANCH   8  31
TORSDOF 6
ENDMDL
MODEL 7
REMARK VINA RESULT:    -8.173      4.036      7.137
REMARK INTER + INTRA:         -11.569
REMARK INTER:                 -10.786
REMARK INTRA:                  -0.783
REMARK UNBOUND:                -0.529
REMARK  Name = 
REMARK  7 active torsions:
REMARK  status: ('A' for Active; 'I' for Inactive)
REMARK    1  A    between atoms: C_1  and  C_2
REMARK    2  A    between atoms: C_2  and  N_3
REMARK    3  A    between atoms: N_3  and  C_4
REMARK    4  A    between atoms: C_4  and  C_5
REMARK    5  A    between atoms: N_8  and  C_9
REMARK    6  A    between atoms: C_16  and  C_17
REMARK    7  A    between atoms: N_21  and  C_22
REMARK                            x       y       z     vdW  Elec       q    Type
REMARK                         _______ _______ _______ _____ _____    ______ ____
ROOT
ATOM      1  C   UNL     1      21.239   0.923  52.402  0.00  0.00    +0.000 A 
ATOM      2  C   UNL     1      21.371  -0.043  53.412  0.00  0.00    +0.000 A 
ATOM      3  F   UNL     1      20.288  -0.629  53.944  0.00  0.00    +0.000 F 
ATOM      4  C   UNL     1      22.600  -0.424  53.923  0.00  0.00    +0.000 A 
ATOM      5  C   UNL     1      23.770   0.158  53.431  0.00  0.00    +0.000 A 
ATOM      6  C   UNL     1      25.050  -0.311  54.020  0.00  0.00    +0.000 A 
ATOM      7  O   UNL     1      25.032  -1.135  54.929  0.00  0.00    +0.000 OA
ATOM      8  C   UNL     1      26.296   0.273  53.503  0.00  0.00    +0.000 A 
ATOM      9  C   UNL     1      26.166   1.219  52.563  0.00  0.00    +0.000 A 
ATOM     10  N   UNL     1      24.989   1.691  51.979  0.00  0.00    +0.000 N 
ATOM     11  C   UNL     1      23.746   1.147  52.420  0.00  0.00    +0.000 A 
ATOM     12  C   UNL     1      22.451   1.497  51.937  0.00  0.00    +0.000 A 
ATOM     13  F   UNL     1      22.323   2.377  50.934  0.00  0.00    +0.000 F 
ENDROOT
BRANCH  10  14
ATOM     14  C   UNL     1      25.044   2.723  50.908  0.00  0.00    +0.000 C 
ATOM     15  C   UNL     1      26.452   2.812  50.286  0.00  0.00    +0.000 C 
ATOM     16  C   UNL     1      26.488   3.867  49.181  0.00  0.00    +0.000 C 
ATOM     17  C   UNL     1      26.009   5.223  49.687  0.00  0.00    +0.000 C 
ATOM     18  C   UNL     1      24.616   5.138  50.309  0.00  0.00    +0.000 C 
ATOM     19  C   UNL     1      24.556   4.089  51.420  0.00  0.00    +0.000 C 
ENDBRANCH  10  14
BRANCH   1  23
ATOM     20  C   UNL     1      17.956   2.285  51.219  0.00  0.00    +0.000 C 
ATOM     21  C   UNL     1      18.278   1.079  50.336  0.00  0.00    +0.000 C 
ATOM     22  C   UNL     1      19.176   0.237  51.216  0.00  0.00    +0.000 C 
ATOM     23  N   UNL     1      20.008   1.243  51.857  0.00  0.00    +0.000 N 
ATOM     24  C   UNL     1      19.277   2.513  52.006  0.00  0.00    +0.000 C 
BRANCH  20  25
ATOM     25  C   UNL     1      17.467   3.469  50.366  0.00  0.00    +0.000 C 
BRANCH  25  26
ATOM     26  N   UNL     1      16.462   4.339  51.006  0.00  0.00    +0.000 N 
ATOM     27  H   UNL     1      16.273   3.974  51.940  0.00  0.00    +0.000 HD
ATOM     28  H   UNL     1      16.856   5.279  51.022  0.00  0.00    +0.000 HD
BRANCH  26  30
ATOM     29  C   UNL     1      14.843   3.080  49.647  0.00  0.00    +0.000 C 
ATOM     30  C   UNL     1      15.195   4.424  50.281  0.00  0.00    +0.000 C 
ENDBRANCH  26  30
ENDBRANCH  25  26
ENDBRANCH  20  25
ENDBRANCH   1  23
BRANCH   8  31
ATOM     31  C   UNL     1      27.657  -0.096  53.927  0.00  0.00    +0.000 C 
ATOM     32  O   UNL     1      28.399  -0.861  53.340  0.00  0.00    +0.000 OA
ATOM     33  O   UNL     1      28.023   0.441  55.102  0.00  0.00    +0.000 OA
ENDBRANCH   8  31
TORSDOF 6
ENDMDL
MODEL 8
REMARK VINA RESULT:    -8.093      3.451      5.931
REMARK INTER + INTRA:         -11.461
REMARK INTER:                  -9.807
REMARK INTRA:                  -1.654
REMARK UNBOUND:                -0.529
REMARK  Name = 
REMARK  7 active torsions:
REMARK  status: ('A' for Active; 'I' for Inactive)
REMARK    1  A    between atoms: C_1  and  C_2
REMARK    2  A    between atoms: C_2  and  N_3
REMARK    3  A    between atoms: N_3  and  C_4
REMARK    4  A    between atoms: C_4  and  C_5
REMARK    5  A    between atoms: N_8  and  C_9
REMARK    6  A    between atoms: C_16  and  C_17
REMARK    7  A    between atoms: N_21  and  C_22
REMARK                            x       y       z     vdW  Elec       q    Type
REMARK                         _______ _______ _______ _____ _____    ______ ____
ROOT
ATOM      1  C   UNL     1      23.404   4.512  50.384  0.00  0.00    +0.000 A 
ATOM      2  C   UNL     1      24.787   4.580  50.151  0.00  0.00    +0.000 A 
ATOM      3  F   UNL     1      25.311   5.584  49.431  0.00  0.00    +0.000 F 
ATOM      4  C   UNL     1      25.670   3.624  50.622  0.00  0.00    +0.000 A 
ATOM      5  C   UNL     1      25.194   2.540  51.362  0.00  0.00    +0.000 A 
ATOM      6  C   UNL     1      26.203   1.562  51.843  0.00  0.00    +0.000 A 
ATOM      7  O   UNL     1      27.382   1.711  51.540  0.00  0.00    +0.000 OA
ATOM      8  C   UNL     1      25.726   0.424  52.643  0.00  0.00    +0.000 A 
ATOM      9  C   UNL     1      24.403   0.343  52.835  0.00  0.00    +0.000 A 
ATOM     10  N   UNL     1      23.418   1.234  52.405  0.00  0.00    +0.000 N 
ATOM     11  C   UNL     1      23.817   2.373  51.645  0.00  0.00    +0.000 A 
ATOM     12  C   UNL     1      22.960   3.390  51.130  0.00  0.00    +0.000 A 
ATOM     13  F   UNL     1      21.647   3.360  51.398  0.00  0.00    +0.000 F 
ENDROOT
BRANCH  10  14
ATOM     14  C   UNL     1      21.990   1.001  52.755  0.00  0.00    +0.000 C 
ATOM     15  C   UNL     1      21.855   0.277  54.110  0.00  0.00    +0.000 C 
ATOM     16  C   UNL     1      20.384   0.057  54.459  0.00  0.00    +0.000 C 
ATOM     17  C   UNL     1      19.650  -0.686  53.348  0.00  0.00    +0.000 C 
ATOM     18  C   UNL     1      19.786   0.026  52.003  0.00  0.00    +0.000 C 
ATOM     19  C   UNL     1      21.251   0.257  51.630  0.00  0.00    +0.000 C 
ENDBRANCH  10  14
BRANCH   1  23
ATOM     20  C   UNL     1      21.042   6.917  48.749  0.00  0.00    +0.000 C 
ATOM     21  C   UNL     1      21.079   7.275  50.236  0.00  0.00    +0.000 C 
ATOM     22  C   UNL     1      22.436   6.772  50.678  0.00  0.00    +0.000 C 
ATOM     23  N   UNL     1      22.545   5.511  49.962  0.00  0.00    +0.000 N 
ATOM     24  C   UNL     1      21.803   5.563  48.691  0.00  0.00    +0.000 C 
BRANCH  20  25
ATOM     25  C   UNL     1      19.593   6.900  48.230  0.00  0.00    +0.000 C 
BRANCH  25  26
ATOM     26  N   UNL     1      18.574   6.478  49.209  0.00  0.00    +0.000 N 
ATOM     27  H   UNL     1      18.940   6.651  50.145  0.00  0.00    +0.000 HD
ATOM     28  H   UNL     1      17.733   7.018  49.008  0.00  0.00    +0.000 HD
BRANCH  26  30
ATOM     29  C   UNL     1      18.633   4.308  50.369  0.00  0.00    +0.000 C 
ATOM     30  C   UNL     1      18.202   5.066  49.115  0.00  0.00    +0.000 C 
ENDBRANCH  26  30
ENDBRANCH  25  26
ENDBRANCH  20  25
ENDBRANCH   1  23
BRANCH   8  31
ATOM     31  C   UNL     1      26.576  -0.619  53.243  0.00  0.00    +0.000 C 
ATOM     32  O   UNL     1      26.730  -1.744  52.806  0.00  0.00    +0.000 OA
ATOM     33  O   UNL     1      27.147  -0.253  54.402  0.00  0.00    +0.000 OA
ENDBRANCH   8  31
TORSDOF 6
ENDMDL
MODEL 9
REMARK VINA RESULT:    -8.007      2.834      4.916
REMARK INTER + INTRA:         -11.344
REMARK INTER:                  -9.895
REMARK INTRA:                  -1.449
REMARK UNBOUND:                -0.529
REMARK  Name = 
REMARK  7 active torsions:
REMARK  status: ('A' for Active; 'I' for Inactive)
REMARK    1  A    between atoms: C_1  and  C_2
REMARK    2  A    between atoms: C_2  and  N_3
REMARK    3  A    between atoms: N_3  and  C_4
REMARK    4  A    between atoms: C_4  and  C_5
REMARK    5  A    between atoms: N_8  and  C_9
REMARK    6  A    between atoms: C_16  and  C_17
REMARK    7  A    between atoms: N_21  and  C_22
REMARK                            x       y       z     vdW  Elec       q    Type
REMARK                         _______ _______ _______ _____ _____    ______ ____
ROOT
ATOM      1  C   UNL     1      24.114   4.249  49.577  0.00  0.00    +0.000 A 
ATOM      2  C   UNL     1      25.515   4.164  49.614  0.00  0.00    +0.000 A 
ATOM      3  F   UNL     1      26.271   4.999  48.883  0.00  0.00    +0.000 F 
ATOM      4  C   UNL     1      26.185   3.220  50.373  0.00  0.00    +0.000 A 
ATOM      5  C   UNL     1      25.464   2.306  51.143  0.00  0.00    +0.000 A 
ATOM      6  C   UNL     1      26.253   1.332  51.940  0.00  0.00    +0.000 A 
ATOM      7  O   UNL     1      27.477   1.333  51.856  0.00  0.00    +0.000 OA
ATOM      8  C   UNL     1      25.515   0.373  52.775  0.00  0.00    +0.000 A 
ATOM      9  C   UNL     1      24.178   0.434  52.713  0.00  0.00    +0.000 A 
ATOM     10  N   UNL     1      23.394   1.329  51.982  0.00  0.00    +0.000 N 
ATOM     11  C   UNL     1      24.050   2.301  51.170  0.00  0.00    +0.000 A 
ATOM     12  C   UNL     1      23.419   3.296  50.365  0.00  0.00    +0.000 A 
ATOM     13  F   UNL     1      22.085   3.418  50.371  0.00  0.00    +0.000 F 
ENDROOT
BRANCH  10  14
ATOM     14  C   UNL     1      21.909   1.273  52.073  0.00  0.00    +0.000 C 
ATOM     15  C   UNL     1      21.450   0.739  53.445  0.00  0.00    +0.000 C 
ATOM     16  C   UNL     1      19.925   0.699  53.524  0.00  0.00    +0.000 C 
ATOM     17  C   UNL     1      19.324  -0.105  52.377  0.00  0.00    +0.000 C 
ATOM     18  C   UNL     1      19.781   0.419  51.016  0.00  0.00    +0.000 C 
ATOM     19  C   UNL     1      21.306   0.466  50.911  0.00  0.00    +0.000 C 
ENDBRANCH  10  14
BRANCH   1  23
ATOM     20  C   UNL     1      22.423   7.259  48.123  0.00  0.00    +0.000 C 
ATOM     21  C   UNL     1      22.698   6.303  46.962  0.00  0.00    +0.000 C 
ATOM     22  C   UNL     1      22.746   4.948  47.635  0.00  0.00    +0.000 C 
ATOM     23  N   UNL     1      23.464   5.241  48.865  0.00  0.00    +0.000 N 
ATOM     24  C   UNL     1      23.216   6.626  49.301  0.00  0.00    +0.000 C 
BRANCH  20  25
ATOM     25  C   UNL     1      22.811   8.700  47.745  0.00  0.00    +0.000 C 
BRANCH  25  26
ATOM     26  N   UNL     1      24.181   9.104  48.115  0.00  0.00    +0.000 N 
ATOM     27  H   UNL     1      24.148  10.064  48.458  0.00  0.00    +0.000 HD
ATOM     28  H   UNL     1      24.501   8.443  48.823  0.00  0.00    +0.000 HD
BRANCH  26  30
ATOM     29  C   UNL     1      26.155   7.923  47.243  0.00  0.00    +0.000 C 
ATOM     30  C   UNL     1      25.141   9.042  47.014  0.00  0.00    +0.000 C 
ENDBRANCH  26  30
ENDBRANCH  25  26
ENDBRANCH  20  25
ENDBRANCH   1  23
BRANCH   8  31
ATOM     31  C   UNL     1      26.119  -0.633  53.664  0.00  0.00    +0.000 C 
ATOM     32  O   UNL     1      26.682  -1.650  53.303  0.00  0.00    +0.000 OA
ATOM     33  O   UNL     1      25.942  -0.380  54.970  0.00  0.00    +0.000 OA
ENDBRANCH   8  31
TORSDOF 6
ENDMDL
