MODEL 1
REMARK VINA RESULT:    -7.434      0.000      0.000
REMARK INTER + INTRA:         -11.371
REMARK INTER:                 -10.259
REMARK INTRA:                  -1.113
REMARK UNBOUND:                -1.113
REMARK  Name = 
REMARK  12 active torsions:
REMARK  status: ('A' for Active; 'I' for Inactive)
REMARK    1  A    between atoms: C_1  and  C_2
REMARK    2  A    between atoms: C_2  and  C_3
REMARK    3  A    between atoms: C_3  and  C_4
REMARK    4  A    between atoms: C_10  and  C_11
REMARK    5  A    between atoms: C_11  and  O_12
REMARK    6  A    between atoms: C_11  and  C_13
REMARK    7  A    between atoms: C_13  and  C_14
REMARK    8  A    between atoms: C_15  and  O_16
REMARK    9  A    between atoms: O_16  and  C_17
REMARK   10  A    between atoms: C_17  and  C_18
REMARK   11  A    between atoms: C_23  and  C_24
REMARK   12  A    between atoms: C_23  and  C_25
REMARK                            x       y       z     vdW  Elec       q    Type
REMARK                         _______ _______ _______ _____ _____    ______ ____
ROOT
ATOM      1  C   UNL     1      23.808   3.028  49.641  0.00  0.00    +0.000 A 
ATOM      2  C   UNL     1      23.173   2.663  48.506  0.00  0.00    +0.000 A 
ATOM      3  C   UNL     1      21.824   3.305  48.525  0.00  0.00    +0.000 A 
ATOM      4  O   UNL     1      21.306   3.820  47.547  0.00  0.00    +0.000 OA
ATOM      5  O   UNL     1      21.186   3.174  49.765  0.00  0.00    +0.000 OA
ATOM      6  C   UNL     1      21.793   2.494  50.867  0.00  0.00    +0.000 A 
ATOM      7  C   UNL     1      20.996   1.996  51.913  0.00  0.00    +0.000 A 
ATOM      8  C   UNL     1      21.672   1.166  52.841  0.00  0.00    +0.000 A 
ATOM      9  C   UNL     1      23.096   0.982  52.792  0.00  0.00    +0.000 A 
ATOM     10  C   UNL     1      23.859   1.611  51.788  0.00  0.00    +0.000 A 
ATOM     11  C   UNL     1      23.196   2.349  50.807  0.00  0.00    +0.000 A 
ATOM     12  O   UNL     1      25.225   1.533  51.705  0.00  0.00    +0.000 OA
ATOM     13  C   UNL     1      25.962   0.718  52.641  0.00  0.00    +0.000 C 
ATOM     14  C   UNL     1      26.724  -0.320  51.805  0.00  0.00    +0.000 C 
ATOM     15  C   UNL     1      26.979   1.621  53.357  0.00  0.00    +0.000 C 
ATOM     16  C   UNL     1      25.123   0.016  53.679  0.00  0.00    +0.000 C 
ATOM     17  C   UNL     1      23.794   0.147  53.764  0.00  0.00    +0.000 C 
ENDROOT
BRANCH   1  18
ATOM     18  C   UNL     1      24.182   4.490  49.853  0.00  0.00    +0.000 C 
BRANCH  18  20
ATOM     19  C   UNL     1      26.617   3.825  49.464  0.00  0.00    +0.000 C 
ATOM     20  C   UNL     1      25.541   4.888  49.286  0.00  0.00    +0.000 C 
ENDBRANCH  18  20
ENDBRANCH   1  18
BRANCH   7  21
ATOM     21  C   UNL     1      19.529   2.406  52.090  0.00  0.00    +0.000 C 
BRANCH  21  22
ATOM     22  O   UNL     1      19.430   3.832  52.027  0.00  0.00    +0.000 OA
ATOM     23  H   UNL     1      18.597   4.117  52.434  0.00  0.00    +0.000 HD
ENDBRANCH  21  22
BRANCH  21  24
ATOM     24  C   UNL     1      18.493   1.818  51.111  0.00  0.00    +0.000 C 
ATOM     25  C   UNL     1      18.785   0.422  50.586  0.00  0.00    +0.000 C 
ENDBRANCH  21  24
ENDBRANCH   7  21
BRANCH   8  26
ATOM     26  O   UNL     1      21.028   0.591  53.923  0.00  0.00    +0.000 OA
BRANCH  26  27
ATOM     27  C   UNL     1      20.322  -0.627  53.640  0.00  0.00    +0.000 C 
ATOM     28  C   UNL     1      20.977  -1.816  54.333  0.00  0.00    +0.000 C 
ENDBRANCH  26  27
ENDBRANCH   8  26
TORSDOF 7
ENDMDL
MODEL 2
REMARK VINA RESULT:    -7.118      1.470      5.329
REMARK INTER + INTRA:         -10.936
REMARK INTER:                  -9.882
REMARK INTRA:                  -1.054
REMARK UNBOUND:                -1.113
REMARK  Name = 
REMARK  12 active torsions:
REMARK  status: ('A' for Active; 'I' for Inactive)
REMARK    1  A    between atoms: C_1  and  C_2
REMARK    2  A    between atoms: C_2  and  C_3
REMARK    3  A    between atoms: C_3  and  C_4
REMARK    4  A    between atoms: C_10  and  C_11
REMARK    5  A    between atoms: C_11  and  O_12
REMARK    6  A    between atoms: C_11  and  C_13
REMARK    7  A    between atoms: C_13  and  C_14
REMARK    8  A    between atoms: C_15  and  O_16
REMARK    9  A    between atoms: O_16  and  C_17
REMARK   10  A    between atoms: C_17  and  C_18
REMARK   11  A    between atoms: C_23  and  C_24
REMARK   12  A    between atoms: C_23  and  C_25
REMARK                            x       y       z     vdW  Elec       q    Type
REMARK                         _______ _______ _______ _____ _____    ______ ____
ROOT
ATOM      1  C   UNL     1      21.932   1.343  52.614  0.00  0.00    +0.000 A 
ATOM      2  C   UNL     1      21.174   2.378  53.038  0.00  0.00    +0.000 A 
ATOM      3  C   UNL     1      20.447   2.913  51.848  0.00  0.00    +0.000 A 
ATOM      4  O   UNL     1      19.275   3.256  51.869  0.00  0.00    +0.000 OA
ATOM      5  O   UNL     1      21.281   3.061  50.733  0.00  0.00    +0.000 OA
ATOM      6  C   UNL     1      22.669   2.722  50.769  0.00  0.00    +0.000 A 
ATOM      7  C   UNL     1      23.554   3.275  49.826  0.00  0.00    +0.000 A 
ATOM      8  C   UNL     1      24.928   3.038  50.079  0.00  0.00    +0.000 A 
ATOM      9  C   UNL     1      25.362   2.167  51.136  0.00  0.00    +0.000 A 
ATOM     10  C   UNL     1      24.417   1.541  51.973  0.00  0.00    +0.000 A 
ATOM     11  C   UNL     1      23.065   1.844  51.801  0.00  0.00    +0.000 A 
ATOM     12  O   UNL     1      24.743   0.654  52.965  0.00  0.00    +0.000 OA
ATOM     13  C   UNL     1      26.128   0.361  53.247  0.00  0.00    +0.000 C 
ATOM     14  C   UNL     1      26.362   0.745  54.715  0.00  0.00    +0.000 C 
ATOM     15  C   UNL     1      26.334  -1.155  53.094  0.00  0.00    +0.000 C 
ATOM     16  C   UNL     1      27.126   1.077  52.371  0.00  0.00    +0.000 C 
ATOM     17  C   UNL     1      26.776   1.903  51.379  0.00  0.00    +0.000 C 
ENDROOT
BRANCH   1  18
ATOM     18  C   UNL     1      21.255   0.082  52.091  0.00  0.00    +0.000 C 
BRANCH  18  20
ATOM     19  C   UNL     1      21.306  -1.196  54.302  0.00  0.00    +0.000 C 
ATOM     20  C   UNL     1      20.462  -0.694  53.138  0.00  0.00    +0.000 C 
ENDBRANCH  18  20
ENDBRANCH   1  18
BRANCH   7  21
ATOM     21  C   UNL     1      23.061   3.993  48.564  0.00  0.00    +0.000 C 
BRANCH  21  22
ATOM     22  O   UNL     1      21.897   3.324  48.069  0.00  0.00    +0.000 OA
ATOM     23  H   UNL     1      21.918   2.393  48.342  0.00  0.00    +0.000 HD
ENDBRANCH  21  22
BRANCH  21  24
ATOM     24  C   UNL     1      22.731   5.496  48.672  0.00  0.00    +0.000 C 
ATOM     25  C   UNL     1      23.484   6.416  47.724  0.00  0.00    +0.000 C 
ENDBRANCH  21  24
ENDBRANCH   7  21
BRANCH   8  26
ATOM     26  O   UNL     1      25.926   3.521  49.251  0.00  0.00    +0.000 OA
BRANCH  26  27
ATOM     27  C   UNL     1      26.322   4.880  49.494  0.00  0.00    +0.000 C 
ATOM     28  C   UNL     1      27.500   5.275  48.613  0.00  0.00    +0.000 C 
ENDBRANCH  26  27
ENDBRANCH   8  26
TORSDOF 7
ENDMDL
MODEL 3
REMARK VINA RESULT:    -7.035      1.980      4.977
REMARK INTER + INTRA:         -10.821
REMARK INTER:                  -9.911
REMARK INTRA:                  -0.910
REMARK UNBOUND:                -1.113
REMARK  Name = 
REMARK  12 active torsions:
REMARK  status: ('A' for Active; 'I' for Inactive)
REMARK    1  A    between atoms: C_1  and  C_2
REMARK    2  A    between atoms: C_2  and  C_3
REMARK    3  A    between atoms: C_3  and  C_4
REMARK    4  A    between atoms: C_10  and  C_11
REMARK    5  A    between atoms: C_11  and  O_12
REMARK    6  A    between atoms: C_11  and  C_13
REMARK    7  A    between atoms: C_13  and  C_14
REMARK    8  A    between atoms: C_15  and  O_16
REMARK    9  A    between atoms: O_16  and  C_17
REMARK   10  A    between atoms: C_17  and  C_18
REMARK   11  A    between atoms: C_23  and  C_24
REMARK   12  A    between atoms: C_23  and  C_25
REMARK                            x       y       z     vdW  Elec       q    Type
REMARK                         _______ _______ _______ _____ _____    ______ ____
ROOT
ATOM      1  C   UNL     1      25.788   2.540  52.404  0.00  0.00    +0.000 A 
ATOM      2  C   UNL     1      26.240   2.313  53.657  0.00  0.00    +0.000 A 
ATOM      3  C   UNL     1      26.026   0.863  53.950  0.00  0.00    +0.000 A 
ATOM      4  O   UNL     1      26.841   0.162  54.527  0.00  0.00    +0.000 OA
ATOM      5  O   UNL     1      24.752   0.423  53.569  0.00  0.00    +0.000 OA
ATOM      6  C   UNL     1      23.792   1.295  52.966  0.00  0.00    +0.000 A 
ATOM      7  C   UNL     1      22.424   0.971  53.003  0.00  0.00    +0.000 A 
ATOM      8  C   UNL     1      21.551   1.997  52.564  0.00  0.00    +0.000 A 
ATOM      9  C   UNL     1      22.047   3.213  51.981  0.00  0.00    +0.000 A 
ATOM     10  C   UNL     1      23.434   3.426  51.858  0.00  0.00    +0.000 A 
ATOM     11  C   UNL     1      24.308   2.471  52.379  0.00  0.00    +0.000 A 
ATOM     12  O   UNL     1      23.988   4.531  51.264  0.00  0.00    +0.000 OA
ATOM     13  C   UNL     1      23.140   5.594  50.780  0.00  0.00    +0.000 C 
ATOM     14  C   UNL     1      23.564   6.864  51.530  0.00  0.00    +0.000 C 
ATOM     15  C   UNL     1      23.427   5.785  49.282  0.00  0.00    +0.000 C 
ATOM     16  C   UNL     1      21.660   5.367  50.963  0.00  0.00    +0.000 C 
ATOM     17  C   UNL     1      21.146   4.257  51.506  0.00  0.00    +0.000 C 
ENDROOT
BRANCH   1  18
ATOM     18  C   UNL     1      26.497   1.892  51.221  0.00  0.00    +0.000 C 
BRANCH  18  20
ATOM     19  C   UNL     1      26.847   3.852  49.622  0.00  0.00    +0.000 C 
ATOM     20  C   UNL     1      26.169   2.512  49.866  0.00  0.00    +0.000 C 
ENDBRANCH  18  20
ENDBRANCH   1  18
BRANCH   7  21
ATOM     21  C   UNL     1      21.925  -0.425  53.394  0.00  0.00    +0.000 C 
BRANCH  21  22
ATOM     22  O   UNL     1      22.791  -1.410  52.822  0.00  0.00    +0.000 OA
ATOM     23  H   UNL     1      23.689  -1.048  52.751  0.00  0.00    +0.000 HD
ENDBRANCH  21  22
BRANCH  21  24
ATOM     24  C   UNL     1      21.776  -0.744  54.896  0.00  0.00    +0.000 C 
ATOM     25  C   UNL     1      22.913  -1.529  55.530  0.00  0.00    +0.000 C 
ENDBRANCH  21  24
ENDBRANCH   7  21
BRANCH   8  26
ATOM     26  O   UNL     1      20.176   1.839  52.546  0.00  0.00    +0.000 OA
BRANCH  26  27
ATOM     27  C   UNL     1      19.653   1.146  51.402  0.00  0.00    +0.000 C 
ATOM     28  C   UNL     1      18.635   0.090  51.817  0.00  0.00    +0.000 C 
ENDBRANCH  26  27
ENDBRANCH   8  26
TORSDOF 7
ENDMDL
MODEL 4
REMARK VINA RESULT:    -6.895      2.289      5.479
REMARK INTER + INTRA:         -10.627
REMARK INTER:                 -10.018
REMARK INTRA:                  -0.610
REMARK UNBOUND:                -1.113
REMARK  Name = 
REMARK  12 active torsions:
REMARK  status: ('A' for Active; 'I' for Inactive)
REMARK    1  A    between atoms: C_1  and  C_2
REMARK    2  A    between atoms: C_2  and  C_3
REMARK    3  A    between atoms: C_3  and  C_4
REMARK    4  A    between atoms: C_10  and  C_11
REMARK    5  A    between atoms: C_11  and  O_12
REMARK    6  A    between atoms: C_11  and  C_13
REMARK    7  A    between atoms: C_13  and  C_14
REMARK    8  A    between atoms: C_15  and  O_16
REMARK    9  A    between atoms: O_16  and  C_17
REMARK   10  A    between atoms: C_17  and  C_18
REMARK   11  A    between atoms: C_23  and  C_24
REMARK   12  A    between atoms: C_23  and  C_25
REMARK                            x       y       z     vdW  Elec       q    Type
REMARK                         _______ _______ _______ _____ _____    ______ ____
ROOT
ATOM      1  C   UNL     1      22.412   3.503  51.694  0.00  0.00    +0.000 A 
ATOM      2  C   UNL     1      22.746   4.721  52.174  0.00  0.00    +0.000 A 
ATOM      3  C   UNL     1      24.061   5.092  51.568  0.00  0.00    +0.000 A 
ATOM      4  O   UNL     1      24.324   6.210  51.155  0.00  0.00    +0.000 OA
ATOM      5  O   UNL     1      24.984   4.039  51.608  0.00  0.00    +0.000 OA
ATOM      6  C   UNL     1      24.665   2.765  52.172  0.00  0.00    +0.000 A 
ATOM      7  C   UNL     1      25.693   1.905  52.598  0.00  0.00    +0.000 A 
ATOM      8  C   UNL     1      25.263   0.768  53.326  0.00  0.00    +0.000 A 
ATOM      9  C   UNL     1      23.870   0.449  53.475  0.00  0.00    +0.000 A 
ATOM     10  C   UNL     1      22.886   1.288  52.916  0.00  0.00    +0.000 A 
ATOM     11  C   UNL     1      23.290   2.466  52.285  0.00  0.00    +0.000 A 
ATOM     12  O   UNL     1      21.542   1.027  52.964  0.00  0.00    +0.000 OA
ATOM     13  C   UNL     1      21.054  -0.131  53.674  0.00  0.00    +0.000 C 
ATOM     14  C   UNL     1      20.105   0.393  54.760  0.00  0.00    +0.000 C 
ATOM     15  C   UNL     1      20.249  -0.990  52.685  0.00  0.00    +0.000 C 
ATOM     16  C   UNL     1      22.121  -0.992  54.305  0.00  0.00    +0.000 C 
ATOM     17  C   UNL     1      23.430  -0.736  54.203  0.00  0.00    +0.000 C 
ENDROOT
BRANCH   1  18
ATOM     18  C   UNL     1      22.109   3.339  50.209  0.00  0.00    +0.000 C 
BRANCH  18  20
ATOM     19  C   UNL     1      21.332   1.042  49.407  0.00  0.00    +0.000 C 
ATOM     20  C   UNL     1      22.506   1.987  49.624  0.00  0.00    +0.000 C 
ENDBRANCH  18  20
ENDBRANCH   1  18
BRANCH   7  21
ATOM     21  C   UNL     1      27.160   2.131  52.213  0.00  0.00    +0.000 C 
BRANCH  21  22
ATOM     22  O   UNL     1      27.224   3.079  51.144  0.00  0.00    +0.000 OA
ATOM     23  H   UNL     1      27.819   3.805  51.390  0.00  0.00    +0.000 HD
ENDBRANCH  21  22
BRANCH  21  24
ATOM     24  C   UNL     1      28.131   2.600  53.317  0.00  0.00    +0.000 C 
ATOM     25  C   UNL     1      29.080   1.546  53.864  0.00  0.00    +0.000 C 
ENDBRANCH  21  24
ENDBRANCH   7  21
BRANCH   8  26
ATOM     26  O   UNL     1      26.151  -0.171  53.821  0.00  0.00    +0.000 OA
BRANCH  26  27
ATOM     27  C   UNL     1      26.479  -1.241  52.920  0.00  0.00    +0.000 C 
ATOM     28  C   UNL     1      27.967  -1.563  52.969  0.00  0.00    +0.000 C 
ENDBRANCH  26  27
ENDBRANCH   8  26
TORSDOF 7
ENDMDL
MODEL 5
REMARK VINA RESULT:    -6.824      2.855      5.843
REMARK INTER + INTRA:         -10.529
REMARK INTER:                  -9.391
REMARK INTRA:                  -1.139
REMARK UNBOUND:                -1.113
REMARK  Name = 
REMARK  12 active torsions:
REMARK  status: ('A' for Active; 'I' for Inactive)
REMARK    1  A    between atoms: C_1  and  C_2
REMARK    2  A    between atoms: C_2  and  C_3
REMARK    3  A    between atoms: C_3  and  C_4
REMARK    4  A    between atoms: C_10  and  C_11
REMARK    5  A    between atoms: C_11  and  O_12
REMARK    6  A    between atoms: C_11  and  C_13
REMARK    7  A    between atoms: C_13  and  C_14
REMARK    8  A    between atoms: C_15  and  O_16
REMARK    9  A    between atoms: O_16  and  C_17
REMARK   10  A    between atoms: C_17  and  C_18
REMARK   11  A    between atoms: C_23  and  C_24
REMARK   12  A    between atoms: C_23  and  C_25
REMARK                            x       y       z     vdW  Elec       q    Type
REMARK                         _______ _______ _______ _____ _____    ______ ____
ROOT
ATOM      1  C   UNL     1      25.809   2.793  50.428  0.00  0.00    +0.000 A 
ATOM      2  C   UNL     1      26.260   3.027  49.176  0.00  0.00    +0.000 A 
ATOM      3  C   UNL     1      26.910   4.372  49.181  0.00  0.00    +0.000 A 
ATOM      4  O   UNL     1      27.957   4.620  48.605  0.00  0.00    +0.000 OA
ATOM      5  O   UNL     1      26.140   5.335  49.845  0.00  0.00    +0.000 OA
ATOM      6  C   UNL     1      24.878   5.025  50.441  0.00  0.00    +0.000 A 
ATOM      7  C   UNL     1      23.948   6.049  50.696  0.00  0.00    +0.000 A 
ATOM      8  C   UNL     1      22.661   5.608  51.092  0.00  0.00    +0.000 A 
ATOM      9  C   UNL     1      22.387   4.223  51.360  0.00  0.00    +0.000 A 
ATOM     10  C   UNL     1      23.400   3.256  51.205  0.00  0.00    +0.000 A 
ATOM     11  C   UNL     1      24.643   3.661  50.717  0.00  0.00    +0.000 A 
ATOM     12  O   UNL     1      23.237   1.926  51.493  0.00  0.00    +0.000 OA
ATOM     13  C   UNL     1      21.951   1.430  51.922  0.00  0.00    +0.000 C 
ATOM     14  C   UNL     1      21.534   0.364  50.900  0.00  0.00    +0.000 C 
ATOM     15  C   UNL     1      22.135   0.757  53.292  0.00  0.00    +0.000 C 
ATOM     16  C   UNL     1      20.868   2.474  52.036  0.00  0.00    +0.000 C 
ATOM     17  C   UNL     1      21.068   3.774  51.792  0.00  0.00    +0.000 C 
ENDROOT
BRANCH   1  18
ATOM     18  C   UNL     1      26.809   2.633  51.567  0.00  0.00    +0.000 C 
BRANCH  18  20
ATOM     19  C   UNL     1      26.477   0.184  52.214  0.00  0.00    +0.000 C 
ATOM     20  C   UNL     1      26.387   1.641  52.647  0.00  0.00    +0.000 C 
ENDBRANCH  18  20
ENDBRANCH   1  18
BRANCH   7  21
ATOM     21  C   UNL     1      24.332   7.533  50.647  0.00  0.00    +0.000 C 
BRANCH  21  22
ATOM     22  O   UNL     1      25.679   7.684  51.103  0.00  0.00    +0.000 OA
ATOM     23  H   UNL     1      26.278   7.705  50.341  0.00  0.00    +0.000 HD
ENDBRANCH  21  22
BRANCH  21  24
ATOM     24  C   UNL     1      24.207   8.265  49.295  0.00  0.00    +0.000 C 
ATOM     25  C   UNL     1      25.367   9.170  48.914  0.00  0.00    +0.000 C 
ENDBRANCH  21  24
ENDBRANCH   7  21
BRANCH   8  26
ATOM     26  O   UNL     1      21.632   6.489  51.372  0.00  0.00    +0.000 OA
BRANCH  26  27
ATOM     27  C   UNL     1      20.796   6.832  50.255  0.00  0.00    +0.000 C 
ATOM     28  C   UNL     1      20.614   8.340  50.146  0.00  0.00    +0.000 C 
ENDBRANCH  26  27
ENDBRANCH   8  26
TORSDOF 7
ENDMDL
MODEL 6
REMARK VINA RESULT:    -6.778      1.810      6.240
REMARK INTER + INTRA:         -10.466
REMARK INTER:                  -9.790
REMARK INTRA:                  -0.675
REMARK UNBOUND:                -1.113
REMARK  Name = 
REMARK  12 active torsions:
REMARK  status: ('A' for Active; 'I' for Inactive)
REMARK    1  A    between atoms: C_1  and  C_2
REMARK    2  A    between atoms: C_2  and  C_3
REMARK    3  A    between atoms: C_3  and  C_4
REMARK    4  A    between atoms: C_10  and  C_11
REMARK    5  A    between atoms: C_11  and  O_12
REMARK    6  A    between atoms: C_11  and  C_13
REMARK    7  A    between atoms: C_13  and  C_14
REMARK    8  A    between atoms: C_15  and  O_16
REMARK    9  A    between atoms: O_16  and  C_17
REMARK   10  A    between atoms: C_17  and  C_18
REMARK   11  A    between atoms: C_23  and  C_24
REMARK   12  A    between atoms: C_23  and  C_25
REMARK                            x       y       z     vdW  Elec       q    Type
REMARK                         _______ _______ _______ _____ _____    ______ ____
ROOT
ATOM      1  C   UNL     1      21.930   0.933  52.198  0.00  0.00    +0.000 A 
ATOM      2  C   UNL     1      21.716  -0.389  52.018  0.00  0.00    +0.000 A 
ATOM      3  C   UNL     1      22.237  -1.092  53.229  0.00  0.00    +0.000 A 
ATOM      4  O   UNL     1      21.659  -2.020  53.774  0.00  0.00    +0.000 OA
ATOM      5  O   UNL     1      23.500  -0.628  53.616  0.00  0.00    +0.000 OA
ATOM      6  C   UNL     1      24.182   0.409  52.906  0.00  0.00    +0.000 A 
ATOM      7  C   UNL     1      25.577   0.545  53.026  0.00  0.00    +0.000 A 
ATOM      8  C   UNL     1      26.171   1.464  52.125  0.00  0.00    +0.000 A 
ATOM      9  C   UNL     1      25.378   2.300  51.267  0.00  0.00    +0.000 A 
ATOM     10  C   UNL     1      23.972   2.204  51.284  0.00  0.00    +0.000 A 
ATOM     11  C   UNL     1      23.377   1.233  52.090  0.00  0.00    +0.000 A 
ATOM     12  O   UNL     1      23.142   3.002  50.541  0.00  0.00    +0.000 OA
ATOM     13  C   UNL     1      23.698   3.970  49.625  0.00  0.00    +0.000 C 
ATOM     14  C   UNL     1      23.161   3.609  48.233  0.00  0.00    +0.000 C 
ATOM     15  C   UNL     1      23.163   5.357  50.018  0.00  0.00    +0.000 C 
ATOM     16  C   UNL     1      25.205   4.025  49.588  0.00  0.00    +0.000 C 
ATOM     17  C   UNL     1      25.990   3.264  50.360  0.00  0.00    +0.000 C 
ENDROOT
BRANCH   1  18
ATOM     18  C   UNL     1      21.187   1.668  53.308  0.00  0.00    +0.000 C 
BRANCH  18  20
ATOM     19  C   UNL     1      19.513   2.864  51.794  0.00  0.00    +0.000 C 
ATOM     20  C   UNL     1      20.567   2.996  52.885  0.00  0.00    +0.000 C 
ENDBRANCH  18  20
ENDBRANCH   1  18
BRANCH   7  21
ATOM     21  C   UNL     1      26.378  -0.173  54.118  0.00  0.00    +0.000 C 
BRANCH  21  22
ATOM     22  O   UNL     1      25.473  -0.704  55.091  0.00  0.00    +0.000 OA
ATOM     23  H   UNL     1      24.902   0.007  55.423  0.00  0.00    +0.000 HD
ENDBRANCH  21  22
BRANCH  21  24
ATOM     24  C   UNL     1      27.327  -1.309  53.688  0.00  0.00    +0.000 C 
ATOM     25  C   UNL     1      26.909  -2.101  52.460  0.00  0.00    +0.000 C 
ENDBRANCH  21  24
ENDBRANCH   7  21
BRANCH   8  26
ATOM     26  O   UNL     1      27.533   1.707  52.109  0.00  0.00    +0.000 OA
BRANCH  26  27
ATOM     27  C   UNL     1      28.030   2.489  53.207  0.00  0.00    +0.000 C 
ATOM     28  C   UNL     1      29.248   1.831  53.844  0.00  0.00    +0.000 C 
ENDBRANCH  26  27
ENDBRANCH   8  26
TORSDOF 7
ENDMDL
MODEL 7
REMARK VINA RESULT:    -6.750      1.607      5.421
REMARK INTER + INTRA:         -10.427
REMARK INTER:                  -9.372
REMARK INTRA:                  -1.055
REMARK UNBOUND:                -1.113
REMARK  Name = 
REMARK  12 active torsions:
REMARK  status: ('A' for Active; 'I' for Inactive)
REMARK    1  A    between atoms: C_1  and  C_2
REMARK    2  A    between atoms: C_2  and  C_3
REMARK    3  A    between atoms: C_3  and  C_4
REMARK    4  A    between atoms: C_10  and  C_11
REMARK    5  A    between atoms: C_11  and  O_12
REMARK    6  A    between atoms: C_11  and  C_13
REMARK    7  A    between atoms: C_13  and  C_14
REMARK    8  A    between atoms: C_15  and  O_16
REMARK    9  A    between atoms: O_16  and  C_17
REMARK   10  A    between atoms: C_17  and  C_18
REMARK   11  A    between atoms: C_23  and  C_24
REMARK   12  A    between atoms: C_23  and  C_25
REMARK                            x       y       z     vdW  Elec       q    Type
REMARK                         _______ _______ _______ _____ _____    ______ ____
ROOT
ATOM      1  C   UNL     1      18.888   1.266  50.603  0.00  0.00    +0.000 A 
ATOM      2  C   UNL     1      18.463  -0.016  50.556  0.00  0.00    +0.000 A 
ATOM      3  C   UNL     1      18.233  -0.460  51.964  0.00  0.00    +0.000 A 
ATOM      4  O   UNL     1      17.276  -1.132  52.315  0.00  0.00    +0.000 OA
ATOM      5  O   UNL     1      19.281  -0.094  52.818  0.00  0.00    +0.000 OA
ATOM      6  C   UNL     1      20.426   0.626  52.356  0.00  0.00    +0.000 A 
ATOM      7  C   UNL     1      21.625   0.592  53.090  0.00  0.00    +0.000 A 
ATOM      8  C   UNL     1      22.746   1.164  52.440  0.00  0.00    +0.000 A 
ATOM      9  C   UNL     1      22.619   1.862  51.190  0.00  0.00    +0.000 A 
ATOM     10  C   UNL     1      21.362   1.970  50.562  0.00  0.00    +0.000 A 
ATOM     11  C   UNL     1      20.268   1.324  51.139  0.00  0.00    +0.000 A 
ATOM     12  O   UNL     1      21.145   2.665  49.401  0.00  0.00    +0.000 OA
ATOM     13  C   UNL     1      22.251   3.285  48.712  0.00  0.00    +0.000 C 
ATOM     14  C   UNL     1      22.289   2.666  47.307  0.00  0.00    +0.000 C 
ATOM     15  C   UNL     1      21.947   4.787  48.582  0.00  0.00    +0.000 C 
ATOM     16  C   UNL     1      23.595   3.119  49.376  0.00  0.00    +0.000 C 
ATOM     17  C   UNL     1      23.770   2.473  50.534  0.00  0.00    +0.000 C 
ENDROOT
BRANCH   1  18
ATOM     18  C   UNL     1      17.942   2.351  51.103  0.00  0.00    +0.000 C 
BRANCH  18  20
ATOM     19  C   UNL     1      18.439   4.695  50.218  0.00  0.00    +0.000 C 
ATOM     20  C   UNL     1      18.603   3.702  51.360  0.00  0.00    +0.000 C 
ENDBRANCH  18  20
ENDBRANCH   1  18
BRANCH   7  21
ATOM     21  C   UNL     1      21.687   0.066  54.529  0.00  0.00    +0.000 C 
BRANCH  21  22
ATOM     22  O   UNL     1      20.446   0.345  55.185  0.00  0.00    +0.000 OA
ATOM     23  H   UNL     1      20.494   0.045  56.107  0.00  0.00    +0.000 HD
ENDBRANCH  21  22
BRANCH  21  24
ATOM     24  C   UNL     1      22.004  -1.430  54.737  0.00  0.00    +0.000 C 
ATOM     25  C   UNL     1      23.231  -1.743  55.578  0.00  0.00    +0.000 C 
ENDBRANCH  21  24
ENDBRANCH   7  21
BRANCH   8  26
ATOM     26  O   UNL     1      23.999   1.203  53.025  0.00  0.00    +0.000 OA
BRANCH  26  27
ATOM     27  C   UNL     1      24.813   0.039  52.810  0.00  0.00    +0.000 C 
ATOM     28  C   UNL     1      26.218   0.426  52.364  0.00  0.00    +0.000 C 
ENDBRANCH  26  27
ENDBRANCH   8  26
TORSDOF 7
ENDMDL
MODEL 8
REMARK VINA RESULT:    -6.440      1.780      5.317
REMARK INTER + INTRA:         -10.000
REMARK INTER:                  -9.618
REMARK INTRA:                  -0.382
REMARK UNBOUND:                -1.113
REMARK  Name = 
REMARK  12 active torsions:
REMARK  status: ('A' for Active; 'I' for Inactive)
REMARK    1  A    between atoms: C_1  and  C_2
REMARK    2  A    between atoms: C_2  and  C_3
REMARK    3  A    between atoms: C_3  and  C_4
REMARK    4  A    between atoms: C_10  and  C_11
REMARK    5  A    between atoms: C_11  and  O_12
REMARK    6  A    between atoms: C_11  and  C_13
REMARK    7  A    between atoms: C_13  and  C_14
REMARK    8  A    between atoms: C_15  and  O_16
REMARK    9  A    between atoms: O_16  and  C_17
REMARK   10  A    between atoms: C_17  and  C_18
REMARK   11  A    between atoms: C_23  and  C_24
REMARK   12  A    between atoms: C_23  and  C_25
REMARK                            x       y       z     vdW  Elec       q    Type
REMARK                         _______ _______ _______ _____ _____    ______ ____
ROOT
ATOM      1  C   UNL     1      21.349   2.993  51.550  0.00  0.00    +0.000 A 
ATOM      2  C   UNL     1      21.241   4.284  51.932  0.00  0.00    +0.000 A 
ATOM      3  C   UNL     1      21.956   5.111  50.913  0.00  0.00    +0.000 A 
ATOM      4  O   UNL     1      21.532   6.171  50.483  0.00  0.00    +0.000 OA
ATOM      5  O   UNL     1      23.206   4.578  50.573  0.00  0.00    +0.000 OA
ATOM      6  C   UNL     1      23.705   3.372  51.157  0.00  0.00    +0.000 A 
ATOM      7  C   UNL     1      25.086   3.103  51.148  0.00  0.00    +0.000 A 
ATOM      8  C   UNL     1      25.488   1.993  51.931  0.00  0.00    +0.000 A 
ATOM      9  C   UNL     1      24.530   1.122  52.554  0.00  0.00    +0.000 A 
ATOM     10  C   UNL     1      23.150   1.375  52.422  0.00  0.00    +0.000 A 
ATOM     11  C   UNL     1      22.741   2.522  51.741  0.00  0.00    +0.000 A 
ATOM     12  O   UNL     1      22.172   0.564  52.936  0.00  0.00    +0.000 OA
ATOM     13  C   UNL     1      22.530  -0.593  53.722  0.00  0.00    +0.000 C 
ATOM     14  C   UNL     1      21.877  -0.403  55.098  0.00  0.00    +0.000 C 
ATOM     15  C   UNL     1      21.915  -1.832  53.049  0.00  0.00    +0.000 C 
ATOM     16  C   UNL     1      24.012  -0.820  53.891  0.00  0.00    +0.000 C 
ATOM     17  C   UNL     1      24.945  -0.036  53.338  0.00  0.00    +0.000 C 
ENDROOT
BRANCH   1  18
ATOM     18  C   UNL     1      20.670   2.531  50.266  0.00  0.00    +0.000 C 
BRANCH  18  20
ATOM     19  C   UNL     1      19.223   0.615  51.137  0.00  0.00    +0.000 C 
ATOM     20  C   UNL     1      20.357   1.038  50.214  0.00  0.00    +0.000 C 
ENDBRANCH  18  20
ENDBRANCH   1  18
BRANCH   7  21
ATOM     21  C   UNL     1      26.067   3.894  50.275  0.00  0.00    +0.000 C 
BRANCH  21  22
ATOM     22  O   UNL     1      26.946   2.981  49.612  0.00  0.00    +0.000 OA
ATOM     23  H   UNL     1      27.145   3.312  48.722  0.00  0.00    +0.000 HD
ENDBRANCH  21  22
BRANCH  21  24
ATOM     24  C   UNL     1      25.480   4.842  49.208  0.00  0.00    +0.000 C 
ATOM     25  C   UNL     1      26.379   5.983  48.760  0.00  0.00    +0.000 C 
ENDBRANCH  21  24
ENDBRANCH   7  21
BRANCH   8  26
ATOM     26  O   UNL     1      26.811   1.602  52.033  0.00  0.00    +0.000 OA
BRANCH  26  27
ATOM     27  C   UNL     1      27.562   2.244  53.076  0.00  0.00    +0.000 C 
ATOM     28  C   UNL     1      28.680   1.342  53.584  0.00  0.00    +0.000 C 
ENDBRANCH  26  27
ENDBRANCH   8  26
TORSDOF 7
ENDMDL
