MODEL 1
REMARK VINA RESULT:    -8.324      0.000      0.000
REMARK INTER + INTRA:         -10.835
REMARK INTER:                 -10.270
REMARK INTRA:                  -0.565
REMARK UNBOUND:                -0.565
REMARK  Name = 
REMARK  8 active torsions:
REMARK  status: ('A' for Active; 'I' for Inactive)
REMARK    1  A    between atoms: C_1  and  O_2
REMARK    2  A    between atoms: O_2  and  C_3
REMARK    3  A    between atoms: C_8  and  C_9
REMARK    4  A    between atoms: C_20  and  N_21
REMARK    5  A    between atoms: N_21  and  C_22
REMARK    6  A    between atoms: C_22  and  C_23
REMARK    7  A    between atoms: C_22  and  C_24
REMARK    8  A    between atoms: C_22  and  C_25
REMARK                            x       y       z     vdW  Elec       q    Type
REMARK                         _______ _______ _______ _____ _____    ______ ____
ROOT
ATOM      1  C   UNL     1      23.841   5.530  50.365  0.00  0.00    +0.000 C 
ATOM      2  O   UNL     1      22.720   6.008  50.188  0.00  0.00    +0.000 OA
ATOM      3  N   UNL     1      23.998   4.268  50.955  0.00  0.00    +0.000 N 
ATOM      4  C   UNL     1      25.281   3.599  51.178  0.00  0.00    +0.000 C 
ATOM      5  C   UNL     1      25.212   2.059  51.136  0.00  0.00    +0.000 C 
ATOM      6  N   UNL     1      24.097   1.485  51.916  0.00  0.00    +0.000 N 
ATOM      7  C   UNL     1      24.412   0.674  52.999  0.00  0.00    +0.000 A 
ATOM      8  N   UNL     1      25.668   0.844  53.499  0.00  0.00    +0.000 NA
ATOM      9  C   UNL     1      26.087   0.096  54.539  0.00  0.00    +0.000 A 
ATOM     10  C   UNL     1      25.283  -0.793  55.205  0.00  0.00    +0.000 A 
ATOM     11  C   UNL     1      23.993  -0.958  54.731  0.00  0.00    +0.000 A 
ATOM     12  C   UNL     1      23.557  -0.339  53.549  0.00  0.00    +0.000 A 
ATOM     13  C   UNL     1      22.803   2.144  51.708  0.00  0.00    +0.000 C 
ATOM     14  C   UNL     1      22.878   3.695  51.706  0.00  0.00    +0.000 C 
ENDROOT
BRANCH   1  20
ATOM     15  C   UNL     1      28.605   8.675  48.223  0.00  0.00    +0.000 A 
ATOM     16  C   UNL     1      28.326   9.434  49.359  0.00  0.00    +0.000 A 
ATOM     17  C   UNL     1      27.318   9.056  50.255  0.00  0.00    +0.000 A 
ATOM     18  C   UNL     1      26.579   7.906  49.954  0.00  0.00    +0.000 A 
ATOM     19  N   UNL     1      25.556   7.294  50.640  0.00  0.00    +0.000 N 
ATOM     20  C   UNL     1      25.016   6.254  49.907  0.00  0.00    +0.000 A 
ATOM     21  C   UNL     1      25.861   6.084  48.822  0.00  0.00    +0.000 A 
ATOM     22  C   UNL     1      26.814   7.143  48.811  0.00  0.00    +0.000 A 
ATOM     23  C   UNL     1      27.838   7.538  47.932  0.00  0.00    +0.000 A 
ATOM     24  H   UNL     1      25.249   7.562  51.536  0.00  0.00    +0.000 HD
BRANCH  15  26
ATOM     25  C   UNL     1      30.767   9.536  47.846  0.00  0.00    +0.000 C 
ATOM     26  O   UNL     1      29.575   8.978  47.302  0.00  0.00    +0.000 OA
ENDBRANCH  15  26
ENDBRANCH   1  20
BRANCH  12  27
ATOM     27  N   UNL     1      22.328  -0.731  52.986  0.00  0.00    +0.000 N 
ATOM     28  H   UNL     1      22.363  -1.239  52.143  0.00  0.00    +0.000 HD
BRANCH  27  29
ATOM     29  C   UNL     1      20.972  -0.444  53.555  0.00  0.00    +0.000 C 
ATOM     30  C   UNL     1      20.850   0.594  54.685  0.00  0.00    +0.000 C 
ATOM     31  C   UNL     1      20.075   0.020  52.392  0.00  0.00    +0.000 C 
ATOM     32  C   UNL     1      20.415  -1.768  54.115  0.00  0.00    +0.000 C 
ENDBRANCH  27  29
ENDBRANCH  12  27
TORSDOF 4
ENDMDL
MODEL 2
REMARK VINA RESULT:    -8.022      4.740      7.077
REMARK INTER + INTRA:         -10.463
REMARK INTER:                 -10.329
REMARK INTRA:                  -0.134
REMARK UNBOUND:                -0.565
REMARK  Name = 
REMARK  8 active torsions:
REMARK  status: ('A' for Active; 'I' for Inactive)
REMARK    1  A    between atoms: C_1  and  O_2
REMARK    2  A    between atoms: O_2  and  C_3
REMARK    3  A    between atoms: C_8  and  C_9
REMARK    4  A    between atoms: C_20  and  N_21
REMARK    5  A    between atoms: N_21  and  C_22
REMARK    6  A    between atoms: C_22  and  C_23
REMARK    7  A    between atoms: C_22  and  C_24
REMARK    8  A    between atoms: C_22  and  C_25
REMARK                            x       y       z     vdW  Elec       q    Type
REMARK                         _______ _______ _______ _____ _____    ______ ____
ROOT
ATOM      1  C   UNL     1      23.871   2.828  52.095  0.00  0.00    +0.000 C 
ATOM      2  O   UNL     1      23.960   4.025  51.823  0.00  0.00    +0.000 OA
ATOM      3  N   UNL     1      22.654   2.147  51.944  0.00  0.00    +0.000 N 
ATOM      4  C   UNL     1      22.452   0.720  52.207  0.00  0.00    +0.000 C 
ATOM      5  C   UNL     1      21.360   0.062  51.341  0.00  0.00    +0.000 C 
ATOM      6  N   UNL     1      20.105   0.837  51.261  0.00  0.00    +0.000 N 
ATOM      7  C   UNL     1      18.953   0.264  51.786  0.00  0.00    +0.000 A 
ATOM      8  N   UNL     1      19.167  -0.727  52.697  0.00  0.00    +0.000 NA
ATOM      9  C   UNL     1      18.121  -1.366  53.257  0.00  0.00    +0.000 A 
ATOM     10  C   UNL     1      16.813  -1.020  53.031  0.00  0.00    +0.000 A 
ATOM     11  C   UNL     1      16.576   0.005  52.131  0.00  0.00    +0.000 A 
ATOM     12  C   UNL     1      17.614   0.589  51.387  0.00  0.00    +0.000 A 
ATOM     13  C   UNL     1      20.287   2.270  51.001  0.00  0.00    +0.000 C 
ATOM     14  C   UNL     1      21.417   2.924  51.842  0.00  0.00    +0.000 C 
ENDROOT
BRANCH   1  20
ATOM     15  C   UNL     1      28.895  -0.278  53.608  0.00  0.00    +0.000 A 
ATOM     16  C   UNL     1      29.280   0.993  54.031  0.00  0.00    +0.000 A 
ATOM     17  C   UNL     1      28.400   2.081  53.956  0.00  0.00    +0.000 A 
ATOM     18  C   UNL     1      27.130   1.852  53.413  0.00  0.00    +0.000 A 
ATOM     19  N   UNL     1      26.068   2.708  53.228  0.00  0.00    +0.000 N 
ATOM     20  C   UNL     1      25.051   2.093  52.523  0.00  0.00    +0.000 A 
ATOM     21  C   UNL     1      25.404   0.755  52.445  0.00  0.00    +0.000 A 
ATOM     22  C   UNL     1      26.727   0.599  52.953  0.00  0.00    +0.000 A 
ATOM     23  C   UNL     1      27.625  -0.478  53.048  0.00  0.00    +0.000 A 
ATOM     24  H   UNL     1      26.038   3.636  53.555  0.00  0.00    +0.000 HD
BRANCH  15  26
ATOM     25  C   UNL     1      29.065  -2.602  53.251  0.00  0.00    +0.000 C 
ATOM     26  O   UNL     1      29.697  -1.389  53.650  0.00  0.00    +0.000 OA
ENDBRANCH  15  26
ENDBRANCH   1  20
BRANCH  12  27
ATOM     27  N   UNL     1      17.290   1.447  50.321  0.00  0.00    +0.000 N 
ATOM     28  H   UNL     1      17.497   1.131  49.411  0.00  0.00    +0.000 HD
BRANCH  27  29
ATOM     29  C   UNL     1      16.657   2.800  50.445  0.00  0.00    +0.000 C 
ATOM     30  C   UNL     1      16.811   3.568  51.771  0.00  0.00    +0.000 C 
ATOM     31  C   UNL     1      17.234   3.683  49.323  0.00  0.00    +0.000 C 
ATOM     32  C   UNL     1      15.143   2.626  50.213  0.00  0.00    +0.000 C 
ENDBRANCH  27  29
ENDBRANCH  12  27
TORSDOF 4
ENDMDL
MODEL 3
REMARK VINA RESULT:    -7.945      1.627      2.342
REMARK INTER + INTRA:         -10.368
REMARK INTER:                 -10.115
REMARK INTRA:                  -0.253
REMARK UNBOUND:                -0.565
REMARK  Name = 
REMARK  8 active torsions:
REMARK  status: ('A' for Active; 'I' for Inactive)
REMARK    1  A    between atoms: C_1  and  O_2
REMARK    2  A    between atoms: O_2  and  C_3
REMARK    3  A    between atoms: C_8  and  C_9
REMARK    4  A    between atoms: C_20  and  N_21
REMARK    5  A    between atoms: N_21  and  C_22
REMARK    6  A    between atoms: C_22  and  C_23
REMARK    7  A    between atoms: C_22  and  C_24
REMARK    8  A    between atoms: C_22  and  C_25
REMARK                            x       y       z     vdW  Elec       q    Type
REMARK                         _______ _______ _______ _____ _____    ______ ____
ROOT
ATOM      1  C   UNL     1      24.064   6.855  50.638  0.00  0.00    +0.000 C 
ATOM      2  O   UNL     1      23.321   7.822  50.805  0.00  0.00    +0.000 OA
ATOM      3  N   UNL     1      23.647   5.561  50.982  0.00  0.00    +0.000 N 
ATOM      4  C   UNL     1      24.441   4.345  50.792  0.00  0.00    +0.000 C 
ATOM      5  C   UNL     1      23.605   3.073  50.543  0.00  0.00    +0.000 C 
ATOM      6  N   UNL     1      22.470   2.906  51.474  0.00  0.00    +0.000 N 
ATOM      7  C   UNL     1      22.481   1.804  52.320  0.00  0.00    +0.000 A 
ATOM      8  N   UNL     1      23.709   1.249  52.525  0.00  0.00    +0.000 NA
ATOM      9  C   UNL     1      23.834   0.163  53.314  0.00  0.00    +0.000 A 
ATOM     10  C   UNL     1      22.793  -0.388  54.016  0.00  0.00    +0.000 A 
ATOM     11  C   UNL     1      21.543   0.181  53.844  0.00  0.00    +0.000 A 
ATOM     12  C   UNL     1      21.318   1.199  52.904  0.00  0.00    +0.000 A 
ATOM     13  C   UNL     1      21.665   4.115  51.679  0.00  0.00    +0.000 C 
ATOM     14  C   UNL     1      22.505   5.404  51.887  0.00  0.00    +0.000 C 
ENDROOT
BRANCH   1  20
ATOM     15  C   UNL     1      29.398   7.709  47.808  0.00  0.00    +0.000 A 
ATOM     16  C   UNL     1      29.374   8.858  48.598  0.00  0.00    +0.000 A 
ATOM     17  C   UNL     1      28.339   9.090  49.514  0.00  0.00    +0.000 A 
ATOM     18  C   UNL     1      27.312   8.141  49.585  0.00  0.00    +0.000 A 
ATOM     19  N   UNL     1      26.193   8.093  50.384  0.00  0.00    +0.000 N 
ATOM     20  C   UNL     1      25.369   7.043  50.024  0.00  0.00    +0.000 A 
ATOM     21  C   UNL     1      26.094   6.295  49.109  0.00  0.00    +0.000 A 
ATOM     22  C   UNL     1      27.292   6.998  48.788  0.00  0.00    +0.000 A 
ATOM     23  C   UNL     1      28.347   6.784  47.884  0.00  0.00    +0.000 A 
ATOM     24  H   UNL     1      26.004   8.723  51.116  0.00  0.00    +0.000 HD
BRANCH  15  26
ATOM     25  C   UNL     1      31.240   6.343  47.263  0.00  0.00    +0.000 C 
ATOM     26  O   UNL     1      30.374   7.413  46.893  0.00  0.00    +0.000 OA
ENDBRANCH  15  26
ENDBRANCH   1  20
BRANCH  12  27
ATOM     27  N   UNL     1      19.995   1.568  52.599  0.00  0.00    +0.000 N 
ATOM     28  H   UNL     1      19.560   2.216  53.200  0.00  0.00    +0.000 HD
BRANCH  27  29
ATOM     29  C   UNL     1      19.188   1.062  51.442  0.00  0.00    +0.000 C 
ATOM     30  C   UNL     1      19.896   0.831  50.094  0.00  0.00    +0.000 C 
ATOM     31  C   UNL     1      18.553  -0.274  51.873  0.00  0.00    +0.000 C 
ATOM     32  C   UNL     1      18.065   2.084  51.178  0.00  0.00    +0.000 C 
ENDBRANCH  27  29
ENDBRANCH  12  27
TORSDOF 4
ENDMDL
MODEL 4
REMARK VINA RESULT:    -7.886      4.987      7.406
REMARK INTER + INTRA:         -10.296
REMARK INTER:                  -9.954
REMARK INTRA:                  -0.342
REMARK UNBOUND:                -0.565
REMARK  Name = 
REMARK  8 active torsions:
REMARK  status: ('A' for Active; 'I' for Inactive)
REMARK    1  A    between atoms: C_1  and  O_2
REMARK    2  A    between atoms: O_2  and  C_3
REMARK    3  A    between atoms: C_8  and  C_9
REMARK    4  A    between atoms: C_20  and  N_21
REMARK    5  A    between atoms: N_21  and  C_22
REMARK    6  A    between atoms: C_22  and  C_23
REMARK    7  A    between atoms: C_22  and  C_24
REMARK    8  A    between atoms: C_22  and  C_25
REMARK                            x       y       z     vdW  Elec       q    Type
REMARK                         _______ _______ _______ _____ _____    ______ ____
ROOT
ATOM      1  C   UNL     1      23.030   3.212  52.362  0.00  0.00    +0.000 C 
ATOM      2  O   UNL     1      23.077   4.440  52.283  0.00  0.00    +0.000 OA
ATOM      3  N   UNL     1      21.833   2.523  52.118  0.00  0.00    +0.000 N 
ATOM      4  C   UNL     1      21.681   1.067  52.154  0.00  0.00    +0.000 C 
ATOM      5  C   UNL     1      20.595   0.517  51.206  0.00  0.00    +0.000 C 
ATOM      6  N   UNL     1      19.316   1.253  51.265  0.00  0.00    +0.000 N 
ATOM      7  C   UNL     1      18.191   0.565  51.705  0.00  0.00    +0.000 A 
ATOM      8  N   UNL     1      18.452  -0.550  52.444  0.00  0.00    +0.000 NA
ATOM      9  C   UNL     1      17.435  -1.306  52.907  0.00  0.00    +0.000 A 
ATOM     10  C   UNL     1      16.114  -0.972  52.753  0.00  0.00    +0.000 A 
ATOM     11  C   UNL     1      15.830   0.174  52.031  0.00  0.00    +0.000 A 
ATOM     12  C   UNL     1      16.836   0.903  51.378  0.00  0.00    +0.000 A 
ATOM     13  C   UNL     1      19.448   2.713  51.234  0.00  0.00    +0.000 C 
ATOM     14  C   UNL     1      20.570   3.265  52.155  0.00  0.00    +0.000 C 
ENDROOT
BRANCH   1  20
ATOM     15  C   UNL     1      27.966  -0.051  53.832  0.00  0.00    +0.000 A 
ATOM     16  C   UNL     1      27.523  -0.792  52.738  0.00  0.00    +0.000 A 
ATOM     17  C   UNL     1      26.413  -0.385  51.986  0.00  0.00    +0.000 A 
ATOM     18  C   UNL     1      25.746   0.777  52.390  0.00  0.00    +0.000 A 
ATOM     19  N   UNL     1      24.654   1.417  51.850  0.00  0.00    +0.000 N 
ATOM     20  C   UNL     1      24.239   2.460  52.655  0.00  0.00    +0.000 A 
ATOM     21  C   UNL     1      25.223   2.602  53.621  0.00  0.00    +0.000 A 
ATOM     22  C   UNL     1      26.146   1.523  53.498  0.00  0.00    +0.000 A 
ATOM     23  C   UNL     1      27.269   1.099  54.231  0.00  0.00    +0.000 A 
ATOM     24  H   UNL     1      24.226   1.164  51.000  0.00  0.00    +0.000 HD
BRANCH  15  26
ATOM     25  C   UNL     1      30.107  -1.033  53.927  0.00  0.00    +0.000 C 
ATOM     26  O   UNL     1      29.042  -0.383  54.615  0.00  0.00    +0.000 OA
ENDBRANCH  15  26
ENDBRANCH   1  20
BRANCH  12  27
ATOM     27  N   UNL     1      16.467   1.908  50.465  0.00  0.00    +0.000 N 
ATOM     28  H   UNL     1      16.663   1.745  49.514  0.00  0.00    +0.000 HD
BRANCH  27  29
ATOM     29  C   UNL     1      15.803   3.207  50.811  0.00  0.00    +0.000 C 
ATOM     30  C   UNL     1      15.985   3.772  52.232  0.00  0.00    +0.000 C 
ATOM     31  C   UNL     1      16.316   4.265  49.816  0.00  0.00    +0.000 C 
ATOM     32  C   UNL     1      14.287   3.021  50.604  0.00  0.00    +0.000 C 
ENDBRANCH  27  29
ENDBRANCH  12  27
TORSDOF 4
ENDMDL
MODEL 5
REMARK VINA RESULT:    -7.468      5.606     10.888
REMARK INTER + INTRA:          -9.779
REMARK INTER:                  -9.649
REMARK INTRA:                  -0.130
REMARK UNBOUND:                -0.565
REMARK  Name = 
REMARK  8 active torsions:
REMARK  status: ('A' for Active; 'I' for Inactive)
REMARK    1  A    between atoms: C_1  and  O_2
REMARK    2  A    between atoms: O_2  and  C_3
REMARK    3  A    between atoms: C_8  and  C_9
REMARK    4  A    between atoms: C_20  and  N_21
REMARK    5  A    between atoms: N_21  and  C_22
REMARK    6  A    between atoms: C_22  and  C_23
REMARK    7  A    between atoms: C_22  and  C_24
REMARK    8  A    between atoms: C_22  and  C_25
REMARK                            x       y       z     vdW  Elec       q    Type
REMARK                         _______ _______ _______ _____ _____    ______ ____
ROOT
ATOM      1  C   UNL     1      17.998  -1.469  53.282  0.00  0.00    +0.000 C 
ATOM      2  O   UNL     1      18.012  -2.455  54.020  0.00  0.00    +0.000 OA
ATOM      3  N   UNL     1      19.173  -0.749  53.024  0.00  0.00    +0.000 N 
ATOM      4  C   UNL     1      19.269   0.414  52.138  0.00  0.00    +0.000 C 
ATOM      5  C   UNL     1      20.640   0.580  51.452  0.00  0.00    +0.000 C 
ATOM      6  N   UNL     1      21.792   0.428  52.364  0.00  0.00    +0.000 N 
ATOM      7  C   UNL     1      22.617   1.530  52.556  0.00  0.00    +0.000 A 
ATOM      8  N   UNL     1      22.050   2.732  52.256  0.00  0.00    +0.000 NA
ATOM      9  C   UNL     1      22.766   3.867  52.387  0.00  0.00    +0.000 A 
ATOM     10  C   UNL     1      24.037   3.905  52.901  0.00  0.00    +0.000 A 
ATOM     11  C   UNL     1      24.618   2.696  53.241  0.00  0.00    +0.000 A 
ATOM     12  C   UNL     1      23.991   1.471  52.963  0.00  0.00    +0.000 A 
ATOM     13  C   UNL     1      21.713  -0.729  53.261  0.00  0.00    +0.000 C 
ATOM     14  C   UNL     1      20.320  -0.923  53.919  0.00  0.00    +0.000 C 
ENDROOT
BRANCH   1  20
ATOM     15  C   UNL     1      12.738  -0.106  50.516  0.00  0.00    +0.000 A 
ATOM     16  C   UNL     1      12.455   0.382  51.791  0.00  0.00    +0.000 A 
ATOM     17  C   UNL     1      13.420   0.361  52.807  0.00  0.00    +0.000 A 
ATOM     18  C   UNL     1      14.668  -0.196  52.505  0.00  0.00    +0.000 A 
ATOM     19  N   UNL     1      15.796  -0.339  53.281  0.00  0.00    +0.000 N 
ATOM     20  C   UNL     1      16.762  -1.076  52.624  0.00  0.00    +0.000 A 
ATOM     21  C   UNL     1      16.302  -1.221  51.324  0.00  0.00    +0.000 A 
ATOM     22  C   UNL     1      14.971  -0.719  51.249  0.00  0.00    +0.000 A 
ATOM     23  C   UNL     1      13.989  -0.678  50.244  0.00  0.00    +0.000 A 
ATOM     24  H   UNL     1      15.899   0.034  54.186  0.00  0.00    +0.000 HD
BRANCH  15  26
ATOM     25  C   UNL     1      12.431  -0.333  48.190  0.00  0.00    +0.000 C 
ATOM     26  O   UNL     1      11.849  -0.119  49.472  0.00  0.00    +0.000 OA
ENDBRANCH  15  26
ENDBRANCH   1  20
BRANCH  12  27
ATOM     27  N   UNL     1      24.726   0.280  53.105  0.00  0.00    +0.000 N 
ATOM     28  H   UNL     1      24.231  -0.521  53.392  0.00  0.00    +0.000 HD
BRANCH  27  29
ATOM     29  C   UNL     1      26.196   0.122  52.858  0.00  0.00    +0.000 C 
ATOM     30  C   UNL     1      26.852   0.961  51.746  0.00  0.00    +0.000 C 
ATOM     31  C   UNL     1      26.921   0.445  54.178  0.00  0.00    +0.000 C 
ATOM     32  C   UNL     1      26.450  -1.355  52.500  0.00  0.00    +0.000 C 
ENDBRANCH  27  29
ENDBRANCH  12  27
TORSDOF 4
ENDMDL
MODEL 6
REMARK VINA RESULT:    -7.460      4.194     10.987
REMARK INTER + INTRA:          -9.770
REMARK INTER:                  -9.928
REMARK INTRA:                   0.158
REMARK UNBOUND:                -0.565
REMARK  Name = 
REMARK  8 active torsions:
REMARK  status: ('A' for Active; 'I' for Inactive)
REMARK    1  A    between atoms: C_1  and  O_2
REMARK    2  A    between atoms: O_2  and  C_3
REMARK    3  A    between atoms: C_8  and  C_9
REMARK    4  A    between atoms: C_20  and  N_21
REMARK    5  A    between atoms: N_21  and  C_22
REMARK    6  A    between atoms: C_22  and  C_23
REMARK    7  A    between atoms: C_22  and  C_24
REMARK    8  A    between atoms: C_22  and  C_25
REMARK                            x       y       z     vdW  Elec       q    Type
REMARK                         _______ _______ _______ _____ _____    ______ ____
ROOT
ATOM      1  C   UNL     1      20.652  -0.535  53.714  0.00  0.00    +0.000 C 
ATOM      2  O   UNL     1      21.382  -1.107  54.524  0.00  0.00    +0.000 OA
ATOM      3  N   UNL     1      21.102   0.596  53.017  0.00  0.00    +0.000 N 
ATOM      4  C   UNL     1      20.326   1.326  52.012  0.00  0.00    +0.000 C 
ATOM      5  C   UNL     1      21.178   2.000  50.917  0.00  0.00    +0.000 C 
ATOM      6  N   UNL     1      22.339   2.750  51.435  0.00  0.00    +0.000 N 
ATOM      7  C   UNL     1      22.371   4.124  51.226  0.00  0.00    +0.000 A 
ATOM      8  N   UNL     1      21.159   4.695  50.974  0.00  0.00    +0.000 NA
ATOM      9  C   UNL     1      21.074   6.020  50.737  0.00  0.00    +0.000 A 
ATOM     10  C   UNL     1      22.144   6.874  50.820  0.00  0.00    +0.000 A 
ATOM     11  C   UNL     1      23.378   6.316  51.105  0.00  0.00    +0.000 A 
ATOM     12  C   UNL     1      23.559   4.927  51.188  0.00  0.00    +0.000 A 
ATOM     13  C   UNL     1      23.128   2.037  52.446  0.00  0.00    +0.000 C 
ATOM     14  C   UNL     1      22.270   1.320  53.524  0.00  0.00    +0.000 C 
ENDROOT
BRANCH   1  20
ATOM     15  C   UNL     1      15.187  -2.807  52.251  0.00  0.00    +0.000 A 
ATOM     16  C   UNL     1      15.681  -3.874  53.000  0.00  0.00    +0.000 A 
ATOM     17  C   UNL     1      16.928  -3.799  53.636  0.00  0.00    +0.000 A 
ATOM     18  C   UNL     1      17.673  -2.626  53.466  0.00  0.00    +0.000 A 
ATOM     19  N   UNL     1      18.902  -2.266  53.971  0.00  0.00    +0.000 N 
ATOM     20  C   UNL     1      19.329  -1.067  53.432  0.00  0.00    +0.000 A 
ATOM     21  C   UNL     1      18.245  -0.566  52.728  0.00  0.00    +0.000 A 
ATOM     22  C   UNL     1      17.219  -1.555  52.698  0.00  0.00    +0.000 A 
ATOM     23  C   UNL     1      15.961  -1.651  52.079  0.00  0.00    +0.000 A 
ATOM     24  H   UNL     1      19.409  -2.793  54.629  0.00  0.00    +0.000 HD
BRANCH  15  26
ATOM     25  C   UNL     1      14.061  -2.742  50.181  0.00  0.00    +0.000 C 
ATOM     26  O   UNL     1      13.979  -2.805  51.602  0.00  0.00    +0.000 OA
ENDBRANCH  15  26
ENDBRANCH   1  20
BRANCH  12  27
ATOM     27  N   UNL     1      24.867   4.410  51.236  0.00  0.00    +0.000 N 
ATOM     28  H   UNL     1      25.304   4.377  52.118  0.00  0.00    +0.000 HD
BRANCH  27  29
ATOM     29  C   UNL     1      25.655   3.906  50.064  0.00  0.00    +0.000 C 
ATOM     30  C   UNL     1      26.569   4.890  49.312  0.00  0.00    +0.000 C 
ATOM     31  C   UNL     1      26.529   2.742  50.565  0.00  0.00    +0.000 C 
ATOM     32  C   UNL     1      24.649   3.364  49.029  0.00  0.00    +0.000 C 
ENDBRANCH  27  29
ENDBRANCH  12  27
TORSDOF 4
ENDMDL
MODEL 7
REMARK VINA RESULT:    -7.364      2.689      5.217
REMARK INTER + INTRA:          -9.652
REMARK INTER:                  -9.008
REMARK INTRA:                  -0.644
REMARK UNBOUND:                -0.565
REMARK  Name = 
REMARK  8 active torsions:
REMARK  status: ('A' for Active; 'I' for Inactive)
REMARK    1  A    between atoms: C_1  and  O_2
REMARK    2  A    between atoms: O_2  and  C_3
REMARK    3  A    between atoms: C_8  and  C_9
REMARK    4  A    between atoms: C_20  and  N_21
REMARK    5  A    between atoms: N_21  and  C_22
REMARK    6  A    between atoms: C_22  and  C_23
REMARK    7  A    between atoms: C_22  and  C_24
REMARK    8  A    between atoms: C_22  and  C_25
REMARK                            x       y       z     vdW  Elec       q    Type
REMARK                         _______ _______ _______ _____ _____    ______ ____
ROOT
ATOM      1  C   UNL     1      28.988   6.341  48.401  0.00  0.00    +0.000 C 
ATOM      2  O   UNL     1      29.925   5.553  48.269  0.00  0.00    +0.000 OA
ATOM      3  N   UNL     1      27.716   5.886  48.780  0.00  0.00    +0.000 N 
ATOM      4  C   UNL     1      26.548   6.743  48.997  0.00  0.00    +0.000 C 
ATOM      5  C   UNL     1      25.551   6.206  50.044  0.00  0.00    +0.000 C 
ATOM      6  N   UNL     1      25.220   4.776  49.882  0.00  0.00    +0.000 N 
ATOM      7  C   UNL     1      23.904   4.443  49.586  0.00  0.00    +0.000 A 
ATOM      8  N   UNL     1      23.164   5.451  49.044  0.00  0.00    +0.000 NA
ATOM      9  C   UNL     1      21.868   5.245  48.735  0.00  0.00    +0.000 A 
ATOM     10  C   UNL     1      21.245   4.029  48.853  0.00  0.00    +0.000 A 
ATOM     11  C   UNL     1      21.990   2.985  49.373  0.00  0.00    +0.000 A 
ATOM     12  C   UNL     1      23.286   3.181  49.875  0.00  0.00    +0.000 A 
ATOM     13  C   UNL     1      26.377   3.901  49.661  0.00  0.00    +0.000 C 
ATOM     14  C   UNL     1      27.405   4.462  48.640  0.00  0.00    +0.000 C 
ENDROOT
BRANCH   1  20
ATOM     15  C   UNL     1      29.637  12.364  47.712  0.00  0.00    +0.000 A 
ATOM     16  C   UNL     1      30.349  12.195  48.899  0.00  0.00    +0.000 A 
ATOM     17  C   UNL     1      30.551  10.923  49.449  0.00  0.00    +0.000 A 
ATOM     18  C   UNL     1      29.986   9.829  48.782  0.00  0.00    +0.000 A 
ATOM     19  N   UNL     1      30.027   8.485  49.071  0.00  0.00    +0.000 N 
ATOM     20  C   UNL     1      29.210   7.767  48.220  0.00  0.00    +0.000 A 
ATOM     21  C   UNL     1      28.807   8.664  47.243  0.00  0.00    +0.000 A 
ATOM     22  C   UNL     1      29.244   9.969  47.610  0.00  0.00    +0.000 A 
ATOM     23  C   UNL     1      29.063  11.256  47.073  0.00  0.00    +0.000 A 
ATOM     24  H   UNL     1      30.569   8.087  49.791  0.00  0.00    +0.000 HD
BRANCH  15  26
ATOM     25  C   UNL     1      28.214  14.236  47.545  0.00  0.00    +0.000 C 
ATOM     26  O   UNL     1      29.399  13.574  47.112  0.00  0.00    +0.000 OA
ENDBRANCH  15  26
ENDBRANCH   1  20
BRANCH  12  27
ATOM     27  N   UNL     1      23.898   2.148  50.609  0.00  0.00    +0.000 N 
ATOM     28  H   UNL     1      24.330   1.427  50.095  0.00  0.00    +0.000 HD
BRANCH  27  29
ATOM     29  C   UNL     1      23.951   2.046  52.103  0.00  0.00    +0.000 C 
ATOM     30  C   UNL     1      23.994   3.345  52.929  0.00  0.00    +0.000 C 
ATOM     31  C   UNL     1      22.715   1.244  52.553  0.00  0.00    +0.000 C 
ATOM     32  C   UNL     1      25.220   1.252  52.469  0.00  0.00    +0.000 C 
ENDBRANCH  27  29
ENDBRANCH  12  27
TORSDOF 4
ENDMDL
MODEL 8
REMARK VINA RESULT:    -7.275      2.447      4.017
REMARK INTER + INTRA:          -9.542
REMARK INTER:                  -9.776
REMARK INTRA:                   0.234
REMARK UNBOUND:                -0.565
REMARK  Name = 
REMARK  8 active torsions:
REMARK  status: ('A' for Active; 'I' for Inactive)
REMARK    1  A    between atoms: C_1  and  O_2
REMARK    2  A    between atoms: O_2  and  C_3
REMARK    3  A    between atoms: C_8  and  C_9
REMARK    4  A    between atoms: C_20  and  N_21
REMARK    5  A    between atoms: N_21  and  C_22
REMARK    6  A    between atoms: C_22  and  C_23
REMARK    7  A    between atoms: C_22  and  C_24
REMARK    8  A    between atoms: C_22  and  C_25
REMARK                            x       y       z     vdW  Elec       q    Type
REMARK                         _______ _______ _______ _____ _____    ______ ____
ROOT
ATOM      1  C   UNL     1      26.143   3.670  49.837  0.00  0.00    +0.000 C 
ATOM      2  O   UNL     1      26.846   2.673  50.003  0.00  0.00    +0.000 OA
ATOM      3  N   UNL     1      24.822   3.702  50.308  0.00  0.00    +0.000 N 
ATOM      4  C   UNL     1      23.916   4.847  50.191  0.00  0.00    +0.000 C 
ATOM      5  C   UNL     1      22.878   4.955  51.326  0.00  0.00    +0.000 C 
ATOM      6  N   UNL     1      22.195   3.684  51.641  0.00  0.00    +0.000 N 
ATOM      7  C   UNL     1      20.823   3.616  51.434  0.00  0.00    +0.000 A 
ATOM      8  N   UNL     1      20.326   4.540  50.565  0.00  0.00    +0.000 NA
ATOM      9  C   UNL     1      19.004   4.578  50.303  0.00  0.00    +0.000 A 
ATOM     10  C   UNL     1      18.107   3.668  50.801  0.00  0.00    +0.000 A 
ATOM     11  C   UNL     1      18.599   2.701  51.662  0.00  0.00    +0.000 A 
ATOM     12  C   UNL     1      19.929   2.718  52.108  0.00  0.00    +0.000 A 
ATOM     13  C   UNL     1      23.085   2.524  51.759  0.00  0.00    +0.000 C 
ATOM     14  C   UNL     1      24.160   2.438  50.641  0.00  0.00    +0.000 C 
ENDROOT
BRANCH   1  20
ATOM     15  C   UNL     1      28.437   8.770  47.408  0.00  0.00    +0.000 A 
ATOM     16  C   UNL     1      29.615   8.037  47.548  0.00  0.00    +0.000 A 
ATOM     17  C   UNL     1      29.598   6.717  48.018  0.00  0.00    +0.000 A 
ATOM     18  C   UNL     1      28.358   6.170  48.372  0.00  0.00    +0.000 A 
ATOM     19  N   UNL     1      28.033   4.919  48.842  0.00  0.00    +0.000 N 
ATOM     20  C   UNL     1      26.700   4.851  49.198  0.00  0.00    +0.000 A 
ATOM     21  C   UNL     1      26.132   6.031  48.745  0.00  0.00    +0.000 A 
ATOM     22  C   UNL     1      27.167   6.888  48.272  0.00  0.00    +0.000 A 
ATOM     23  C   UNL     1      27.210   8.207  47.788  0.00  0.00    +0.000 A 
ATOM     24  H   UNL     1      28.669   4.170  48.915  0.00  0.00    +0.000 HD
BRANCH  15  26
ATOM     25  C   UNL     1      29.419  10.913  47.414  0.00  0.00    +0.000 C 
ATOM     26  O   UNL     1      28.373  10.062  46.955  0.00  0.00    +0.000 OA
ENDBRANCH  15  26
ENDBRANCH   1  20
BRANCH  12  27
ATOM     27  N   UNL     1      20.307   1.866  53.162  0.00  0.00    +0.000 N 
ATOM     28  H   UNL     1      20.534   2.290  54.022  0.00  0.00    +0.000 HD
BRANCH  27  29
ATOM     29  C   UNL     1      20.394   0.372  53.094  0.00  0.00    +0.000 C 
ATOM     30  C   UNL     1      19.101  -0.450  53.241  0.00  0.00    +0.000 C 
ATOM     31  C   UNL     1      21.028   0.010  51.737  0.00  0.00    +0.000 C 
ATOM     32  C   UNL     1      21.337  -0.089  54.223  0.00  0.00    +0.000 C 
ENDBRANCH  27  29
ENDBRANCH  12  27
TORSDOF 4
ENDMDL
MODEL 9
REMARK VINA RESULT:    -7.063      2.181      3.676
REMARK INTER + INTRA:          -9.280
REMARK INTER:                  -8.971
REMARK INTRA:                  -0.309
REMARK UNBOUND:                -0.565
REMARK  Name = 
REMARK  8 active torsions:
REMARK  status: ('A' for Active; 'I' for Inactive)
REMARK    1  A    between atoms: C_1  and  O_2
REMARK    2  A    between atoms: O_2  and  C_3
REMARK    3  A    between atoms: C_8  and  C_9
REMARK    4  A    between atoms: C_20  and  N_21
REMARK    5  A    between atoms: N_21  and  C_22
REMARK    6  A    between atoms: C_22  and  C_23
REMARK    7  A    between atoms: C_22  and  C_24
REMARK    8  A    between atoms: C_22  and  C_25
REMARK                            x       y       z     vdW  Elec       q    Type
REMARK                         _______ _______ _______ _____ _____    ______ ____
ROOT
ATOM      1  C   UNL     1      25.989   4.537  49.410  0.00  0.00    +0.000 C 
ATOM      2  O   UNL     1      26.966   3.835  49.149  0.00  0.00    +0.000 OA
ATOM      3  N   UNL     1      24.842   3.981  49.995  0.00  0.00    +0.000 N 
ATOM      4  C   UNL     1      23.643   4.733  50.373  0.00  0.00    +0.000 C 
ATOM      5  C   UNL     1      22.877   4.146  51.575  0.00  0.00    +0.000 C 
ATOM      6  N   UNL     1      22.666   2.686  51.501  0.00  0.00    +0.000 N 
ATOM      7  C   UNL     1      21.359   2.222  51.424  0.00  0.00    +0.000 A 
ATOM      8  N   UNL     1      20.449   3.135  50.982  0.00  0.00    +0.000 NA
ATOM      9  C   UNL     1      19.147   2.799  50.886  0.00  0.00    +0.000 A 
ATOM     10  C   UNL     1      18.672   1.536  51.127  0.00  0.00    +0.000 A 
ATOM     11  C   UNL     1      19.586   0.585  51.548  0.00  0.00    +0.000 A 
ATOM     12  C   UNL     1      20.919   0.919  51.834  0.00  0.00    +0.000 A 
ATOM     13  C   UNL     1      23.855   1.915  51.120  0.00  0.00    +0.000 C 
ATOM     14  C   UNL     1      24.652   2.529  49.937  0.00  0.00    +0.000 C 
ENDROOT
BRANCH   1  20
ATOM     15  C   UNL     1      25.977  10.574  48.560  0.00  0.00    +0.000 A 
ATOM     16  C   UNL     1      27.132  10.457  49.332  0.00  0.00    +0.000 A 
ATOM     17  C   UNL     1      27.613   9.204  49.734  0.00  0.00    +0.000 A 
ATOM     18  C   UNL     1      26.875   8.075  49.360  0.00  0.00    +0.000 A 
ATOM     19  N   UNL     1      27.104   6.739  49.593  0.00  0.00    +0.000 N 
ATOM     20  C   UNL     1      26.040   5.969  49.163  0.00  0.00    +0.000 A 
ATOM     21  C   UNL     1      25.216   6.831  48.457  0.00  0.00    +0.000 A 
ATOM     22  C   UNL     1      25.700   8.162  48.615  0.00  0.00    +0.000 A 
ATOM     23  C   UNL     1      25.243   9.430  48.216  0.00  0.00    +0.000 A 
ATOM     24  H   UNL     1      27.919   6.379  50.012  0.00  0.00    +0.000 HD
BRANCH  15  26
ATOM     25  C   UNL     1      26.396  12.702  47.636  0.00  0.00    +0.000 C 
ATOM     26  O   UNL     1      25.445  11.762  48.128  0.00  0.00    +0.000 OA
ENDBRANCH  15  26
ENDBRANCH   1  20
BRANCH  12  27
ATOM     27  N   UNL     1      21.734  -0.024  52.486  0.00  0.00    +0.000 N 
ATOM     28  H   UNL     1      22.490  -0.393  51.975  0.00  0.00    +0.000 HD
BRANCH  27  29
ATOM     29  C   UNL     1      21.555  -0.517  53.890  0.00  0.00    +0.000 C 
ATOM     30  C   UNL     1      20.703  -1.779  54.125  0.00  0.00    +0.000 C 
ATOM     31  C   UNL     1      22.958  -0.784  54.467  0.00  0.00    +0.000 C 
ATOM     32  C   UNL     1      20.891   0.616  54.698  0.00  0.00    +0.000 C 
ENDBRANCH  27  29
ENDBRANCH  12  27
TORSDOF 4
ENDMDL
