MODEL 1
REMARK VINA RESULT:    -9.299      0.000      0.000
REMARK INTER + INTRA:         -13.347
REMARK INTER:                 -12.289
REMARK INTRA:                  -1.058
REMARK UNBOUND:                -1.058
REMARK  Name = 
REMARK  7 active torsions:
REMARK  status: ('A' for Active; 'I' for Inactive)
REMARK    1  A    between atoms: C_1  and  N_2
REMARK    2  A    between atoms: C_4  and  C_5
REMARK    3  A    between atoms: C_6  and  C_7
REMARK    4  A    between atoms: N_9  and  C_10
REMARK    5  A    between atoms: C_10  and  C_11
REMARK    6  A    between atoms: C_11  and  C_12
REMARK    7  A    between atoms: C_12  and  N_13
REMARK                            x       y       z     vdW  Elec       q    Type
REMARK                         _______ _______ _______ _____ _____    ______ ____
ROOT
ATOM      1  C   UNL     1      23.549   0.084  53.542  0.00  0.00    +0.000 C 
ATOM      2  C   UNL     1      22.796   0.983  52.895  0.00  0.00    +0.000 C 
ATOM      3  C   UNL     1      21.454   0.971  53.510  0.00  0.00    +0.000 C 
ATOM      4  O   UNL     1      20.503   1.663  53.205  0.00  0.00    +0.000 OA
ATOM      5  N   UNL     1      21.473   0.034  54.484  0.00  0.00    +0.000 N 
ATOM      6  C   UNL     1      22.680  -0.571  54.544  0.00  0.00    +0.000 C 
ATOM      7  O   UNL     1      22.977  -1.494  55.280  0.00  0.00    +0.000 OA
ATOM      8  H   UNL     1      20.711  -0.178  55.071  0.00  0.00    +0.000 HD
ENDROOT
BRANCH   1  12
ATOM      9  C   UNL     1      27.573  -2.561  52.525  0.00  0.00    +0.000 C 
ATOM     10  N   UNL     1      26.725  -1.449  52.907  0.00  0.00    +0.000 N 
ATOM     11  C   UNL     1      25.360  -1.492  52.963  0.00  0.00    +0.000 A 
ATOM     12  C   UNL     1      24.911  -0.239  53.337  0.00  0.00    +0.000 A 
ATOM     13  C   UNL     1      26.057   0.590  53.524  0.00  0.00    +0.000 A 
ATOM     14  C   UNL     1      26.251   1.936  53.905  0.00  0.00    +0.000 A 
ATOM     15  C   UNL     1      27.551   2.446  54.010  0.00  0.00    +0.000 A 
ATOM     16  C   UNL     1      28.653   1.641  53.747  0.00  0.00    +0.000 A 
ATOM     17  C   UNL     1      28.491   0.305  53.365  0.00  0.00    +0.000 A 
ATOM     18  C   UNL     1      27.184  -0.199  53.259  0.00  0.00    +0.000 A 
ENDBRANCH   1  12
BRANCH   2  19
ATOM     19  C   UNL     1      23.162   1.817  51.809  0.00  0.00    +0.000 A 
ATOM     20  C   UNL     1      24.073   2.841  51.906  0.00  0.00    +0.000 A 
ATOM     21  N   UNL     1      24.147   3.460  50.682  0.00  0.00    +0.000 N 
ATOM     22  C   UNL     1      23.258   2.867  49.803  0.00  0.00    +0.000 A 
ATOM     23  C   UNL     1      22.925   3.170  48.474  0.00  0.00    +0.000 A 
ATOM     24  C   UNL     1      22.112   2.270  47.777  0.00  0.00    +0.000 A 
ATOM     25  C   UNL     1      21.581   1.148  48.402  0.00  0.00    +0.000 A 
ATOM     26  C   UNL     1      21.822   0.914  49.759  0.00  0.00    +0.000 A 
ATOM     27  C   UNL     1      22.688   1.774  50.470  0.00  0.00    +0.000 A 
BRANCH  21  28
ATOM     28  C   UNL     1      25.153   4.454  50.340  0.00  0.00    +0.000 C 
BRANCH  28  29
ATOM     29  C   UNL     1      26.399   3.907  49.643  0.00  0.00    +0.000 C 
BRANCH  29  30
ATOM     30  C   UNL     1      27.141   4.891  48.738  0.00  0.00    +0.000 C 
BRANCH  30  31
ATOM     31  N   UNL     1      28.540   5.065  49.116  0.00  0.00    +0.000 N 
ATOM     32  H   UNL     1      28.592   5.456  50.056  0.00  0.00    +0.000 HD
ATOM     33  H   UNL     1      28.994   5.699  48.458  0.00  0.00    +0.000 HD
ATOM     34  H   UNL     1      29.012   4.161  49.098  0.00  0.00    +0.000 HD
ENDBRANCH  30  31
ENDBRANCH  29  30
ENDBRANCH  28  29
ENDBRANCH  21  28
ENDBRANCH   2  19
TORSDOF 6
ENDMDL
MODEL 2
REMARK VINA RESULT:    -8.935      0.941      2.007
REMARK INTER + INTRA:         -12.865
REMARK INTER:                 -12.766
REMARK INTRA:                  -0.100
REMARK UNBOUND:                -1.058
REMARK  Name = 
REMARK  7 active torsions:
REMARK  status: ('A' for Active; 'I' for Inactive)
REMARK    1  A    between atoms: C_1  and  N_2
REMARK    2  A    between atoms: C_4  and  C_5
REMARK    3  A    between atoms: C_6  and  C_7
REMARK    4  A    between atoms: N_9  and  C_10
REMARK    5  A    between atoms: C_10  and  C_11
REMARK    6  A    between atoms: C_11  and  C_12
REMARK    7  A    between atoms: C_12  and  N_13
REMARK                            x       y       z     vdW  Elec       q    Type
REMARK                         _______ _______ _______ _____ _____    ______ ____
ROOT
ATOM      1  C   UNL     1      24.292   0.263  53.716  0.00  0.00    +0.000 C 
ATOM      2  C   UNL     1      23.390   0.843  52.913  0.00  0.00    +0.000 C 
ATOM      3  C   UNL     1      22.050   0.407  53.353  0.00  0.00    +0.000 C 
ATOM      4  O   UNL     1      20.981   0.736  52.879  0.00  0.00    +0.000 OA
ATOM      5  N   UNL     1      22.231  -0.441  54.390  0.00  0.00    +0.000 N 
ATOM      6  C   UNL     1      23.547  -0.612  54.647  0.00  0.00    +0.000 C 
ATOM      7  O   UNL     1      24.016  -1.363  55.482  0.00  0.00    +0.000 OA
ATOM      8  H   UNL     1      21.502  -0.875  54.890  0.00  0.00    +0.000 HD
ENDROOT
BRANCH   1  12
ATOM      9  C   UNL     1      28.734   2.361  54.006  0.00  0.00    +0.000 C 
ATOM     10  N   UNL     1      27.700   1.364  53.810  0.00  0.00    +0.000 N 
ATOM     11  C   UNL     1      26.359   1.593  53.945  0.00  0.00    +0.000 A 
ATOM     12  C   UNL     1      25.700   0.402  53.709  0.00  0.00    +0.000 A 
ATOM     13  C   UNL     1      26.687  -0.584  53.408  0.00  0.00    +0.000 A 
ATOM     14  C   UNL     1      26.644  -1.957  53.080  0.00  0.00    +0.000 A 
ATOM     15  C   UNL     1      27.836  -2.645  52.821  0.00  0.00    +0.000 A 
ATOM     16  C   UNL     1      29.061  -1.991  52.881  0.00  0.00    +0.000 A 
ATOM     17  C   UNL     1      29.134  -0.632  53.206  0.00  0.00    +0.000 A 
ATOM     18  C   UNL     1      27.934   0.051  53.468  0.00  0.00    +0.000 A 
ENDBRANCH   1  12
BRANCH   2  19
ATOM     19  C   UNL     1      23.619   1.719  51.823  0.00  0.00    +0.000 A 
ATOM     20  C   UNL     1      24.562   2.718  51.830  0.00  0.00    +0.000 A 
ATOM     21  N   UNL     1      24.477   3.390  50.635  0.00  0.00    +0.000 N 
ATOM     22  C   UNL     1      23.454   2.858  49.870  0.00  0.00    +0.000 A 
ATOM     23  C   UNL     1      22.942   3.230  48.618  0.00  0.00    +0.000 A 
ATOM     24  C   UNL     1      22.012   2.381  48.008  0.00  0.00    +0.000 A 
ATOM     25  C   UNL     1      21.545   1.242  48.656  0.00  0.00    +0.000 A 
ATOM     26  C   UNL     1      21.973   0.941  49.951  0.00  0.00    +0.000 A 
ATOM     27  C   UNL     1      22.955   1.748  50.565  0.00  0.00    +0.000 A 
BRANCH  21  28
ATOM     28  C   UNL     1      25.450   4.378  50.194  0.00  0.00    +0.000 C 
BRANCH  28  29
ATOM     29  C   UNL     1      26.651   3.814  49.434  0.00  0.00    +0.000 C 
BRANCH  29  30
ATOM     30  C   UNL     1      27.501   4.837  48.680  0.00  0.00    +0.000 C 
BRANCH  30  31
ATOM     31  N   UNL     1      27.403   6.180  49.241  0.00  0.00    +0.000 N 
ATOM     32  H   UNL     1      28.213   6.361  49.834  0.00  0.00    +0.000 HD
ATOM     33  H   UNL     1      26.551   6.256  49.796  0.00  0.00    +0.000 HD
ATOM     34  H   UNL     1      27.377   6.864  48.484  0.00  0.00    +0.000 HD
ENDBRANCH  30  31
ENDBRANCH  29  30
ENDBRANCH  28  29
ENDBRANCH  21  28
ENDBRANCH   2  19
TORSDOF 6
ENDMDL
MODEL 3
REMARK VINA RESULT:    -8.584      2.275      5.901
REMARK INTER + INTRA:         -12.402
REMARK INTER:                 -11.245
REMARK INTRA:                  -1.157
REMARK UNBOUND:                -1.058
REMARK  Name = 
REMARK  7 active torsions:
REMARK  status: ('A' for Active; 'I' for Inactive)
REMARK    1  A    between atoms: C_1  and  N_2
REMARK    2  A    between atoms: C_4  and  C_5
REMARK    3  A    between atoms: C_6  and  C_7
REMARK    4  A    between atoms: N_9  and  C_10
REMARK    5  A    between atoms: C_10  and  C_11
REMARK    6  A    between atoms: C_11  and  C_12
REMARK    7  A    between atoms: C_12  and  N_13
REMARK                            x       y       z     vdW  Elec       q    Type
REMARK                         _______ _______ _______ _____ _____    ______ ____
ROOT
ATOM      1  C   UNL     1      24.497   2.266  52.437  0.00  0.00    +0.000 C 
ATOM      2  C   UNL     1      23.510   1.360  52.422  0.00  0.00    +0.000 C 
ATOM      3  C   UNL     1      23.938   0.216  53.251  0.00  0.00    +0.000 C 
ATOM      4  O   UNL     1      23.303  -0.792  53.490  0.00  0.00    +0.000 OA
ATOM      5  N   UNL     1      25.182   0.495  53.699  0.00  0.00    +0.000 N 
ATOM      6  C   UNL     1      25.607   1.688  53.226  0.00  0.00    +0.000 C 
ATOM      7  O   UNL     1      26.707   2.174  53.409  0.00  0.00    +0.000 OA
ATOM      8  H   UNL     1      25.707  -0.092  54.290  0.00  0.00    +0.000 HD
ENDROOT
BRANCH   1  12
ATOM      9  C   UNL     1      23.293   6.902  51.308  0.00  0.00    +0.000 C 
ATOM     10  N   UNL     1      23.969   5.620  51.292  0.00  0.00    +0.000 N 
ATOM     11  C   UNL     1      23.664   4.567  52.109  0.00  0.00    +0.000 A 
ATOM     12  C   UNL     1      24.539   3.537  51.818  0.00  0.00    +0.000 A 
ATOM     13  C   UNL     1      25.400   3.987  50.773  0.00  0.00    +0.000 A 
ATOM     14  C   UNL     1      26.469   3.408  50.055  0.00  0.00    +0.000 A 
ATOM     15  C   UNL     1      27.109   4.143  49.050  0.00  0.00    +0.000 A 
ATOM     16  C   UNL     1      26.700   5.438  48.748  0.00  0.00    +0.000 A 
ATOM     17  C   UNL     1      25.647   6.038  49.444  0.00  0.00    +0.000 A 
ATOM     18  C   UNL     1      25.011   5.295  50.454  0.00  0.00    +0.000 A 
ENDBRANCH   1  12
BRANCH   2  19
ATOM     19  C   UNL     1      22.266   1.429  51.747  0.00  0.00    +0.000 A 
ATOM     20  C   UNL     1      21.057   1.168  52.347  0.00  0.00    +0.000 A 
ATOM     21  N   UNL     1      20.077   1.285  51.391  0.00  0.00    +0.000 N 
ATOM     22  C   UNL     1      20.649   1.581  50.167  0.00  0.00    +0.000 A 
ATOM     23  C   UNL     1      20.083   1.738  48.892  0.00  0.00    +0.000 A 
ATOM     24  C   UNL     1      20.901   2.218  47.864  0.00  0.00    +0.000 A 
ATOM     25  C   UNL     1      22.255   2.457  48.073  0.00  0.00    +0.000 A 
ATOM     26  C   UNL     1      22.836   2.187  49.315  0.00  0.00    +0.000 A 
ATOM     27  C   UNL     1      22.021   1.759  50.386  0.00  0.00    +0.000 A 
BRANCH  21  28
ATOM     28  C   UNL     1      18.653   1.284  51.692  0.00  0.00    +0.000 C 
BRANCH  28  29
ATOM     29  C   UNL     1      17.975  -0.086  51.627  0.00  0.00    +0.000 C 
BRANCH  29  30
ATOM     30  C   UNL     1      18.333  -1.059  52.750  0.00  0.00    +0.000 C 
BRANCH  30  31
ATOM     31  N   UNL     1      17.281  -1.179  53.754  0.00  0.00    +0.000 N 
ATOM     32  H   UNL     1      17.701  -1.238  54.681  0.00  0.00    +0.000 HD
ATOM     33  H   UNL     1      16.733  -2.021  53.574  0.00  0.00    +0.000 HD
ATOM     34  H   UNL     1      16.673  -0.361  53.708  0.00  0.00    +0.000 HD
ENDBRANCH  30  31
ENDBRANCH  29  30
ENDBRANCH  28  29
ENDBRANCH  21  28
ENDBRANCH   2  19
TORSDOF 6
ENDMDL
MODEL 4
REMARK VINA RESULT:    -8.461      2.345      5.860
REMARK INTER + INTRA:         -12.239
REMARK INTER:                 -11.455
REMARK INTRA:                  -0.784
REMARK UNBOUND:                -1.058
REMARK  Name = 
REMARK  7 active torsions:
REMARK  status: ('A' for Active; 'I' for Inactive)
REMARK    1  A    between atoms: C_1  and  N_2
REMARK    2  A    between atoms: C_4  and  C_5
REMARK    3  A    between atoms: C_6  and  C_7
REMARK    4  A    between atoms: N_9  and  C_10
REMARK    5  A    between atoms: C_10  and  C_11
REMARK    6  A    between atoms: C_11  and  C_12
REMARK    7  A    between atoms: C_12  and  N_13
REMARK                            x       y       z     vdW  Elec       q    Type
REMARK                         _______ _______ _______ _____ _____    ______ ____
ROOT
ATOM      1  C   UNL     1      20.425  -0.057  52.960  0.00  0.00    +0.000 C 
ATOM      2  C   UNL     1      21.650  -0.016  53.501  0.00  0.00    +0.000 C 
ATOM      3  C   UNL     1      21.744  -1.114  54.483  0.00  0.00    +0.000 C 
ATOM      4  O   UNL     1      22.708  -1.407  55.163  0.00  0.00    +0.000 OA
ATOM      5  N   UNL     1      20.546  -1.740  54.493  0.00  0.00    +0.000 N 
ATOM      6  C   UNL     1      19.686  -1.146  53.636  0.00  0.00    +0.000 C 
ATOM      7  O   UNL     1      18.519  -1.450  53.475  0.00  0.00    +0.000 OA
ATOM      8  H   UNL     1      20.330  -2.524  55.048  0.00  0.00    +0.000 HD
ENDROOT
BRANCH   1  12
ATOM      9  C   UNL     1      17.249   2.861  50.589  0.00  0.00    +0.000 C 
ATOM     10  N   UNL     1      18.423   2.060  50.874  0.00  0.00    +0.000 N 
ATOM     11  C   UNL     1      18.645   1.390  52.044  0.00  0.00    +0.000 A 
ATOM     12  C   UNL     1      19.876   0.769  51.950  0.00  0.00    +0.000 A 
ATOM     13  C   UNL     1      20.413   1.069  50.662  0.00  0.00    +0.000 A 
ATOM     14  C   UNL     1      21.604   0.730  49.984  0.00  0.00    +0.000 A 
ATOM     15  C   UNL     1      21.816   1.195  48.680  0.00  0.00    +0.000 A 
ATOM     16  C   UNL     1      20.865   1.987  48.046  0.00  0.00    +0.000 A 
ATOM     17  C   UNL     1      19.678   2.341  48.694  0.00  0.00    +0.000 A 
ATOM     18  C   UNL     1      19.473   1.873  50.003  0.00  0.00    +0.000 A 
ENDBRANCH   1  12
BRANCH   2  19
ATOM     19  C   UNL     1      22.701   0.893  53.226  0.00  0.00    +0.000 A 
ATOM     20  C   UNL     1      22.541   2.257  53.190  0.00  0.00    +0.000 A 
ATOM     21  N   UNL     1      23.750   2.817  52.852  0.00  0.00    +0.000 N 
ATOM     22  C   UNL     1      24.682   1.819  52.630  0.00  0.00    +0.000 A 
ATOM     23  C   UNL     1      26.021   1.876  52.213  0.00  0.00    +0.000 A 
ATOM     24  C   UNL     1      26.773   0.698  52.251  0.00  0.00    +0.000 A 
ATOM     25  C   UNL     1      26.194  -0.514  52.613  0.00  0.00    +0.000 A 
ATOM     26  C   UNL     1      24.832  -0.584  52.915  0.00  0.00    +0.000 A 
ATOM     27  C   UNL     1      24.064   0.601  52.943  0.00  0.00    +0.000 A 
BRANCH  21  28
ATOM     28  C   UNL     1      24.024   4.245  52.916  0.00  0.00    +0.000 C 
BRANCH  28  29
ATOM     29  C   UNL     1      23.162   5.114  52.000  0.00  0.00    +0.000 C 
BRANCH  29  30
ATOM     30  C   UNL     1      23.923   6.068  51.079  0.00  0.00    +0.000 C 
BRANCH  30  31
ATOM     31  N   UNL     1      24.523   7.189  51.794  0.00  0.00    +0.000 N 
ATOM     32  H   UNL     1      25.138   7.705  51.164  0.00  0.00    +0.000 HD
ATOM     33  H   UNL     1      25.063   6.839  52.585  0.00  0.00    +0.000 HD
ATOM     34  H   UNL     1      23.787   7.810  52.133  0.00  0.00    +0.000 HD
ENDBRANCH  30  31
ENDBRANCH  29  30
ENDBRANCH  28  29
ENDBRANCH  21  28
ENDBRANCH   2  19
TORSDOF 6
ENDMDL
MODEL 5
REMARK VINA RESULT:    -8.459      3.263      6.723
REMARK INTER + INTRA:         -12.236
REMARK INTER:                 -11.124
REMARK INTRA:                  -1.112
REMARK UNBOUND:                -1.058
REMARK  Name = 
REMARK  7 active torsions:
REMARK  status: ('A' for Active; 'I' for Inactive)
REMARK    1  A    between atoms: C_1  and  N_2
REMARK    2  A    between atoms: C_4  and  C_5
REMARK    3  A    between atoms: C_6  and  C_7
REMARK    4  A    between atoms: N_9  and  C_10
REMARK    5  A    between atoms: C_10  and  C_11
REMARK    6  A    between atoms: C_11  and  C_12
REMARK    7  A    between atoms: C_12  and  N_13
REMARK                            x       y       z     vdW  Elec       q    Type
REMARK                         _______ _______ _______ _____ _____    ______ ____
ROOT
ATOM      1  C   UNL     1      19.480   0.130  52.554  0.00  0.00    +0.000 C 
ATOM      2  C   UNL     1      20.809   0.052  52.700  0.00  0.00    +0.000 C 
ATOM      3  C   UNL     1      21.096  -1.085  53.597  0.00  0.00    +0.000 C 
ATOM      4  O   UNL     1      22.189  -1.480  53.952  0.00  0.00    +0.000 OA
ATOM      5  N   UNL     1      19.906  -1.611  53.962  0.00  0.00    +0.000 N 
ATOM      6  C   UNL     1      18.885  -0.919  53.410  0.00  0.00    +0.000 C 
ATOM      7  O   UNL     1      17.701  -1.121  53.606  0.00  0.00    +0.000 OA
ATOM      8  H   UNL     1      19.798  -2.394  54.549  0.00  0.00    +0.000 HD
ENDROOT
BRANCH   1  12
ATOM      9  C   UNL     1      17.675   4.374  50.836  0.00  0.00    +0.000 C 
ATOM     10  N   UNL     1      17.896   2.953  51.017  0.00  0.00    +0.000 N 
ATOM     11  C   UNL     1      18.782   2.408  51.904  0.00  0.00    +0.000 A 
ATOM     12  C   UNL     1      18.730   1.034  51.765  0.00  0.00    +0.000 A 
ATOM     13  C   UNL     1      17.763   0.740  50.757  0.00  0.00    +0.000 A 
ATOM     14  C   UNL     1      17.265  -0.450  50.183  0.00  0.00    +0.000 A 
ATOM     15  C   UNL     1      16.275  -0.382  49.195  0.00  0.00    +0.000 A 
ATOM     16  C   UNL     1      15.775   0.846  48.775  0.00  0.00    +0.000 A 
ATOM     17  C   UNL     1      16.251   2.040  49.324  0.00  0.00    +0.000 A 
ATOM     18  C   UNL     1      17.247   1.964  50.313  0.00  0.00    +0.000 A 
ENDBRANCH   1  12
BRANCH   2  19
ATOM     19  C   UNL     1      21.806   0.882  52.130  0.00  0.00    +0.000 A 
ATOM     20  C   UNL     1      22.802   1.489  52.857  0.00  0.00    +0.000 A 
ATOM     21  N   UNL     1      23.555   2.247  51.993  0.00  0.00    +0.000 N 
ATOM     22  C   UNL     1      23.027   2.166  50.717  0.00  0.00    +0.000 A 
ATOM     23  C   UNL     1      23.397   2.795  49.518  0.00  0.00    +0.000 A 
ATOM     24  C   UNL     1      22.780   2.373  48.335  0.00  0.00    +0.000 A 
ATOM     25  C   UNL     1      21.772   1.415  48.352  0.00  0.00    +0.000 A 
ATOM     26  C   UNL     1      21.327   0.878  49.563  0.00  0.00    +0.000 A 
ATOM     27  C   UNL     1      21.974   1.242  50.765  0.00  0.00    +0.000 A 
BRANCH  21  28
ATOM     28  C   UNL     1      24.817   2.872  52.358  0.00  0.00    +0.000 C 
BRANCH  28  29
ATOM     29  C   UNL     1      25.444   2.362  53.657  0.00  0.00    +0.000 C 
BRANCH  29  30
ATOM     30  C   UNL     1      26.889   1.875  53.553  0.00  0.00    +0.000 C 
BRANCH  30  31
ATOM     31  N   UNL     1      27.849   2.825  54.106  0.00  0.00    +0.000 N 
ATOM     32  H   UNL     1      28.725   2.343  54.310  0.00  0.00    +0.000 HD
ATOM     33  H   UNL     1      27.474   3.227  54.965  0.00  0.00    +0.000 HD
ATOM     34  H   UNL     1      28.020   3.569  53.429  0.00  0.00    +0.000 HD
ENDBRANCH  30  31
ENDBRANCH  29  30
ENDBRANCH  28  29
ENDBRANCH  21  28
ENDBRANCH   2  19
TORSDOF 6
ENDMDL
MODEL 6
REMARK VINA RESULT:    -8.251      2.388      5.690
REMARK INTER + INTRA:         -11.962
REMARK INTER:                 -11.008
REMARK INTRA:                  -0.954
REMARK UNBOUND:                -1.058
REMARK  Name = 
REMARK  7 active torsions:
REMARK  status: ('A' for Active; 'I' for Inactive)
REMARK    1  A    between atoms: C_1  and  N_2
REMARK    2  A    between atoms: C_4  and  C_5
REMARK    3  A    between atoms: C_6  and  C_7
REMARK    4  A    between atoms: N_9  and  C_10
REMARK    5  A    between atoms: C_10  and  C_11
REMARK    6  A    between atoms: C_11  and  C_12
REMARK    7  A    between atoms: C_12  and  N_13
REMARK                            x       y       z     vdW  Elec       q    Type
REMARK                         _______ _______ _______ _____ _____    ______ ____
ROOT
ATOM      1  C   UNL     1      23.477   1.199  52.100  0.00  0.00    +0.000 C 
ATOM      2  C   UNL     1      24.379   2.171  52.286  0.00  0.00    +0.000 C 
ATOM      3  C   UNL     1      25.365   1.685  53.272  0.00  0.00    +0.000 C 
ATOM      4  O   UNL     1      26.343   2.279  53.683  0.00  0.00    +0.000 OA
ATOM      5  N   UNL     1      24.977   0.445  53.642  0.00  0.00    +0.000 N 
ATOM      6  C   UNL     1      23.833   0.092  53.015  0.00  0.00    +0.000 C 
ATOM      7  O   UNL     1      23.213  -0.939  53.194  0.00  0.00    +0.000 OA
ATOM      8  H   UNL     1      25.462  -0.124  54.282  0.00  0.00    +0.000 HD
ENDROOT
BRANCH   1  12
ATOM      9  C   UNL     1      20.746   1.929  48.071  0.00  0.00    +0.000 C 
ATOM     10  N   UNL     1      21.128   1.545  49.416  0.00  0.00    +0.000 N 
ATOM     11  C   UNL     1      22.383   1.684  49.940  0.00  0.00    +0.000 A 
ATOM     12  C   UNL     1      22.363   1.182  51.228  0.00  0.00    +0.000 A 
ATOM     13  C   UNL     1      21.035   0.733  51.493  0.00  0.00    +0.000 A 
ATOM     14  C   UNL     1      20.395   0.144  52.606  0.00  0.00    +0.000 A 
ATOM     15  C   UNL     1      19.032  -0.170  52.536  0.00  0.00    +0.000 A 
ATOM     16  C   UNL     1      18.301   0.094  51.383  0.00  0.00    +0.000 A 
ATOM     17  C   UNL     1      18.909   0.673  50.265  0.00  0.00    +0.000 A 
ATOM     18  C   UNL     1      20.278   0.983  50.341  0.00  0.00    +0.000 A 
ENDBRANCH   1  12
BRANCH   2  19
ATOM     19  C   UNL     1      24.427   3.453  51.683  0.00  0.00    +0.000 A 
ATOM     20  C   UNL     1      23.558   4.472  51.987  0.00  0.00    +0.000 A 
ATOM     21  N   UNL     1      23.867   5.545  51.186  0.00  0.00    +0.000 N 
ATOM     22  C   UNL     1      24.907   5.211  50.336  0.00  0.00    +0.000 A 
ATOM     23  C   UNL     1      25.534   5.932  49.309  0.00  0.00    +0.000 A 
ATOM     24  C   UNL     1      26.691   5.392  48.736  0.00  0.00    +0.000 A 
ATOM     25  C   UNL     1      27.163   4.140  49.114  0.00  0.00    +0.000 A 
ATOM     26  C   UNL     1      26.467   3.376  50.055  0.00  0.00    +0.000 A 
ATOM     27  C   UNL     1      25.331   3.923  50.692  0.00  0.00    +0.000 A 
BRANCH  21  28
ATOM     28  C   UNL     1      23.300   6.873  51.362  0.00  0.00    +0.000 C 
BRANCH  28  29
ATOM     29  C   UNL     1      21.906   7.070  50.764  0.00  0.00    +0.000 C 
BRANCH  29  30
ATOM     30  C   UNL     1      21.540   6.138  49.609  0.00  0.00    +0.000 C 
BRANCH  30  31
ATOM     31  N   UNL     1      20.604   5.089  50.001  0.00  0.00    +0.000 N 
ATOM     32  H   UNL     1      19.818   5.504  50.502  0.00  0.00    +0.000 HD
ATOM     33  H   UNL     1      21.079   4.420  50.607  0.00  0.00    +0.000 HD
ATOM     34  H   UNL     1      20.261   4.611  49.168  0.00  0.00    +0.000 HD
ENDBRANCH  30  31
ENDBRANCH  29  30
ENDBRANCH  28  29
ENDBRANCH  21  28
ENDBRANCH   2  19
TORSDOF 6
ENDMDL
MODEL 7
REMARK VINA RESULT:    -8.137      2.052      3.499
REMARK INTER + INTRA:         -11.811
REMARK INTER:                 -11.373
REMARK INTRA:                  -0.438
REMARK UNBOUND:                -1.058
REMARK  Name = 
REMARK  7 active torsions:
REMARK  status: ('A' for Active; 'I' for Inactive)
REMARK    1  A    between atoms: C_1  and  N_2
REMARK    2  A    between atoms: C_4  and  C_5
REMARK    3  A    between atoms: C_6  and  C_7
REMARK    4  A    between atoms: N_9  and  C_10
REMARK    5  A    between atoms: C_10  and  C_11
REMARK    6  A    between atoms: C_11  and  C_12
REMARK    7  A    between atoms: C_12  and  N_13
REMARK                            x       y       z     vdW  Elec       q    Type
REMARK                         _______ _______ _______ _____ _____    ______ ____
ROOT
ATOM      1  C   UNL     1      24.114   1.058  53.208  0.00  0.00    +0.000 C 
ATOM      2  C   UNL     1      23.409   2.029  52.614  0.00  0.00    +0.000 C 
ATOM      3  C   UNL     1      21.981   1.666  52.703  0.00  0.00    +0.000 C 
ATOM      4  O   UNL     1      21.035   2.309  52.291  0.00  0.00    +0.000 OA
ATOM      5  N   UNL     1      21.915   0.471  53.331  0.00  0.00    +0.000 N 
ATOM      6  C   UNL     1      23.152   0.019  53.634  0.00  0.00    +0.000 C 
ATOM      7  O   UNL     1      23.410  -1.055  54.146  0.00  0.00    +0.000 OA
ATOM      8  H   UNL     1      21.078  -0.005  53.540  0.00  0.00    +0.000 HD
ENDROOT
BRANCH   1  12
ATOM      9  C   UNL     1      28.730   2.417  54.243  0.00  0.00    +0.000 C 
ATOM     10  N   UNL     1      27.598   1.605  53.841  0.00  0.00    +0.000 N 
ATOM     11  C   UNL     1      26.302   2.035  53.807  0.00  0.00    +0.000 A 
ATOM     12  C   UNL     1      25.513   0.974  53.403  0.00  0.00    +0.000 A 
ATOM     13  C   UNL     1      26.376  -0.139  53.173  0.00  0.00    +0.000 A 
ATOM     14  C   UNL     1      26.177  -1.472  52.749  0.00  0.00    +0.000 A 
ATOM     15  C   UNL     1      27.278  -2.326  52.608  0.00  0.00    +0.000 A 
ATOM     16  C   UNL     1      28.565  -1.875  52.879  0.00  0.00    +0.000 A 
ATOM     17  C   UNL     1      28.791  -0.562  53.303  0.00  0.00    +0.000 A 
ATOM     18  C   UNL     1      27.681   0.289  53.445  0.00  0.00    +0.000 A 
ENDBRANCH   1  12
BRANCH   2  19
ATOM     19  C   UNL     1      23.889   3.208  51.990  0.00  0.00    +0.000 A 
ATOM     20  C   UNL     1      23.407   4.466  52.260  0.00  0.00    +0.000 A 
ATOM     21  N   UNL     1      24.066   5.356  51.447  0.00  0.00    +0.000 N 
ATOM     22  C   UNL     1      24.944   4.675  50.622  0.00  0.00    +0.000 A 
ATOM     23  C   UNL     1      25.788   5.123  49.595  0.00  0.00    +0.000 A 
ATOM     24  C   UNL     1      26.705   4.215  49.053  0.00  0.00    +0.000 A 
ATOM     25  C   UNL     1      26.727   2.886  49.460  0.00  0.00    +0.000 A 
ATOM     26  C   UNL     1      25.805   2.419  50.401  0.00  0.00    +0.000 A 
ATOM     27  C   UNL     1      24.909   3.328  51.007  0.00  0.00    +0.000 A 
BRANCH  21  28
ATOM     28  C   UNL     1      23.973   6.801  51.590  0.00  0.00    +0.000 C 
BRANCH  28  29
ATOM     29  C   UNL     1      23.086   7.501  50.560  0.00  0.00    +0.000 C 
BRANCH  29  30
ATOM     30  C   UNL     1      21.580   7.407  50.804  0.00  0.00    +0.000 C 
BRANCH  30  31
ATOM     31  N   UNL     1      20.967   6.261  50.141  0.00  0.00    +0.000 N 
ATOM     32  H   UNL     1      20.301   5.818  50.774  0.00  0.00    +0.000 HD
ATOM     33  H   UNL     1      21.691   5.590  49.884  0.00  0.00    +0.000 HD
ATOM     34  H   UNL     1      20.480   6.575  49.301  0.00  0.00    +0.000 HD
ENDBRANCH  30  31
ENDBRANCH  29  30
ENDBRANCH  28  29
ENDBRANCH  21  28
ENDBRANCH   2  19
TORSDOF 6
ENDMDL
MODEL 8
REMARK VINA RESULT:    -8.046      2.981      5.153
REMARK INTER + INTRA:         -11.692
REMARK INTER:                 -10.751
REMARK INTRA:                  -0.941
REMARK UNBOUND:                -1.058
REMARK  Name = 
REMARK  7 active torsions:
REMARK  status: ('A' for Active; 'I' for Inactive)
REMARK    1  A    between atoms: C_1  and  N_2
REMARK    2  A    between atoms: C_4  and  C_5
REMARK    3  A    between atoms: C_6  and  C_7
REMARK    4  A    between atoms: N_9  and  C_10
REMARK    5  A    between atoms: C_10  and  C_11
REMARK    6  A    between atoms: C_11  and  C_12
REMARK    7  A    between atoms: C_12  and  N_13
REMARK                            x       y       z     vdW  Elec       q    Type
REMARK                         _______ _______ _______ _____ _____    ______ ____
ROOT
ATOM      1  C   UNL     1      21.657   0.136  53.490  0.00  0.00    +0.000 C 
ATOM      2  C   UNL     1      20.427   0.162  52.961  0.00  0.00    +0.000 C 
ATOM      3  C   UNL     1      19.649  -0.930  53.578  0.00  0.00    +0.000 C 
ATOM      4  O   UNL     1      18.486  -1.212  53.363  0.00  0.00    +0.000 OA
ATOM      5  N   UNL     1      20.476  -1.571  54.433  0.00  0.00    +0.000 N 
ATOM      6  C   UNL     1      21.709  -1.019  54.412  0.00  0.00    +0.000 C 
ATOM      7  O   UNL     1      22.678  -1.420  55.030  0.00  0.00    +0.000 OA
ATOM      8  H   UNL     1      20.215  -2.337  54.994  0.00  0.00    +0.000 HD
ENDROOT
BRANCH   1  12
ATOM      9  C   UNL     1      24.177   4.295  52.736  0.00  0.00    +0.000 C 
ATOM     10  N   UNL     1      23.870   2.885  52.868  0.00  0.00    +0.000 N 
ATOM     11  C   UNL     1      22.636   2.381  53.173  0.00  0.00    +0.000 A 
ATOM     12  C   UNL     1      22.745   1.004  53.239  0.00  0.00    +0.000 A 
ATOM     13  C   UNL     1      24.101   0.666  52.950  0.00  0.00    +0.000 A 
ATOM     14  C   UNL     1      24.819  -0.547  52.858  0.00  0.00    +0.000 A 
ATOM     15  C   UNL     1      26.180  -0.524  52.530  0.00  0.00    +0.000 A 
ATOM     16  C   UNL     1      26.832   0.681  52.290  0.00  0.00    +0.000 A 
ATOM     17  C   UNL     1      26.147   1.897  52.377  0.00  0.00    +0.000 A 
ATOM     18  C   UNL     1      24.782   1.866  52.710  0.00  0.00    +0.000 A 
ENDBRANCH   1  12
BRANCH   2  19
ATOM     19  C   UNL     1      19.911   1.046  51.980  0.00  0.00    +0.000 A 
ATOM     20  C   UNL     1      18.821   1.859  52.182  0.00  0.00    +0.000 A 
ATOM     21  N   UNL     1      18.579   2.540  51.014  0.00  0.00    +0.000 N 
ATOM     22  C   UNL     1      19.482   2.142  50.044  0.00  0.00    +0.000 A 
ATOM     23  C   UNL     1      19.608   2.498  48.692  0.00  0.00    +0.000 A 
ATOM     24  C   UNL     1      20.743   2.063  48.000  0.00  0.00    +0.000 A 
ATOM     25  C   UNL     1      21.682   1.236  48.606  0.00  0.00    +0.000 A 
ATOM     26  C   UNL     1      21.491   0.791  49.917  0.00  0.00    +0.000 A 
ATOM     27  C   UNL     1      20.384   1.263  50.657  0.00  0.00    +0.000 A 
BRANCH  21  28
ATOM     28  C   UNL     1      17.635   3.642  50.903  0.00  0.00    +0.000 C 
BRANCH  28  29
ATOM     29  C   UNL     1      16.159   3.242  50.954  0.00  0.00    +0.000 C 
BRANCH  29  30
ATOM     30  C   UNL     1      15.476   3.391  52.313  0.00  0.00    +0.000 C 
BRANCH  30  31
ATOM     31  N   UNL     1      15.929   4.565  53.051  0.00  0.00    +0.000 N 
ATOM     32  H   UNL     1      15.222   5.298  52.993  0.00  0.00    +0.000 HD
ATOM     33  H   UNL     1      16.804   4.904  52.648  0.00  0.00    +0.000 HD
ATOM     34  H   UNL     1      16.080   4.315  54.029  0.00  0.00    +0.000 HD
ENDBRANCH  30  31
ENDBRANCH  29  30
ENDBRANCH  28  29
ENDBRANCH  21  28
ENDBRANCH   2  19
TORSDOF 6
ENDMDL
MODEL 9
REMARK VINA RESULT:    -8.037      2.882      6.349
REMARK INTER + INTRA:         -11.679
REMARK INTER:                 -10.561
REMARK INTRA:                  -1.118
REMARK UNBOUND:                -1.058
REMARK  Name = 
REMARK  7 active torsions:
REMARK  status: ('A' for Active; 'I' for Inactive)
REMARK    1  A    between atoms: C_1  and  N_2
REMARK    2  A    between atoms: C_4  and  C_5
REMARK    3  A    between atoms: C_6  and  C_7
REMARK    4  A    between atoms: N_9  and  C_10
REMARK    5  A    between atoms: C_10  and  C_11
REMARK    6  A    between atoms: C_11  and  C_12
REMARK    7  A    between atoms: C_12  and  N_13
REMARK                            x       y       z     vdW  Elec       q    Type
REMARK                         _______ _______ _______ _____ _____    ______ ____
ROOT
ATOM      1  C   UNL     1      19.880   0.309  52.070  0.00  0.00    +0.000 C 
ATOM      2  C   UNL     1      20.923   0.129  52.892  0.00  0.00    +0.000 C 
ATOM      3  C   UNL     1      20.536  -0.884  53.892  0.00  0.00    +0.000 C 
ATOM      4  O   UNL     1      21.224  -1.323  54.793  0.00  0.00    +0.000 OA
ATOM      5  N   UNL     1      19.260  -1.239  53.624  0.00  0.00    +0.000 N 
ATOM      6  C   UNL     1      18.779  -0.543  52.570  0.00  0.00    +0.000 C 
ATOM      7  O   UNL     1      17.643  -0.602  52.137  0.00  0.00    +0.000 OA
ATOM      8  H   UNL     1      18.749  -1.913  54.129  0.00  0.00    +0.000 HD
ENDROOT
BRANCH   1  12
ATOM      9  C   UNL     1      20.843   2.251  47.651  0.00  0.00    +0.000 C 
ATOM     10  N   UNL     1      20.245   2.043  48.955  0.00  0.00    +0.000 N 
ATOM     11  C   UNL     1      20.586   1.040  49.819  0.00  0.00    +0.000 A 
ATOM     12  C   UNL     1      19.782   1.152  50.938  0.00  0.00    +0.000 A 
ATOM     13  C   UNL     1      18.929   2.279  50.743  0.00  0.00    +0.000 A 
ATOM     14  C   UNL     1      17.918   2.897  51.510  0.00  0.00    +0.000 A 
ATOM     15  C   UNL     1      17.267   4.033  51.014  0.00  0.00    +0.000 A 
ATOM     16  C   UNL     1      17.607   4.561  49.773  0.00  0.00    +0.000 A 
ATOM     17  C   UNL     1      18.602   3.968  48.990  0.00  0.00    +0.000 A 
ATOM     18  C   UNL     1      19.249   2.826  49.494  0.00  0.00    +0.000 A 
ENDBRANCH   1  12
BRANCH   2  19
ATOM     19  C   UNL     1      22.186   0.770  52.860  0.00  0.00    +0.000 A 
ATOM     20  C   UNL     1      23.384   0.101  52.941  0.00  0.00    +0.000 A 
ATOM     21  N   UNL     1      24.392   1.034  52.925  0.00  0.00    +0.000 N 
ATOM     22  C   UNL     1      23.851   2.307  52.876  0.00  0.00    +0.000 A 
ATOM     23  C   UNL     1      24.456   3.573  52.901  0.00  0.00    +0.000 A 
ATOM     24  C   UNL     1      23.652   4.691  52.652  0.00  0.00    +0.000 A 
ATOM     25  C   UNL     1      22.280   4.564  52.466  0.00  0.00    +0.000 A 
ATOM     26  C   UNL     1      21.668   3.311  52.559  0.00  0.00    +0.000 A 
ATOM     27  C   UNL     1      22.464   2.160  52.749  0.00  0.00    +0.000 A 
BRANCH  21  28
ATOM     28  C   UNL     1      25.801   0.698  52.788  0.00  0.00    +0.000 C 
BRANCH  28  29
ATOM     29  C   UNL     1      26.633   0.846  54.062  0.00  0.00    +0.000 C 
BRANCH  29  30
ATOM     30  C   UNL     1      28.070   1.331  53.866  0.00  0.00    +0.000 C 
BRANCH  30  31
ATOM     31  N   UNL     1      28.225   2.760  54.116  0.00  0.00    +0.000 N 
ATOM     32  H   UNL     1      29.211   3.013  54.043  0.00  0.00    +0.000 HD
ATOM     33  H   UNL     1      27.886   2.981  55.052  0.00  0.00    +0.000 HD
ATOM     34  H   UNL     1      27.688   3.286  53.426  0.00  0.00    +0.000 HD
ENDBRANCH  30  31
ENDBRANCH  29  30
ENDBRANCH  28  29
ENDBRANCH  21  28
ENDBRANCH   2  19
TORSDOF 6
ENDMDL
