MODEL 1
REMARK VINA RESULT:    -6.613      0.000      0.000
REMARK INTER + INTRA:         -11.959
REMARK INTER:                  -9.899
REMARK INTRA:                  -2.060
REMARK UNBOUND:                -2.060
REMARK  Name = 
REMARK  10 active torsions:
REMARK  status: ('A' for Active; 'I' for Inactive)
REMARK    1  A    between atoms: C_1  and  O_2
REMARK    2  A    between atoms: O_2  and  C_3
REMARK    3  A    between atoms: C_3  and  C_5
REMARK    4  A    between atoms: C_8  and  O_9
REMARK    5  A    between atoms: O_9  and  C_10
REMARK    6  A    between atoms: C_10  and  C_11
REMARK    7  A    between atoms: C_11  and  C_12
REMARK    8  A    between atoms: C_12  and  O_13
REMARK    9  A    between atoms: O_13  and  C_14
REMARK   10  A    between atoms: C_19  and  O_20
REMARK                            x       y       z     vdW  Elec       q    Type
REMARK                         _______ _______ _______ _____ _____    ______ ____
ROOT
ATOM      1  C   UNL     1      22.753   3.772  48.850  0.00  0.00    +0.000 C 
ENDROOT
BRANCH   1   2
ATOM      2  C   UNL     1      24.115   3.975  49.530  0.00  0.00    +0.000 C 
BRANCH   2   3
ATOM      3  O   UNL     1      24.052   4.144  50.953  0.00  0.00    +0.000 OA
BRANCH   3   7
ATOM      4  C   UNL     1      26.018   1.019  52.995  0.00  0.00    +0.000 A 
ATOM      5  C   UNL     1      25.153   1.864  53.698  0.00  0.00    +0.000 A 
ATOM      6  C   UNL     1      24.511   2.933  53.056  0.00  0.00    +0.000 A 
ATOM      7  C   UNL     1      24.706   3.175  51.693  0.00  0.00    +0.000 A 
ATOM      8  C   UNL     1      25.617   2.363  51.003  0.00  0.00    +0.000 A 
ATOM      9  C   UNL     1      26.270   1.290  51.647  0.00  0.00    +0.000 A 
BRANCH   4  10
ATOM     10  C   UNL     1      26.593  -0.146  53.735  0.00  0.00    +0.000 C 
ATOM     11  O   UNL     1      26.505  -1.299  53.326  0.00  0.00    +0.000 OA
BRANCH  10  13
ATOM     12  C   UNL     1      28.663   0.087  54.786  0.00  0.00    +0.000 C 
ATOM     13  O   UNL     1      27.237   0.242  54.859  0.00  0.00    +0.000 OA
ENDBRANCH  10  13
ENDBRANCH   4  10
ENDBRANCH   3   7
ENDBRANCH   2   3
ENDBRANCH   1   2
BRANCH   1  14
ATOM     14  C   UNL     1      22.064   2.432  49.106  0.00  0.00    +0.000 C 
BRANCH  14  15
ATOM     15  O   UNL     1      21.109   2.570  50.183  0.00  0.00    +0.000 OA
BRANCH  15  16
ATOM     16  C   UNL     1      21.257   1.788  51.305  0.00  0.00    +0.000 A 
ATOM     17  C   UNL     1      22.137   0.706  51.423  0.00  0.00    +0.000 A 
ATOM     18  C   UNL     1      22.164   0.037  52.633  0.00  0.00    +0.000 A 
ATOM     19  C   UNL     1      21.322   0.350  53.698  0.00  0.00    +0.000 A 
ATOM     20  C   UNL     1      20.466   1.425  53.619  0.00  0.00    +0.000 A 
ATOM     21  C   UNL     1      20.469   2.154  52.426  0.00  0.00    +0.000 A 
ATOM     22  C   UNL     1      21.542  -0.646  54.775  0.00  0.00    +0.000 C 
ATOM     23  C   UNL     1      22.961  -1.044  54.378  0.00  0.00    +0.000 C 
ATOM     24  O   UNL     1      23.040  -0.984  52.930  0.00  0.00    +0.000 OA
BRANCH  21  25
ATOM     25  O   UNL     1      19.678   3.273  52.380  0.00  0.00    +0.000 OA
ATOM     26  H   UNL     1      19.231   3.563  53.150  0.00  0.00    +0.000 HD
ENDBRANCH  21  25
ENDBRANCH  15  16
ENDBRANCH  14  15
ENDBRANCH   1  14
TORSDOF 9
ENDMDL
MODEL 2
REMARK VINA RESULT:    -6.468      1.668      4.246
REMARK INTER + INTRA:         -11.742
REMARK INTER:                 -10.348
REMARK INTRA:                  -1.393
REMARK UNBOUND:                -2.060
REMARK  Name = 
REMARK  10 active torsions:
REMARK  status: ('A' for Active; 'I' for Inactive)
REMARK    1  A    between atoms: C_1  and  O_2
REMARK    2  A    between atoms: O_2  and  C_3
REMARK    3  A    between atoms: C_3  and  C_5
REMARK    4  A    between atoms: C_8  and  O_9
REMARK    5  A    between atoms: O_9  and  C_10
REMARK    6  A    between atoms: C_10  and  C_11
REMARK    7  A    between atoms: C_11  and  C_12
REMARK    8  A    between atoms: C_12  and  O_13
REMARK    9  A    between atoms: O_13  and  C_14
REMARK   10  A    between atoms: C_19  and  O_20
REMARK                            x       y       z     vdW  Elec       q    Type
REMARK                         _______ _______ _______ _____ _____    ______ ____
ROOT
ATOM      1  C   UNL     1      21.350  -0.993  54.451  0.00  0.00    +0.000 C 
ENDROOT
BRANCH   1   2
ATOM      2  C   UNL     1      22.861  -1.171  54.660  0.00  0.00    +0.000 C 
BRANCH   2   3
ATOM      3  O   UNL     1      23.641  -1.104  53.459  0.00  0.00    +0.000 OA
BRANCH   3   7
ATOM      4  C   UNL     1      27.699   0.007  53.781  0.00  0.00    +0.000 A 
ATOM      5  C   UNL     1      26.894  -0.003  54.925  0.00  0.00    +0.000 A 
ATOM      6  C   UNL     1      25.534  -0.334  54.847  0.00  0.00    +0.000 A 
ATOM      7  C   UNL     1      24.947  -0.677  53.625  0.00  0.00    +0.000 A 
ATOM      8  C   UNL     1      25.739  -0.609  52.471  0.00  0.00    +0.000 A 
ATOM      9  C   UNL     1      27.108  -0.271  52.544  0.00  0.00    +0.000 A 
BRANCH   4  10
ATOM     10  C   UNL     1      29.155   0.288  53.966  0.00  0.00    +0.000 C 
ATOM     11  O   UNL     1      30.030  -0.492  53.607  0.00  0.00    +0.000 OA
BRANCH  10  13
ATOM     12  C   UNL     1      28.988   2.598  53.688  0.00  0.00    +0.000 C 
ATOM     13  O   UNL     1      29.365   1.498  54.531  0.00  0.00    +0.000 OA
ENDBRANCH  10  13
ENDBRANCH   4  10
ENDBRANCH   3   7
ENDBRANCH   2   3
ENDBRANCH   1   2
BRANCH   1  14
ATOM     14  C   UNL     1      20.822   0.439  54.529  0.00  0.00    +0.000 C 
BRANCH  14  15
ATOM     15  O   UNL     1      20.519   0.922  53.199  0.00  0.00    +0.000 OA
BRANCH  15  16
ATOM     16  C   UNL     1      21.545   1.410  52.423  0.00  0.00    +0.000 A 
ATOM     17  C   UNL     1      22.667   2.094  52.906  0.00  0.00    +0.000 A 
ATOM     18  C   UNL     1      23.609   2.505  51.981  0.00  0.00    +0.000 A 
ATOM     19  C   UNL     1      23.461   2.324  50.608  0.00  0.00    +0.000 A 
ATOM     20  C   UNL     1      22.381   1.632  50.107  0.00  0.00    +0.000 A 
ATOM     21  C   UNL     1      21.448   1.153  51.032  0.00  0.00    +0.000 A 
ATOM     22  C   UNL     1      24.593   2.994  49.924  0.00  0.00    +0.000 C 
ATOM     23  C   UNL     1      25.575   2.946  51.092  0.00  0.00    +0.000 C 
ATOM     24  O   UNL     1      24.805   3.104  52.312  0.00  0.00    +0.000 OA
BRANCH  21  25
ATOM     25  O   UNL     1      20.419   0.393  50.539  0.00  0.00    +0.000 OA
ATOM     26  H   UNL     1      20.191  -0.414  50.955  0.00  0.00    +0.000 HD
ENDBRANCH  21  25
ENDBRANCH  15  16
ENDBRANCH  14  15
ENDBRANCH   1  14
TORSDOF 9
ENDMDL
MODEL 3
REMARK VINA RESULT:    -6.393      1.172      2.025
REMARK INTER + INTRA:         -11.631
REMARK INTER:                  -9.453
REMARK INTRA:                  -2.178
REMARK UNBOUND:                -2.060
REMARK  Name = 
REMARK  10 active torsions:
REMARK  status: ('A' for Active; 'I' for Inactive)
REMARK    1  A    between atoms: C_1  and  O_2
REMARK    2  A    between atoms: O_2  and  C_3
REMARK    3  A    between atoms: C_3  and  C_5
REMARK    4  A    between atoms: C_8  and  O_9
REMARK    5  A    between atoms: O_9  and  C_10
REMARK    6  A    between atoms: C_10  and  C_11
REMARK    7  A    between atoms: C_11  and  C_12
REMARK    8  A    between atoms: C_12  and  O_13
REMARK    9  A    between atoms: O_13  and  C_14
REMARK   10  A    between atoms: C_19  and  O_20
REMARK                            x       y       z     vdW  Elec       q    Type
REMARK                         _______ _______ _______ _____ _____    ______ ____
ROOT
ATOM      1  C   UNL     1      22.123   4.919  50.589  0.00  0.00    +0.000 C 
ENDROOT
BRANCH   1   2
ATOM      2  C   UNL     1      23.294   4.958  51.582  0.00  0.00    +0.000 C 
BRANCH   2   3
ATOM      3  O   UNL     1      24.531   4.450  51.065  0.00  0.00    +0.000 OA
BRANCH   3   7
ATOM      4  C   UNL     1      25.907   0.980  53.033  0.00  0.00    +0.000 A 
ATOM      5  C   UNL     1      26.236   1.187  51.689  0.00  0.00    +0.000 A 
ATOM      6  C   UNL     1      25.767   2.312  50.997  0.00  0.00    +0.000 A 
ATOM      7  C   UNL     1      24.968   3.267  51.634  0.00  0.00    +0.000 A 
ATOM      8  C   UNL     1      24.590   3.028  52.963  0.00  0.00    +0.000 A 
ATOM      9  C   UNL     1      25.055   1.894  53.662  0.00  0.00    +0.000 A 
BRANCH   4  10
ATOM     10  C   UNL     1      26.519  -0.200  53.718  0.00  0.00    +0.000 C 
ATOM     11  O   UNL     1      26.468  -1.334  53.255  0.00  0.00    +0.000 OA
BRANCH  10  13
ATOM     12  C   UNL     1      28.557   0.376  54.696  0.00  0.00    +0.000 C 
ATOM     13  O   UNL     1      27.147   0.155  54.861  0.00  0.00    +0.000 OA
ENDBRANCH  10  13
ENDBRANCH   4  10
ENDBRANCH   3   7
ENDBRANCH   2   3
ENDBRANCH   1   2
BRANCH   1  14
ATOM     14  C   UNL     1      20.755   4.564  51.172  0.00  0.00    +0.000 C 
BRANCH  14  15
ATOM     15  O   UNL     1      20.404   3.209  50.806  0.00  0.00    +0.000 OA
BRANCH  15  16
ATOM     16  C   UNL     1      20.906   2.170  51.556  0.00  0.00    +0.000 A 
ATOM     17  C   UNL     1      20.530   1.869  52.870  0.00  0.00    +0.000 A 
ATOM     18  C   UNL     1      21.130   0.776  53.469  0.00  0.00    +0.000 A 
ATOM     19  C   UNL     1      22.118   0.013  52.852  0.00  0.00    +0.000 A 
ATOM     20  C   UNL     1      22.488   0.271  51.551  0.00  0.00    +0.000 A 
ATOM     21  C   UNL     1      21.848   1.333  50.906  0.00  0.00    +0.000 A 
ATOM     22  C   UNL     1      22.613  -0.987  53.828  0.00  0.00    +0.000 C 
ATOM     23  C   UNL     1      21.363  -1.033  54.702  0.00  0.00    +0.000 C 
ATOM     24  O   UNL     1      20.796   0.303  54.719  0.00  0.00    +0.000 OA
BRANCH  21  25
ATOM     25  O   UNL     1      22.156   1.534  49.585  0.00  0.00    +0.000 OA
ATOM     26  H   UNL     1      22.821   1.017  49.175  0.00  0.00    +0.000 HD
ENDBRANCH  21  25
ENDBRANCH  15  16
ENDBRANCH  14  15
ENDBRANCH   1  14
TORSDOF 9
ENDMDL
MODEL 4
REMARK VINA RESULT:    -6.359      1.783      5.338
REMARK INTER + INTRA:         -11.579
REMARK INTER:                 -10.005
REMARK INTRA:                  -1.574
REMARK UNBOUND:                -2.060
REMARK  Name = 
REMARK  10 active torsions:
REMARK  status: ('A' for Active; 'I' for Inactive)
REMARK    1  A    between atoms: C_1  and  O_2
REMARK    2  A    between atoms: O_2  and  C_3
REMARK    3  A    between atoms: C_3  and  C_5
REMARK    4  A    between atoms: C_8  and  O_9
REMARK    5  A    between atoms: O_9  and  C_10
REMARK    6  A    between atoms: C_10  and  C_11
REMARK    7  A    between atoms: C_11  and  C_12
REMARK    8  A    between atoms: C_12  and  O_13
REMARK    9  A    between atoms: O_13  and  C_14
REMARK   10  A    between atoms: C_19  and  O_20
REMARK                            x       y       z     vdW  Elec       q    Type
REMARK                         _______ _______ _______ _____ _____    ______ ____
ROOT
ATOM      1  C   UNL     1      27.059   0.286  53.407  0.00  0.00    +0.000 C 
ENDROOT
BRANCH   1   2
ATOM      2  C   UNL     1      27.040   1.697  52.802  0.00  0.00    +0.000 C 
BRANCH   2   3
ATOM      3  O   UNL     1      26.414   1.786  51.515  0.00  0.00    +0.000 OA
BRANCH   3   7
ATOM      4  C   UNL     1      22.871   4.076  51.598  0.00  0.00    +0.000 A 
ATOM      5  C   UNL     1      23.329   3.558  50.381  0.00  0.00    +0.000 A 
ATOM      6  C   UNL     1      24.520   2.822  50.314  0.00  0.00    +0.000 A 
ATOM      7  C   UNL     1      25.277   2.573  51.463  0.00  0.00    +0.000 A 
ATOM      8  C   UNL     1      24.849   3.141  52.671  0.00  0.00    +0.000 A 
ATOM      9  C   UNL     1      23.653   3.888  52.742  0.00  0.00    +0.000 A 
BRANCH   4  10
ATOM     10  C   UNL     1      21.550   4.775  51.595  0.00  0.00    +0.000 C 
ATOM     11  O   UNL     1      21.432   5.967  51.333  0.00  0.00    +0.000 OA
BRANCH  10  13
ATOM     12  C   UNL     1      19.369   4.140  51.060  0.00  0.00    +0.000 C 
ATOM     13  O   UNL     1      20.534   3.928  51.874  0.00  0.00    +0.000 OA
ENDBRANCH  10  13
ENDBRANCH   4  10
ENDBRANCH   3   7
ENDBRANCH   2   3
ENDBRANCH   1   2
BRANCH   1  14
ATOM     14  C   UNL     1      26.146   0.056  54.611  0.00  0.00    +0.000 C 
BRANCH  14  15
ATOM     15  O   UNL     1      25.221  -1.018  54.325  0.00  0.00    +0.000 OA
BRANCH  15  16
ATOM     16  C   UNL     1      23.919  -0.704  54.010  0.00  0.00    +0.000 A 
ATOM     17  C   UNL     1      23.507  -0.047  52.845  0.00  0.00    +0.000 A 
ATOM     18  C   UNL     1      22.151   0.177  52.685  0.00  0.00    +0.000 A 
ATOM     19  C   UNL     1      21.203  -0.164  53.647  0.00  0.00    +0.000 A 
ATOM     20  C   UNL     1      21.576  -0.835  54.789  0.00  0.00    +0.000 A 
ATOM     21  C   UNL     1      22.935  -1.126  54.940  0.00  0.00    +0.000 A 
ATOM     22  C   UNL     1      19.880   0.333  53.194  0.00  0.00    +0.000 C 
ATOM     23  C   UNL     1      20.191   0.363  51.700  0.00  0.00    +0.000 C 
ATOM     24  O   UNL     1      21.588   0.726  51.554  0.00  0.00    +0.000 OA
BRANCH  21  25
ATOM     25  O   UNL     1      23.293  -1.867  56.037  0.00  0.00    +0.000 OA
ATOM     26  H   UNL     1      24.148  -2.247  56.088  0.00  0.00    +0.000 HD
ENDBRANCH  21  25
ENDBRANCH  15  16
ENDBRANCH  14  15
ENDBRANCH   1  14
TORSDOF 9
ENDMDL
MODEL 5
REMARK VINA RESULT:    -6.343      3.356      6.143
REMARK INTER + INTRA:         -11.555
REMARK INTER:                 -10.634
REMARK INTRA:                  -0.920
REMARK UNBOUND:                -2.060
REMARK  Name = 
REMARK  10 active torsions:
REMARK  status: ('A' for Active; 'I' for Inactive)
REMARK    1  A    between atoms: C_1  and  O_2
REMARK    2  A    between atoms: O_2  and  C_3
REMARK    3  A    between atoms: C_3  and  C_5
REMARK    4  A    between atoms: C_8  and  O_9
REMARK    5  A    between atoms: O_9  and  C_10
REMARK    6  A    between atoms: C_10  and  C_11
REMARK    7  A    between atoms: C_11  and  C_12
REMARK    8  A    between atoms: C_12  and  O_13
REMARK    9  A    between atoms: O_13  and  C_14
REMARK   10  A    between atoms: C_19  and  O_20
REMARK                            x       y       z     vdW  Elec       q    Type
REMARK                         _______ _______ _______ _____ _____    ______ ____
ROOT
ATOM      1  C   UNL     1      23.442   2.526  51.136  0.00  0.00    +0.000 C 
ENDROOT
BRANCH   1   2
ATOM      2  C   UNL     1      23.906   3.095  49.788  0.00  0.00    +0.000 C 
BRANCH   2   3
ATOM      3  O   UNL     1      24.055   4.522  49.763  0.00  0.00    +0.000 OA
BRANCH   3   7
ATOM      4  C   UNL     1      27.845   5.797  48.417  0.00  0.00    +0.000 A 
ATOM      5  C   UNL     1      26.751   6.662  48.317  0.00  0.00    +0.000 A 
ATOM      6  C   UNL     1      25.472   6.257  48.723  0.00  0.00    +0.000 A 
ATOM      7  C   UNL     1      25.256   4.981  49.254  0.00  0.00    +0.000 A 
ATOM      8  C   UNL     1      26.341   4.095  49.299  0.00  0.00    +0.000 A 
ATOM      9  C   UNL     1      27.629   4.497  48.885  0.00  0.00    +0.000 A 
BRANCH   4  10
ATOM     10  C   UNL     1      29.187   6.337  48.042  0.00  0.00    +0.000 C 
ATOM     11  O   UNL     1      29.328   7.300  47.295  0.00  0.00    +0.000 OA
BRANCH  10  13
ATOM     12  C   UNL     1      31.264   5.310  47.767  0.00  0.00    +0.000 C 
ATOM     13  O   UNL     1      30.188   5.663  48.651  0.00  0.00    +0.000 OA
ENDBRANCH  10  13
ENDBRANCH   4  10
ENDBRANCH   3   7
ENDBRANCH   2   3
ENDBRANCH   1   2
BRANCH   1  14
ATOM     14  C   UNL     1      24.148   3.071  52.378  0.00  0.00    +0.000 C 
BRANCH  14  15
ATOM     15  O   UNL     1      24.297   2.018  53.358  0.00  0.00    +0.000 OA
BRANCH  15  16
ATOM     16  C   UNL     1      25.437   1.248  53.333  0.00  0.00    +0.000 A 
ATOM     17  C   UNL     1      26.745   1.741  53.400  0.00  0.00    +0.000 A 
ATOM     18  C   UNL     1      27.775   0.818  53.376  0.00  0.00    +0.000 A 
ATOM     19  C   UNL     1      27.570  -0.552  53.228  0.00  0.00    +0.000 A 
ATOM     20  C   UNL     1      26.294  -1.066  53.186  0.00  0.00    +0.000 A 
ATOM     21  C   UNL     1      25.238  -0.155  53.273  0.00  0.00    +0.000 A 
ATOM     22  C   UNL     1      28.894  -1.212  53.119  0.00  0.00    +0.000 C 
ATOM     23  C   UNL     1      29.701  -0.141  53.847  0.00  0.00    +0.000 C 
ATOM     24  O   UNL     1      29.106   1.144  53.526  0.00  0.00    +0.000 OA
BRANCH  21  25
ATOM     25  O   UNL     1      23.970  -0.676  53.316  0.00  0.00    +0.000 OA
ATOM     26  H   UNL     1      23.259  -0.211  52.923  0.00  0.00    +0.000 HD
ENDBRANCH  21  25
ENDBRANCH  15  16
ENDBRANCH  14  15
ENDBRANCH   1  14
TORSDOF 9
ENDMDL
MODEL 6
REMARK VINA RESULT:    -6.304      2.122      5.620
REMARK INTER + INTRA:         -11.497
REMARK INTER:                 -10.601
REMARK INTRA:                  -0.896
REMARK UNBOUND:                -2.060
REMARK  Name = 
REMARK  10 active torsions:
REMARK  status: ('A' for Active; 'I' for Inactive)
REMARK    1  A    between atoms: C_1  and  O_2
REMARK    2  A    between atoms: O_2  and  C_3
REMARK    3  A    between atoms: C_3  and  C_5
REMARK    4  A    between atoms: C_8  and  O_9
REMARK    5  A    between atoms: O_9  and  C_10
REMARK    6  A    between atoms: C_10  and  C_11
REMARK    7  A    between atoms: C_11  and  C_12
REMARK    8  A    between atoms: C_12  and  O_13
REMARK    9  A    between atoms: O_13  and  C_14
REMARK   10  A    between atoms: C_19  and  O_20
REMARK                            x       y       z     vdW  Elec       q    Type
REMARK                         _______ _______ _______ _____ _____    ______ ____
ROOT
ATOM      1  C   UNL     1      22.128   0.724  51.773  0.00  0.00    +0.000 C 
ENDROOT
BRANCH   1   2
ATOM      2  C   UNL     1      22.925   0.581  53.077  0.00  0.00    +0.000 C 
BRANCH   2   3
ATOM      3  O   UNL     1      23.618  -0.667  53.218  0.00  0.00    +0.000 OA
BRANCH   3   7
ATOM      4  C   UNL     1      27.728  -0.111  53.992  0.00  0.00    +0.000 A 
ATOM      5  C   UNL     1      27.329  -0.749  52.813  0.00  0.00    +0.000 A 
ATOM      6  C   UNL     1      25.973  -0.979  52.541  0.00  0.00    +0.000 A 
ATOM      7  C   UNL     1      24.980  -0.566  53.436  0.00  0.00    +0.000 A 
ATOM      8  C   UNL     1      25.384   0.020  54.644  0.00  0.00    +0.000 A 
ATOM      9  C   UNL     1      26.748   0.248  54.924  0.00  0.00    +0.000 A 
BRANCH   4  10
ATOM     10  C   UNL     1      29.186   0.172  54.163  0.00  0.00    +0.000 C 
ATOM     11  O   UNL     1      30.056  -0.640  53.868  0.00  0.00    +0.000 OA
BRANCH  10  13
ATOM     12  C   UNL     1      29.066   2.455  53.697  0.00  0.00    +0.000 C 
ATOM     13  O   UNL     1      29.403   1.420  54.635  0.00  0.00    +0.000 OA
ENDBRANCH  10  13
ENDBRANCH   4  10
ENDBRANCH   3   7
ENDBRANCH   2   3
ENDBRANCH   1   2
BRANCH   1  14
ATOM     14  C   UNL     1      22.666   1.734  50.759  0.00  0.00    +0.000 C 
BRANCH  14  15
ATOM     15  O   UNL     1      24.067   1.985  51.016  0.00  0.00    +0.000 OA
BRANCH  15  16
ATOM     16  C   UNL     1      24.671   3.057  50.400  0.00  0.00    +0.000 A 
ATOM     17  C   UNL     1      23.999   4.153  49.847  0.00  0.00    +0.000 A 
ATOM     18  C   UNL     1      24.769   5.151  49.277  0.00  0.00    +0.000 A 
ATOM     19  C   UNL     1      26.157   5.082  49.178  0.00  0.00    +0.000 A 
ATOM     20  C   UNL     1      26.845   4.029  49.737  0.00  0.00    +0.000 A 
ATOM     21  C   UNL     1      26.089   3.040  50.373  0.00  0.00    +0.000 A 
ATOM     22  C   UNL     1      26.628   6.257  48.405  0.00  0.00    +0.000 C 
ATOM     23  C   UNL     1      25.440   7.167  48.702  0.00  0.00    +0.000 C 
ATOM     24  O   UNL     1      24.258   6.329  48.777  0.00  0.00    +0.000 OA
BRANCH  21  25
ATOM     25  O   UNL     1      26.781   2.037  51.001  0.00  0.00    +0.000 OA
ATOM     26  H   UNL     1      26.373   1.206  51.146  0.00  0.00    +0.000 HD
ENDBRANCH  21  25
ENDBRANCH  15  16
ENDBRANCH  14  15
ENDBRANCH   1  14
TORSDOF 9
ENDMDL
MODEL 7
REMARK VINA RESULT:    -6.288      1.848      5.890
REMARK INTER + INTRA:         -11.474
REMARK INTER:                  -9.901
REMARK INTRA:                  -1.573
REMARK UNBOUND:                -2.060
REMARK  Name = 
REMARK  10 active torsions:
REMARK  status: ('A' for Active; 'I' for Inactive)
REMARK    1  A    between atoms: C_1  and  O_2
REMARK    2  A    between atoms: O_2  and  C_3
REMARK    3  A    between atoms: C_3  and  C_5
REMARK    4  A    between atoms: C_8  and  O_9
REMARK    5  A    between atoms: O_9  and  C_10
REMARK    6  A    between atoms: C_10  and  C_11
REMARK    7  A    between atoms: C_11  and  C_12
REMARK    8  A    between atoms: C_12  and  O_13
REMARK    9  A    between atoms: O_13  and  C_14
REMARK   10  A    between atoms: C_19  and  O_20
REMARK                            x       y       z     vdW  Elec       q    Type
REMARK                         _______ _______ _______ _____ _____    ______ ____
ROOT
ATOM      1  C   UNL     1      20.539  -1.270  53.937  0.00  0.00    +0.000 C 
ENDROOT
BRANCH   1   2
ATOM      2  C   UNL     1      19.479  -0.375  53.280  0.00  0.00    +0.000 C 
BRANCH   2   3
ATOM      3  O   UNL     1      19.678  -0.146  51.879  0.00  0.00    +0.000 OA
BRANCH   3   7
ATOM      4  C   UNL     1      22.384   2.928  50.860  0.00  0.00    +0.000 A 
ATOM      5  C   UNL     1      21.513   3.105  51.941  0.00  0.00    +0.000 A 
ATOM      6  C   UNL     1      20.579   2.118  52.284  0.00  0.00    +0.000 A 
ATOM      7  C   UNL     1      20.501   0.921  51.565  0.00  0.00    +0.000 A 
ATOM      8  C   UNL     1      21.332   0.769  50.446  0.00  0.00    +0.000 A 
ATOM      9  C   UNL     1      22.270   1.763  50.094  0.00  0.00    +0.000 A 
BRANCH   4  10
ATOM     10  C   UNL     1      23.405   3.992  50.616  0.00  0.00    +0.000 C 
ATOM     11  O   UNL     1      23.818   4.728  51.505  0.00  0.00    +0.000 OA
BRANCH  10  13
ATOM     12  C   UNL     1      23.697   5.283  48.695  0.00  0.00    +0.000 C 
ATOM     13  O   UNL     1      23.822   4.001  49.330  0.00  0.00    +0.000 OA
ENDBRANCH  10  13
ENDBRANCH   4  10
ENDBRANCH   3   7
ENDBRANCH   2   3
ENDBRANCH   1   2
BRANCH   1  14
ATOM     14  C   UNL     1      21.611  -0.556  54.760  0.00  0.00    +0.000 C 
BRANCH  14  15
ATOM     15  O   UNL     1      22.853  -1.292  54.690  0.00  0.00    +0.000 OA
BRANCH  15  16
ATOM     16  C   UNL     1      23.972  -0.659  54.200  0.00  0.00    +0.000 A 
ATOM     17  C   UNL     1      24.028   0.071  53.007  0.00  0.00    +0.000 A 
ATOM     18  C   UNL     1      25.237   0.654  52.674  0.00  0.00    +0.000 A 
ATOM     19  C   UNL     1      26.396   0.496  53.431  0.00  0.00    +0.000 A 
ATOM     20  C   UNL     1      26.363  -0.194  54.621  0.00  0.00    +0.000 A 
ATOM     21  C   UNL     1      25.135  -0.738  55.008  0.00  0.00    +0.000 A 
ATOM     22  C   UNL     1      27.516   1.151  52.712  0.00  0.00    +0.000 C 
ATOM     23  C   UNL     1      26.673   2.137  51.907  0.00  0.00    +0.000 C 
ATOM     24  O   UNL     1      25.422   1.476  51.583  0.00  0.00    +0.000 OA
BRANCH  21  25
ATOM     25  O   UNL     1      25.086  -1.352  56.233  0.00  0.00    +0.000 OA
ATOM     26  H   UNL     1      25.319  -0.876  57.005  0.00  0.00    +0.000 HD
ENDBRANCH  21  25
ENDBRANCH  15  16
ENDBRANCH  14  15
ENDBRANCH   1  14
TORSDOF 9
ENDMDL
MODEL 8
REMARK VINA RESULT:    -6.195      2.590      5.941
REMARK INTER + INTRA:         -11.334
REMARK INTER:                 -10.366
REMARK INTRA:                  -0.968
REMARK UNBOUND:                -2.060
REMARK  Name = 
REMARK  10 active torsions:
REMARK  status: ('A' for Active; 'I' for Inactive)
REMARK    1  A    between atoms: C_1  and  O_2
REMARK    2  A    between atoms: O_2  and  C_3
REMARK    3  A    between atoms: C_3  and  C_5
REMARK    4  A    between atoms: C_8  and  O_9
REMARK    5  A    between atoms: O_9  and  C_10
REMARK    6  A    between atoms: C_10  and  C_11
REMARK    7  A    between atoms: C_11  and  C_12
REMARK    8  A    between atoms: C_12  and  O_13
REMARK    9  A    between atoms: O_13  and  C_14
REMARK   10  A    between atoms: C_19  and  O_20
REMARK                            x       y       z     vdW  Elec       q    Type
REMARK                         _______ _______ _______ _____ _____    ______ ____
ROOT
ATOM      1  C   UNL     1      22.992   1.991  50.192  0.00  0.00    +0.000 C 
ENDROOT
BRANCH   1   2
ATOM      2  C   UNL     1      22.335   1.375  51.435  0.00  0.00    +0.000 C 
BRANCH   2   3
ATOM      3  O   UNL     1      22.821   1.889  52.683  0.00  0.00    +0.000 OA
BRANCH   3   7
ATOM      4  C   UNL     1      26.659   0.551  53.816  0.00  0.00    +0.000 A 
ATOM      5  C   UNL     1      25.681  -0.383  53.459  0.00  0.00    +0.000 A 
ATOM      6  C   UNL     1      24.386   0.027  53.111  0.00  0.00    +0.000 A 
ATOM      7  C   UNL     1      24.040   1.382  53.096  0.00  0.00    +0.000 A 
ATOM      8  C   UNL     1      25.003   2.312  53.509  0.00  0.00    +0.000 A 
ATOM      9  C   UNL     1      26.306   1.904  53.867  0.00  0.00    +0.000 A 
BRANCH   4  10
ATOM     10  C   UNL     1      28.035   0.036  54.089  0.00  0.00    +0.000 C 
ATOM     11  O   UNL     1      28.700   0.404  55.052  0.00  0.00    +0.000 OA
BRANCH  10  13
ATOM     12  C   UNL     1      29.669  -1.518  53.490  0.00  0.00    +0.000 C 
ATOM     13  O   UNL     1      28.415  -0.889  53.179  0.00  0.00    +0.000 OA
ENDBRANCH  10  13
ENDBRANCH   4  10
ENDBRANCH   3   7
ENDBRANCH   2   3
ENDBRANCH   1   2
BRANCH   1  14
ATOM     14  C   UNL     1      22.967   3.517  50.100  0.00  0.00    +0.000 C 
BRANCH  14  15
ATOM     15  O   UNL     1      24.091   4.069  50.823  0.00  0.00    +0.000 OA
BRANCH  15  16
ATOM     16  C   UNL     1      25.085   4.705  50.116  0.00  0.00    +0.000 A 
ATOM     17  C   UNL     1      25.071   6.053  49.740  0.00  0.00    +0.000 A 
ATOM     18  C   UNL     1      26.164   6.531  49.041  0.00  0.00    +0.000 A 
ATOM     19  C   UNL     1      27.232   5.726  48.650  0.00  0.00    +0.000 A 
ATOM     20  C   UNL     1      27.285   4.404  49.028  0.00  0.00    +0.000 A 
ATOM     21  C   UNL     1      26.218   3.917  49.790  0.00  0.00    +0.000 A 
ATOM     22  C   UNL     1      28.151   6.542  47.819  0.00  0.00    +0.000 C 
ATOM     23  C   UNL     1      27.753   7.905  48.379  0.00  0.00    +0.000 C 
ATOM     24  O   UNL     1      26.335   7.851  48.685  0.00  0.00    +0.000 OA
BRANCH  21  25
ATOM     25  O   UNL     1      26.313   2.624  50.237  0.00  0.00    +0.000 OA
ATOM     26  H   UNL     1      27.155   2.237  50.376  0.00  0.00    +0.000 HD
ENDBRANCH  21  25
ENDBRANCH  15  16
ENDBRANCH  14  15
ENDBRANCH   1  14
TORSDOF 9
ENDMDL
MODEL 9
REMARK VINA RESULT:    -5.852      1.789      4.528
REMARK INTER + INTRA:         -10.821
REMARK INTER:                  -8.690
REMARK INTRA:                  -2.131
REMARK UNBOUND:                -2.060
REMARK  Name = 
REMARK  10 active torsions:
REMARK  status: ('A' for Active; 'I' for Inactive)
REMARK    1  A    between atoms: C_1  and  O_2
REMARK    2  A    between atoms: O_2  and  C_3
REMARK    3  A    between atoms: C_3  and  C_5
REMARK    4  A    between atoms: C_8  and  O_9
REMARK    5  A    between atoms: O_9  and  C_10
REMARK    6  A    between atoms: C_10  and  C_11
REMARK    7  A    between atoms: C_11  and  C_12
REMARK    8  A    between atoms: C_12  and  O_13
REMARK    9  A    between atoms: O_13  and  C_14
REMARK   10  A    between atoms: C_19  and  O_20
REMARK                            x       y       z     vdW  Elec       q    Type
REMARK                         _______ _______ _______ _____ _____    ______ ____
ROOT
ATOM      1  C   UNL     1      22.582   5.108  48.436  0.00  0.00    +0.000 C 
ENDROOT
BRANCH   1   2
ATOM      2  C   UNL     1      22.357   3.619  48.137  0.00  0.00    +0.000 C 
BRANCH   2   3
ATOM      3  O   UNL     1      21.077   3.116  48.545  0.00  0.00    +0.000 OA
BRANCH   3   7
ATOM      4  C   UNL     1      20.980   1.009  52.199  0.00  0.00    +0.000 A 
ATOM      5  C   UNL     1      20.297   2.224  52.086  0.00  0.00    +0.000 A 
ATOM      6  C   UNL     1      20.337   2.966  50.897  0.00  0.00    +0.000 A 
ATOM      7  C   UNL     1      21.050   2.504  49.785  0.00  0.00    +0.000 A 
ATOM      8  C   UNL     1      21.782   1.316  49.919  0.00  0.00    +0.000 A 
ATOM      9  C   UNL     1      21.749   0.570  51.116  0.00  0.00    +0.000 A 
BRANCH   4  10
ATOM     10  C   UNL     1      20.815   0.242  53.471  0.00  0.00    +0.000 C 
ATOM     11  O   UNL     1      19.775  -0.339  53.763  0.00  0.00    +0.000 OA
BRANCH  10  13
ATOM     12  C   UNL     1      22.235  -1.018  54.827  0.00  0.00    +0.000 C 
ATOM     13  O   UNL     1      21.947   0.247  54.211  0.00  0.00    +0.000 OA
ENDBRANCH  10  13
ENDBRANCH   4  10
ENDBRANCH   3   7
ENDBRANCH   2   3
ENDBRANCH   1   2
BRANCH   1  14
ATOM     14  C   UNL     1      24.015   5.519  48.774  0.00  0.00    +0.000 C 
BRANCH  14  15
ATOM     15  O   UNL     1      24.172   5.609  50.208  0.00  0.00    +0.000 OA
BRANCH  15  16
ATOM     16  C   UNL     1      24.458   4.465  50.916  0.00  0.00    +0.000 A 
ATOM     17  C   UNL     1      25.442   3.529  50.575  0.00  0.00    +0.000 A 
ATOM     18  C   UNL     1      25.602   2.439  51.410  0.00  0.00    +0.000 A 
ATOM     19  C   UNL     1      24.798   2.206  52.524  0.00  0.00    +0.000 A 
ATOM     20  C   UNL     1      23.841   3.121  52.898  0.00  0.00    +0.000 A 
ATOM     21  C   UNL     1      23.706   4.262  52.101  0.00  0.00    +0.000 A 
ATOM     22  C   UNL     1      25.173   0.893  53.102  0.00  0.00    +0.000 C 
ATOM     23  C   UNL     1      26.598   0.845  52.558  0.00  0.00    +0.000 C 
ATOM     24  O   UNL     1      26.587   1.488  51.256  0.00  0.00    +0.000 OA
BRANCH  21  25
ATOM     25  O   UNL     1      22.811   5.212  52.523  0.00  0.00    +0.000 OA
ATOM     26  H   UNL     1      22.527   5.224  53.415  0.00  0.00    +0.000 HD
ENDBRANCH  21  25
ENDBRANCH  15  16
ENDBRANCH  14  15
ENDBRANCH   1  14
TORSDOF 9
ENDMDL
