MODEL 1
REMARK VINA RESULT:    -9.800      0.000      0.000
REMARK INTER + INTRA:         -12.263
REMARK INTER:                 -11.518
REMARK INTRA:                  -0.745
REMARK UNBOUND:                -0.745
REMARK  Name = 
REMARK  5 active torsions:
REMARK  status: ('A' for Active; 'I' for Inactive)
REMARK    1  A    between atoms: C_1  and  N_2
REMARK    2  A    between atoms: C_5  and  C_6
REMARK    3  A    between atoms: C_7  and  O_8
REMARK    4  A    between atoms: C_10  and  O_11
REMARK    5  A    between atoms: C_16  and  C_17
REMARK                            x       y       z     vdW  Elec       q    Type
REMARK                         _______ _______ _______ _____ _____    ______ ____
ROOT
ATOM      1  C   UNL     1      23.945  -0.326  54.009  0.00  0.00    +0.000 A 
ATOM      2  C   UNL     1      23.150  -1.100  54.873  0.00  0.00    +0.000 A 
ATOM      3  C   UNL     1      21.758  -1.027  54.834  0.00  0.00    +0.000 A 
ATOM      4  C   UNL     1      21.141  -0.171  53.922  0.00  0.00    +0.000 A 
ATOM      5  C   UNL     1      21.909   0.623  53.060  0.00  0.00    +0.000 A 
ATOM      6  C   UNL     1      21.288   1.550  52.091  0.00  0.00    +0.000 A 
ATOM      7  O   UNL     1      20.085   1.689  51.921  0.00  0.00    +0.000 OA
ATOM      8  C   UNL     1      22.204   2.369  51.286  0.00  0.00    +0.000 A 
ATOM      9  C   UNL     1      23.527   2.221  51.423  0.00  0.00    +0.000 A 
ATOM     10  O   UNL     1      24.114   1.304  52.278  0.00  0.00    +0.000 OA
ATOM     11  C   UNL     1      23.306   0.548  53.106  0.00  0.00    +0.000 A 
ENDROOT
BRANCH   1  16
ATOM     12  C   UNL     1      29.276   0.467  53.376  0.00  0.00    +0.000 C 
ATOM     13  N   UNL     1      28.351  -0.468  53.997  0.00  0.00    +0.000 N 
ATOM     14  C   UNL     1      27.615   0.114  55.113  0.00  0.00    +0.000 C 
ATOM     15  C   UNL     1      26.125   0.158  55.025  0.00  0.00    +0.000 C 
ATOM     16  C   UNL     1      25.417  -0.423  54.047  0.00  0.00    +0.000 C 
ATOM     17  C   UNL     1      26.077  -1.188  52.948  0.00  0.00    +0.000 C 
ATOM     18  C   UNL     1      27.611  -1.272  53.023  0.00  0.00    +0.000 C 
ATOM     19  H   UNL     1      28.893  -1.189  54.473  0.00  0.00    +0.000 HD
ENDBRANCH   1  16
BRANCH   9  20
ATOM     20  C   UNL     1      24.481   3.052  50.655  0.00  0.00    +0.000 A 
ATOM     21  C   UNL     1      25.845   2.715  50.576  0.00  0.00    +0.000 A 
ATOM     22  C   UNL     1      26.739   3.478  49.823  0.00  0.00    +0.000 A 
ATOM     23  C   UNL     1      26.280   4.592  49.126  0.00  0.00    +0.000 A 
ATOM     24  C   UNL     1      24.934   4.942  49.197  0.00  0.00    +0.000 A 
ATOM     25 CL   UNL     1      24.369   6.321  48.335  0.00  0.00    +0.000 Cl
ATOM     26  C   UNL     1      24.037   4.183  49.952  0.00  0.00    +0.000 A 
ENDBRANCH   9  20
BRANCH   2  27
ATOM     27  O   UNL     1      23.751  -1.939  55.774  0.00  0.00    +0.000 OA
ATOM     28  H   UNL     1      24.560  -1.691  56.178  0.00  0.00    +0.000 HD
ENDBRANCH   2  27
BRANCH   4  29
ATOM     29  O   UNL     1      19.778  -0.111  53.894  0.00  0.00    +0.000 OA
ATOM     30  H   UNL     1      19.288  -0.781  53.458  0.00  0.00    +0.000 HD
ENDBRANCH   4  29
TORSDOF 4
ENDMDL
MODEL 2
REMARK VINA RESULT:    -9.692      1.405      2.135
REMARK INTER + INTRA:         -12.136
REMARK INTER:                 -11.391
REMARK INTRA:                  -0.745
REMARK UNBOUND:                -0.745
REMARK  Name = 
REMARK  5 active torsions:
REMARK  status: ('A' for Active; 'I' for Inactive)
REMARK    1  A    between atoms: C_1  and  N_2
REMARK    2  A    between atoms: C_5  and  C_6
REMARK    3  A    between atoms: C_7  and  O_8
REMARK    4  A    between atoms: C_10  and  O_11
REMARK    5  A    between atoms: C_16  and  C_17
REMARK                            x       y       z     vdW  Elec       q    Type
REMARK                         _______ _______ _______ _____ _____    ______ ____
ROOT
ATOM      1  C   UNL     1      24.226  -0.330  53.976  0.00  0.00    +0.000 A 
ATOM      2  C   UNL     1      23.978  -1.171  55.075  0.00  0.00    +0.000 A 
ATOM      3  C   UNL     1      22.697  -1.649  55.345  0.00  0.00    +0.000 A 
ATOM      4  C   UNL     1      21.639  -1.287  54.511  0.00  0.00    +0.000 A 
ATOM      5  C   UNL     1      21.854  -0.437  53.417  0.00  0.00    +0.000 A 
ATOM      6  C   UNL     1      20.755  -0.023  52.521  0.00  0.00    +0.000 A 
ATOM      7  O   UNL     1      19.593  -0.393  52.614  0.00  0.00    +0.000 OA
ATOM      8  C   UNL     1      21.103   0.917  51.447  0.00  0.00    +0.000 A 
ATOM      9  C   UNL     1      22.370   1.319  51.296  0.00  0.00    +0.000 A 
ATOM     10  O   UNL     1      23.417   0.879  52.088  0.00  0.00    +0.000 OA
ATOM     11  C   UNL     1      23.144   0.042  53.153  0.00  0.00    +0.000 A 
ENDROOT
BRANCH   1  16
ATOM     12  C   UNL     1      29.460   1.079  54.240  0.00  0.00    +0.000 C 
ATOM     13  N   UNL     1      28.343   1.096  53.308  0.00  0.00    +0.000 N 
ATOM     14  C   UNL     1      27.928  -0.239  52.893  0.00  0.00    +0.000 C 
ATOM     15  C   UNL     1      26.526  -0.660  53.189  0.00  0.00    +0.000 C 
ATOM     16  C   UNL     1      25.590   0.157  53.689  0.00  0.00    +0.000 C 
ATOM     17  C   UNL     1      25.878   1.591  53.989  0.00  0.00    +0.000 C 
ATOM     18  C   UNL     1      27.307   2.062  53.673  0.00  0.00    +0.000 C 
ATOM     19  H   UNL     1      28.670   1.484  52.422  0.00  0.00    +0.000 HD
ENDBRANCH   1  16
BRANCH   9  20
ATOM     20  C   UNL     1      22.752   2.291  50.247  0.00  0.00    +0.000 A 
ATOM     21  C   UNL     1      21.854   2.654  49.225  0.00  0.00    +0.000 A 
ATOM     22  C   UNL     1      22.200   3.597  48.256  0.00  0.00    +0.000 A 
ATOM     23  C   UNL     1      23.453   4.203  48.296  0.00  0.00    +0.000 A 
ATOM     24  C   UNL     1      24.354   3.851  49.298  0.00  0.00    +0.000 A 
ATOM     25 CL   UNL     1      25.904   4.600  49.346  0.00  0.00    +0.000 Cl
ATOM     26  C   UNL     1      24.014   2.905  50.268  0.00  0.00    +0.000 A 
ENDBRANCH   9  20
BRANCH   2  27
ATOM     27  O   UNL     1      25.012  -1.526  55.900  0.00  0.00    +0.000 OA
ATOM     28  H   UNL     1      25.543  -2.270  55.694  0.00  0.00    +0.000 HD
ENDBRANCH   2  27
BRANCH   4  29
ATOM     29  O   UNL     1      20.390  -1.763  54.786  0.00  0.00    +0.000 OA
ATOM     30  H   UNL     1      19.988  -1.575  55.611  0.00  0.00    +0.000 HD
ENDBRANCH   4  29
TORSDOF 4
ENDMDL
MODEL 3
REMARK VINA RESULT:    -9.600      2.859      5.552
REMARK INTER + INTRA:         -12.028
REMARK INTER:                 -11.167
REMARK INTRA:                  -0.861
REMARK UNBOUND:                -0.745
REMARK  Name = 
REMARK  5 active torsions:
REMARK  status: ('A' for Active; 'I' for Inactive)
REMARK    1  A    between atoms: C_1  and  N_2
REMARK    2  A    between atoms: C_5  and  C_6
REMARK    3  A    between atoms: C_7  and  O_8
REMARK    4  A    between atoms: C_10  and  O_11
REMARK    5  A    between atoms: C_16  and  C_17
REMARK                            x       y       z     vdW  Elec       q    Type
REMARK                         _______ _______ _______ _____ _____    ______ ____
ROOT
ATOM      1  C   UNL     1      22.101   1.495  52.300  0.00  0.00    +0.000 A 
ATOM      2  C   UNL     1      20.727   1.196  52.270  0.00  0.00    +0.000 A 
ATOM      3  C   UNL     1      20.190   0.183  53.063  0.00  0.00    +0.000 A 
ATOM      4  C   UNL     1      21.029  -0.549  53.902  0.00  0.00    +0.000 A 
ATOM      5  C   UNL     1      22.405  -0.283  53.941  0.00  0.00    +0.000 A 
ATOM      6  C   UNL     1      23.324  -1.047  54.809  0.00  0.00    +0.000 A 
ATOM      7  O   UNL     1      22.990  -1.934  55.582  0.00  0.00    +0.000 OA
ATOM      8  C   UNL     1      24.751  -0.709  54.713  0.00  0.00    +0.000 A 
ATOM      9  C   UNL     1      25.150   0.277  53.901  0.00  0.00    +0.000 A 
ATOM     10  O   UNL     1      24.285   1.044  53.140  0.00  0.00    +0.000 OA
ATOM     11  C   UNL     1      22.938   0.734  53.140  0.00  0.00    +0.000 A 
ENDROOT
BRANCH   1  16
ATOM     12  C   UNL     1      25.332   5.097  49.844  0.00  0.00    +0.000 C 
ATOM     13  N   UNL     1      23.931   4.713  49.907  0.00  0.00    +0.000 N 
ATOM     14  C   UNL     1      23.675   3.396  49.335  0.00  0.00    +0.000 C 
ATOM     15  C   UNL     1      23.086   2.349  50.222  0.00  0.00    +0.000 C 
ATOM     16  C   UNL     1      22.656   2.582  51.469  0.00  0.00    +0.000 C 
ATOM     17  C   UNL     1      22.723   3.941  52.083  0.00  0.00    +0.000 C 
ATOM     18  C   UNL     1      23.303   5.048  51.186  0.00  0.00    +0.000 C 
ATOM     19  H   UNL     1      23.405   5.311  49.269  0.00  0.00    +0.000 HD
ENDBRANCH   1  16
BRANCH   9  20
ATOM     20  C   UNL     1      26.582   0.623  53.753  0.00  0.00    +0.000 A 
ATOM     21  C   UNL     1      27.000   1.961  53.627  0.00  0.00    +0.000 A 
ATOM     22  C   UNL     1      28.353   2.291  53.522  0.00  0.00    +0.000 A 
ATOM     23  C   UNL     1      29.315   1.285  53.550  0.00  0.00    +0.000 A 
ATOM     24  C   UNL     1      28.916  -0.044  53.670  0.00  0.00    +0.000 A 
ATOM     25 CL   UNL     1      30.107  -1.287  53.704  0.00  0.00    +0.000 Cl
ATOM     26  C   UNL     1      27.564  -0.379  53.771  0.00  0.00    +0.000 A 
ENDBRANCH   9  20
BRANCH   2  27
ATOM     27  O   UNL     1      19.899   1.909  51.443  0.00  0.00    +0.000 OA
ATOM     28  H   UNL     1      18.974   1.755  51.460  0.00  0.00    +0.000 HD
ENDBRANCH   2  27
BRANCH   4  29
ATOM     29  O   UNL     1      20.490  -1.537  54.674  0.00  0.00    +0.000 OA
ATOM     30  H   UNL     1      20.524  -1.473  55.609  0.00  0.00    +0.000 HD
ENDBRANCH   4  29
TORSDOF 4
ENDMDL
MODEL 4
REMARK VINA RESULT:    -9.226      2.498      5.017
REMARK INTER + INTRA:         -11.589
REMARK INTER:                 -10.682
REMARK INTRA:                  -0.907
REMARK UNBOUND:                -0.745
REMARK  Name = 
REMARK  5 active torsions:
REMARK  status: ('A' for Active; 'I' for Inactive)
REMARK    1  A    between atoms: C_1  and  N_2
REMARK    2  A    between atoms: C_5  and  C_6
REMARK    3  A    between atoms: C_7  and  O_8
REMARK    4  A    between atoms: C_10  and  O_11
REMARK    5  A    between atoms: C_16  and  C_17
REMARK                            x       y       z     vdW  Elec       q    Type
REMARK                         _______ _______ _______ _____ _____    ______ ____
ROOT
ATOM      1  C   UNL     1      22.134   0.126  53.396  0.00  0.00    +0.000 A 
ATOM      2  C   UNL     1      21.773  -0.886  54.302  0.00  0.00    +0.000 A 
ATOM      3  C   UNL     1      22.720  -1.481  55.136  0.00  0.00    +0.000 A 
ATOM      4  C   UNL     1      24.049  -1.066  55.070  0.00  0.00    +0.000 A 
ATOM      5  C   UNL     1      24.439  -0.069  54.165  0.00  0.00    +0.000 A 
ATOM      6  C   UNL     1      25.841   0.386  54.061  0.00  0.00    +0.000 A 
ATOM      7  O   UNL     1      26.766  -0.017  54.751  0.00  0.00    +0.000 OA
ATOM      8  C   UNL     1      26.129   1.394  53.032  0.00  0.00    +0.000 A 
ATOM      9  C   UNL     1      25.136   1.882  52.279  0.00  0.00    +0.000 A 
ATOM     10  O   UNL     1      23.810   1.512  52.421  0.00  0.00    +0.000 OA
ATOM     11  C   UNL     1      23.484   0.522  53.329  0.00  0.00    +0.000 A 
ENDROOT
BRANCH   1  16
ATOM     12  C   UNL     1      17.556   1.579  50.868  0.00  0.00    +0.000 C 
ATOM     13  N   UNL     1      18.977   1.893  50.877  0.00  0.00    +0.000 N 
ATOM     14  C   UNL     1      19.409   2.537  52.112  0.00  0.00    +0.000 C 
ATOM     15  C   UNL     1      20.458   1.856  52.928  0.00  0.00    +0.000 C 
ATOM     16  C   UNL     1      21.120   0.761  52.531  0.00  0.00    +0.000 C 
ATOM     17  C   UNL     1      20.863   0.126  51.205  0.00  0.00    +0.000 C 
ATOM     18  C   UNL     1      19.804   0.817  50.329  0.00  0.00    +0.000 C 
ATOM     19  H   UNL     1      19.146   2.635  50.198  0.00  0.00    +0.000 HD
ENDBRANCH   1  16
BRANCH   9  20
ATOM     20  C   UNL     1      25.393   2.873  51.210  0.00  0.00    +0.000 A 
ATOM     21  C   UNL     1      26.606   2.880  50.496  0.00  0.00    +0.000 A 
ATOM     22  C   UNL     1      26.835   3.792  49.464  0.00  0.00    +0.000 A 
ATOM     23  C   UNL     1      25.848   4.712  49.122  0.00  0.00    +0.000 A 
ATOM     24  C   UNL     1      24.644   4.720  49.821  0.00  0.00    +0.000 A 
ATOM     25 CL   UNL     1      23.424   5.859  49.398  0.00  0.00    +0.000 Cl
ATOM     26  C   UNL     1      24.412   3.813  50.857  0.00  0.00    +0.000 A 
ENDBRANCH   9  20
BRANCH   2  27
ATOM     27  O   UNL     1      20.469  -1.302  54.368  0.00  0.00    +0.000 OA
ATOM     28  H   UNL     1      19.839  -0.796  54.842  0.00  0.00    +0.000 HD
ENDBRANCH   2  27
BRANCH   4  29
ATOM     29  O   UNL     1      24.965  -1.655  55.893  0.00  0.00    +0.000 OA
ATOM     30  H   UNL     1      24.915  -2.575  56.067  0.00  0.00    +0.000 HD
ENDBRANCH   4  29
TORSDOF 4
ENDMDL
MODEL 5
REMARK VINA RESULT:    -9.163      2.924      5.688
REMARK INTER + INTRA:         -11.514
REMARK INTER:                 -10.674
REMARK INTRA:                  -0.840
REMARK UNBOUND:                -0.745
REMARK  Name = 
REMARK  5 active torsions:
REMARK  status: ('A' for Active; 'I' for Inactive)
REMARK    1  A    between atoms: C_1  and  N_2
REMARK    2  A    between atoms: C_5  and  C_6
REMARK    3  A    between atoms: C_7  and  O_8
REMARK    4  A    between atoms: C_10  and  O_11
REMARK    5  A    between atoms: C_16  and  C_17
REMARK                            x       y       z     vdW  Elec       q    Type
REMARK                         _______ _______ _______ _____ _____    ______ ____
ROOT
ATOM      1  C   UNL     1      25.174   2.425  51.341  0.00  0.00    +0.000 A 
ATOM      2  C   UNL     1      25.919   3.338  50.574  0.00  0.00    +0.000 A 
ATOM      3  C   UNL     1      25.305   4.161  49.631  0.00  0.00    +0.000 A 
ATOM      4  C   UNL     1      23.925   4.078  49.443  0.00  0.00    +0.000 A 
ATOM      5  C   UNL     1      23.160   3.165  50.182  0.00  0.00    +0.000 A 
ATOM      6  C   UNL     1      21.699   3.042  49.998  0.00  0.00    +0.000 A 
ATOM      7  O   UNL     1      21.024   3.721  49.238  0.00  0.00    +0.000 OA
ATOM      8  C   UNL     1      21.023   2.007  50.793  0.00  0.00    +0.000 A 
ATOM      9  C   UNL     1      21.724   1.265  51.658  0.00  0.00    +0.000 A 
ATOM     10  O   UNL     1      23.080   1.425  51.886  0.00  0.00    +0.000 OA
ATOM     11  C   UNL     1      23.784   2.340  51.125  0.00  0.00    +0.000 A 
ENDROOT
BRANCH   1  16
ATOM     12  C   UNL     1      28.706   0.046  54.705  0.00  0.00    +0.000 C 
ATOM     13  N   UNL     1      27.311  -0.044  54.302  0.00  0.00    +0.000 N 
ATOM     14  C   UNL     1      26.524   1.114  54.709  0.00  0.00    +0.000 C 
ATOM     15  C   UNL     1      25.861   1.921  53.641  0.00  0.00    +0.000 C 
ATOM     16  C   UNL     1      25.833   1.571  52.349  0.00  0.00    +0.000 C 
ATOM     17  C   UNL     1      26.468   0.311  51.862  0.00  0.00    +0.000 C 
ATOM     18  C   UNL     1      27.141  -0.555  52.941  0.00  0.00    +0.000 C 
ATOM     19  H   UNL     1      26.866  -0.784  54.846  0.00  0.00    +0.000 HD
ENDBRANCH   1  16
BRANCH   9  20
ATOM     20  C   UNL     1      21.084   0.190  52.449  0.00  0.00    +0.000 A 
ATOM     21  C   UNL     1      21.848  -0.685  53.244  0.00  0.00    +0.000 A 
ATOM     22  C   UNL     1      21.242  -1.676  54.019  0.00  0.00    +0.000 A 
ATOM     23  C   UNL     1      19.856  -1.805  54.018  0.00  0.00    +0.000 A 
ATOM     24  C   UNL     1      19.087  -0.949  53.234  0.00  0.00    +0.000 A 
ATOM     25 CL   UNL     1      17.373  -1.109  53.233  0.00  0.00    +0.000 Cl
ATOM     26  C   UNL     1      19.689   0.042  52.454  0.00  0.00    +0.000 A 
ENDBRANCH   9  20
BRANCH   2  27
ATOM     27  O   UNL     1      27.275   3.421  50.751  0.00  0.00    +0.000 OA
ATOM     28  H   UNL     1      27.788   2.639  50.821  0.00  0.00    +0.000 HD
ENDBRANCH   2  27
BRANCH   4  29
ATOM     29  O   UNL     1      23.336   4.890  48.517  0.00  0.00    +0.000 OA
ATOM     30  H   UNL     1      22.940   4.519  47.753  0.00  0.00    +0.000 HD
ENDBRANCH   4  29
TORSDOF 4
ENDMDL
MODEL 6
REMARK VINA RESULT:    -9.047      2.633      5.194
REMARK INTER + INTRA:         -11.379
REMARK INTER:                 -10.520
REMARK INTRA:                  -0.858
REMARK UNBOUND:                -0.745
REMARK  Name = 
REMARK  5 active torsions:
REMARK  status: ('A' for Active; 'I' for Inactive)
REMARK    1  A    between atoms: C_1  and  N_2
REMARK    2  A    between atoms: C_5  and  C_6
REMARK    3  A    between atoms: C_7  and  O_8
REMARK    4  A    between atoms: C_10  and  O_11
REMARK    5  A    between atoms: C_16  and  C_17
REMARK                            x       y       z     vdW  Elec       q    Type
REMARK                         _______ _______ _______ _____ _____    ______ ____
ROOT
ATOM      1  C   UNL     1      22.243   0.450  53.096  0.00  0.00    +0.000 A 
ATOM      2  C   UNL     1      21.979  -0.590  54.004  0.00  0.00    +0.000 A 
ATOM      3  C   UNL     1      23.000  -1.172  54.754  0.00  0.00    +0.000 A 
ATOM      4  C   UNL     1      24.309  -0.714  54.602  0.00  0.00    +0.000 A 
ATOM      5  C   UNL     1      24.603   0.311  53.692  0.00  0.00    +0.000 A 
ATOM      6  C   UNL     1      25.980   0.811  53.496  0.00  0.00    +0.000 A 
ATOM      7  O   UNL     1      26.964   0.423  54.110  0.00  0.00    +0.000 OA
ATOM      8  C   UNL     1      26.162   1.847  52.471  0.00  0.00    +0.000 A 
ATOM      9  C   UNL     1      25.104   2.317  51.801  0.00  0.00    +0.000 A 
ATOM     10  O   UNL     1      23.802   1.904  52.031  0.00  0.00    +0.000 OA
ATOM     11  C   UNL     1      23.573   0.888  52.940  0.00  0.00    +0.000 A 
ENDROOT
BRANCH   1  16
ATOM     12  C   UNL     1      17.445   1.854  50.982  0.00  0.00    +0.000 C 
ATOM     13  N   UNL     1      18.859   2.171  50.855  0.00  0.00    +0.000 N 
ATOM     14  C   UNL     1      19.402   2.835  52.034  0.00  0.00    +0.000 C 
ATOM     15  C   UNL     1      20.525   2.169  52.759  0.00  0.00    +0.000 C 
ATOM     16  C   UNL     1      21.151   1.069  52.319  0.00  0.00    +0.000 C 
ATOM     17  C   UNL     1      20.774   0.413  51.032  0.00  0.00    +0.000 C 
ATOM     18  C   UNL     1      19.636   1.089  50.249  0.00  0.00    +0.000 C 
ATOM     19  H   UNL     1      18.962   2.904  50.152  0.00  0.00    +0.000 HD
ENDBRANCH   1  16
BRANCH   9  20
ATOM     20  C   UNL     1      25.253   3.336  50.738  0.00  0.00    +0.000 A 
ATOM     21  C   UNL     1      24.155   4.100  50.300  0.00  0.00    +0.000 A 
ATOM     22  C   UNL     1      24.302   5.086  49.321  0.00  0.00    +0.000 A 
ATOM     23  C   UNL     1      25.556   5.330  48.768  0.00  0.00    +0.000 A 
ATOM     24  C   UNL     1      26.651   4.580  49.188  0.00  0.00    +0.000 A 
ATOM     25 CL   UNL     1      28.201   4.882  48.503  0.00  0.00    +0.000 Cl
ATOM     26  C   UNL     1      26.508   3.590  50.164  0.00  0.00    +0.000 A 
ENDBRANCH   9  20
BRANCH   2  27
ATOM     27  O   UNL     1      20.696  -1.047  54.154  0.00  0.00    +0.000 OA
ATOM     28  H   UNL     1      20.513  -1.740  54.758  0.00  0.00    +0.000 HD
ENDBRANCH   2  27
BRANCH   4  29
ATOM     29  O   UNL     1      25.299  -1.291  55.343  0.00  0.00    +0.000 OA
ATOM     30  H   UNL     1      25.607  -2.149  55.128  0.00  0.00    +0.000 HD
ENDBRANCH   4  29
TORSDOF 4
ENDMDL
MODEL 7
REMARK VINA RESULT:    -9.032      1.382      2.143
REMARK INTER + INTRA:         -11.361
REMARK INTER:                 -10.745
REMARK INTRA:                  -0.616
REMARK UNBOUND:                -0.745
REMARK  Name = 
REMARK  5 active torsions:
REMARK  status: ('A' for Active; 'I' for Inactive)
REMARK    1  A    between atoms: C_1  and  N_2
REMARK    2  A    between atoms: C_5  and  C_6
REMARK    3  A    between atoms: C_7  and  O_8
REMARK    4  A    between atoms: C_10  and  O_11
REMARK    5  A    between atoms: C_16  and  C_17
REMARK                            x       y       z     vdW  Elec       q    Type
REMARK                         _______ _______ _______ _____ _____    ______ ____
ROOT
ATOM      1  C   UNL     1      24.097   0.925  52.612  0.00  0.00    +0.000 A 
ATOM      2  C   UNL     1      23.161   0.142  53.310  0.00  0.00    +0.000 A 
ATOM      3  C   UNL     1      21.793   0.263  53.068  0.00  0.00    +0.000 A 
ATOM      4  C   UNL     1      21.343   1.178  52.116  0.00  0.00    +0.000 A 
ATOM      5  C   UNL     1      22.253   1.982  51.417  0.00  0.00    +0.000 A 
ATOM      6  C   UNL     1      21.810   2.970  50.411  0.00  0.00    +0.000 A 
ATOM      7  O   UNL     1      20.651   3.158  50.070  0.00  0.00    +0.000 OA
ATOM      8  C   UNL     1      22.859   3.791  49.791  0.00  0.00    +0.000 A 
ATOM      9  C   UNL     1      24.142   3.593  50.117  0.00  0.00    +0.000 A 
ATOM     10  O   UNL     1      24.569   2.620  51.004  0.00  0.00    +0.000 OA
ATOM     11  C   UNL     1      23.625   1.858  51.667  0.00  0.00    +0.000 A 
ENDROOT
BRANCH   1  16
ATOM     12  C   UNL     1      28.970  -0.198  54.720  0.00  0.00    +0.000 C 
ATOM     13  N   UNL     1      28.376   0.416  53.543  0.00  0.00    +0.000 N 
ATOM     14  C   UNL     1      27.666  -0.538  52.700  0.00  0.00    +0.000 C 
ATOM     15  C   UNL     1      26.208  -0.315  52.462  0.00  0.00    +0.000 C 
ATOM     16  C   UNL     1      25.544   0.776  52.864  0.00  0.00    +0.000 C 
ATOM     17  C   UNL     1      26.226   1.888  53.590  0.00  0.00    +0.000 C 
ATOM     18  C   UNL     1      27.734   1.699  53.830  0.00  0.00    +0.000 C 
ATOM     19  H   UNL     1      29.128   0.709  52.919  0.00  0.00    +0.000 HD
ENDBRANCH   1  16
BRANCH   9  20
ATOM     20  C   UNL     1      25.222   4.424  49.539  0.00  0.00    +0.000 A 
ATOM     21  C   UNL     1      26.529   3.922  49.391  0.00  0.00    +0.000 A 
ATOM     22  C   UNL     1      27.541   4.692  48.814  0.00  0.00    +0.000 A 
ATOM     23  C   UNL     1      27.259   5.980  48.365  0.00  0.00    +0.000 A 
ATOM     24  C   UNL     1      25.972   6.492  48.508  0.00  0.00    +0.000 A 
ATOM     25 CL   UNL     1      25.626   8.085  47.954  0.00  0.00    +0.000 Cl
ATOM     26  C   UNL     1      24.958   5.726  49.088  0.00  0.00    +0.000 A 
ENDBRANCH   9  20
BRANCH   2  27
ATOM     27  O   UNL     1      23.597  -0.754  54.250  0.00  0.00    +0.000 OA
ATOM     28  H   UNL     1      23.343  -0.655  55.147  0.00  0.00    +0.000 HD
ENDBRANCH   2  27
BRANCH   4  29
ATOM     29  O   UNL     1      20.002   1.286  51.888  0.00  0.00    +0.000 OA
ATOM     30  H   UNL     1      19.393   0.876  52.471  0.00  0.00    +0.000 HD
ENDBRANCH   4  29
TORSDOF 4
ENDMDL
MODEL 8
REMARK VINA RESULT:    -9.001      3.290      5.888
REMARK INTER + INTRA:         -11.324
REMARK INTER:                 -10.466
REMARK INTRA:                  -0.858
REMARK UNBOUND:                -0.745
REMARK  Name = 
REMARK  5 active torsions:
REMARK  status: ('A' for Active; 'I' for Inactive)
REMARK    1  A    between atoms: C_1  and  N_2
REMARK    2  A    between atoms: C_5  and  C_6
REMARK    3  A    between atoms: C_7  and  O_8
REMARK    4  A    between atoms: C_10  and  O_11
REMARK    5  A    between atoms: C_16  and  C_17
REMARK                            x       y       z     vdW  Elec       q    Type
REMARK                         _______ _______ _______ _____ _____    ______ ____
ROOT
ATOM      1  C   UNL     1      20.691   0.972  51.073  0.00  0.00    +0.000 A 
ATOM      2  C   UNL     1      19.327   0.636  51.026  0.00  0.00    +0.000 A 
ATOM      3  C   UNL     1      18.752  -0.192  51.989  0.00  0.00    +0.000 A 
ATOM      4  C   UNL     1      19.544  -0.699  53.019  0.00  0.00    +0.000 A 
ATOM      5  C   UNL     1      20.911  -0.394  53.082  0.00  0.00    +0.000 A 
ATOM      6  C   UNL     1      21.782  -0.923  54.152  0.00  0.00    +0.000 A 
ATOM      7  O   UNL     1      21.409  -1.627  55.080  0.00  0.00    +0.000 OA
ATOM      8  C   UNL     1      23.207  -0.576  54.070  0.00  0.00    +0.000 A 
ATOM      9  C   UNL     1      23.645   0.218  53.087  0.00  0.00    +0.000 A 
ATOM     10  O   UNL     1      22.822   0.776  52.123  0.00  0.00    +0.000 OA
ATOM     11  C   UNL     1      21.482   0.437  52.110  0.00  0.00    +0.000 A 
ENDROOT
BRANCH   1  16
ATOM     12  C   UNL     1      21.561   4.328  46.898  0.00  0.00    +0.000 C 
ATOM     13  N   UNL     1      22.292   3.642  47.953  0.00  0.00    +0.000 N 
ATOM     14  C   UNL     1      21.972   4.141  49.285  0.00  0.00    +0.000 C 
ATOM     15  C   UNL     1      21.399   3.181  50.275  0.00  0.00    +0.000 C 
ATOM     16  C   UNL     1      21.285   1.864  50.058  0.00  0.00    +0.000 C 
ATOM     17  C   UNL     1      21.743   1.234  48.784  0.00  0.00    +0.000 C 
ATOM     18  C   UNL     1      22.360   2.194  47.752  0.00  0.00    +0.000 C 
ATOM     19  H   UNL     1      23.277   3.896  47.878  0.00  0.00    +0.000 HD
ENDBRANCH   1  16
BRANCH   9  20
ATOM     20  C   UNL     1      25.079   0.562  52.953  0.00  0.00    +0.000 A 
ATOM     21  C   UNL     1      25.547   1.331  51.871  0.00  0.00    +0.000 A 
ATOM     22  C   UNL     1      26.893   1.685  51.762  0.00  0.00    +0.000 A 
ATOM     23  C   UNL     1      27.796   1.282  52.742  0.00  0.00    +0.000 A 
ATOM     24  C   UNL     1      27.349   0.517  53.816  0.00  0.00    +0.000 A 
ATOM     25 CL   UNL     1      28.467   0.018  55.027  0.00  0.00    +0.000 Cl
ATOM     26  C   UNL     1      26.004   0.157  53.927  0.00  0.00    +0.000 A 
ENDBRANCH   9  20
BRANCH   2  27
ATOM     27  O   UNL     1      18.545   1.127  50.014  0.00  0.00    +0.000 OA
ATOM     28  H   UNL     1      18.022   0.543  49.500  0.00  0.00    +0.000 HD
ENDBRANCH   2  27
BRANCH   4  29
ATOM     29  O   UNL     1      18.969  -1.508  53.956  0.00  0.00    +0.000 OA
ATOM     30  H   UNL     1      18.993  -1.267  54.862  0.00  0.00    +0.000 HD
ENDBRANCH   4  29
TORSDOF 4
ENDMDL
MODEL 9
REMARK VINA RESULT:    -8.906      3.253      6.990
REMARK INTER + INTRA:         -11.212
REMARK INTER:                 -10.299
REMARK INTRA:                  -0.913
REMARK UNBOUND:                -0.745
REMARK  Name = 
REMARK  5 active torsions:
REMARK  status: ('A' for Active; 'I' for Inactive)
REMARK    1  A    between atoms: C_1  and  N_2
REMARK    2  A    between atoms: C_5  and  C_6
REMARK    3  A    between atoms: C_7  and  O_8
REMARK    4  A    between atoms: C_10  and  O_11
REMARK    5  A    between atoms: C_16  and  C_17
REMARK                            x       y       z     vdW  Elec       q    Type
REMARK                         _______ _______ _______ _____ _____    ______ ____
ROOT
ATOM      1  C   UNL     1      24.785   2.643  51.018  0.00  0.00    +0.000 A 
ATOM      2  C   UNL     1      26.137   3.025  51.060  0.00  0.00    +0.000 A 
ATOM      3  C   UNL     1      27.067   2.314  51.817  0.00  0.00    +0.000 A 
ATOM      4  C   UNL     1      26.649   1.202  52.548  0.00  0.00    +0.000 A 
ATOM      5  C   UNL     1      25.305   0.807  52.538  0.00  0.00    +0.000 A 
ATOM      6  C   UNL     1      24.826  -0.357  53.310  0.00  0.00    +0.000 A 
ATOM      7  O   UNL     1      25.531  -1.093  53.986  0.00  0.00    +0.000 OA
ATOM      8  C   UNL     1      23.383  -0.630  53.260  0.00  0.00    +0.000 A 
ATOM      9  C   UNL     1      22.584   0.135  52.507  0.00  0.00    +0.000 A 
ATOM     10  O   UNL     1      23.038   1.183  51.724  0.00  0.00    +0.000 OA
ATOM     11  C   UNL     1      24.376   1.528  51.777  0.00  0.00    +0.000 A 
ENDROOT
BRANCH   1  16
ATOM     12  C   UNL     1      22.337   6.138  47.665  0.00  0.00    +0.000 C 
ATOM     13  N   UNL     1      22.023   5.010  48.528  0.00  0.00    +0.000 N 
ATOM     14  C   UNL     1      22.585   3.752  48.050  0.00  0.00    +0.000 C 
ATOM     15  C   UNL     1      23.542   3.029  48.939  0.00  0.00    +0.000 C 
ATOM     16  C   UNL     1      23.813   3.393  50.199  0.00  0.00    +0.000 C 
ATOM     17  C   UNL     1      23.156   4.574  50.834  0.00  0.00    +0.000 C 
ATOM     18  C   UNL     1      22.146   5.328  49.952  0.00  0.00    +0.000 C 
ATOM     19  H   UNL     1      21.023   4.819  48.457  0.00  0.00    +0.000 HD
ENDBRANCH   1  16
BRANCH   9  20
ATOM     20  C   UNL     1      21.122  -0.088  52.459  0.00  0.00    +0.000 A 
ATOM     21  C   UNL     1      20.447  -0.735  53.510  0.00  0.00    +0.000 A 
ATOM     22  C   UNL     1      19.062  -0.915  53.482  0.00  0.00    +0.000 A 
ATOM     23  C   UNL     1      18.325  -0.440  52.400  0.00  0.00    +0.000 A 
ATOM     24  C   UNL     1      18.979   0.199  51.350  0.00  0.00    +0.000 A 
ATOM     25 CL   UNL     1      18.067   0.784  50.013  0.00  0.00    +0.000 Cl
ATOM     26  C   UNL     1      20.364   0.377  51.373  0.00  0.00    +0.000 A 
ENDBRANCH   9  20
BRANCH   2  27
ATOM     27  O   UNL     1      26.552   4.119  50.347  0.00  0.00    +0.000 OA
ATOM     28  H   UNL     1      27.428   4.439  50.447  0.00  0.00    +0.000 HD
ENDBRANCH   2  27
BRANCH   4  29
ATOM     29  O   UNL     1      27.570   0.514  53.285  0.00  0.00    +0.000 OA
ATOM     30  H   UNL     1      28.483   0.695  53.181  0.00  0.00    +0.000 HD
ENDBRANCH   4  29
TORSDOF 4
ENDMDL
