MODEL 1
REMARK VINA RESULT:    -7.548      0.000      0.000
REMARK INTER + INTRA:          -9.642
REMARK INTER:                  -9.314
REMARK INTRA:                  -0.328
REMARK UNBOUND:                -0.328
REMARK  Name = 
REMARK  6 active torsions:
REMARK  status: ('A' for Active; 'I' for Inactive)
REMARK    1  A    between atoms: C_1  and  N_2
REMARK    2  A    between atoms: N_2  and  C_3
REMARK    3  A    between atoms: N_2  and  C_4
REMARK    4  A    between atoms: C_9  and  S_10
REMARK    5  A    between atoms: S_10  and  N_13
REMARK    6  A    between atoms: N_13  and  C_14
REMARK                            x       y       z     vdW  Elec       q    Type
REMARK                         _______ _______ _______ _____ _____    ______ ____
ROOT
ATOM      1  C   UNL     1      25.447  -0.021  53.159  0.00  0.00    +0.000 A 
ATOM      2  C   UNL     1      25.665   0.922  52.133  0.00  0.00    +0.000 A 
ATOM      3  C   UNL     1      24.645   1.721  51.639  0.00  0.00    +0.000 A 
ATOM      4  C   UNL     1      23.343   1.507  52.060  0.00  0.00    +0.000 A 
ATOM      5  C   UNL     1      23.009   0.474  52.959  0.00  0.00    +0.000 A 
ATOM      6  C   UNL     1      21.667   0.150  53.303  0.00  0.00    +0.000 A 
ATOM      7  C   UNL     1      21.383  -0.704  54.376  0.00  0.00    +0.000 A 
ATOM      8  C   UNL     1      22.421  -1.275  55.087  0.00  0.00    +0.000 A 
ATOM      9  C   UNL     1      23.743  -1.057  54.688  0.00  0.00    +0.000 A 
ATOM     10  C   UNL     1      24.088  -0.228  53.592  0.00  0.00    +0.000 A 
ENDROOT
BRANCH   1  12
ATOM     11  C   UNL     1      27.308   0.116  54.759  0.00  0.00    +0.000 C 
ATOM     12  N   UNL     1      26.561  -0.662  53.763  0.00  0.00    +0.000 N 
ATOM     13  C   UNL     1      27.407  -1.488  52.894  0.00  0.00    +0.000 C 
ENDBRANCH   1  12
BRANCH   6  14
ATOM     14  S   UNL     1      20.256   0.791  52.396  0.00  0.00    +0.000 S 
ATOM     15  O   UNL     1      20.594   0.801  50.984  0.00  0.00    +0.000 OA
ATOM     16  O   UNL     1      19.088   0.083  52.864  0.00  0.00    +0.000 OA
BRANCH  14  17
ATOM     17  N   UNL     1      20.090   2.405  52.874  0.00  0.00    +0.000 N 
ATOM     18  H   UNL     1      20.152   2.671  53.820  0.00  0.00    +0.000 HD
BRANCH  17  19
ATOM     19  C   UNL     1      19.859   3.352  51.858  0.00  0.00    +0.000 A 
ATOM     20  C   UNL     1      18.629   3.553  51.243  0.00  0.00    +0.000 A 
ATOM     21  N   UNL     1      18.428   4.525  50.315  0.00  0.00    +0.000 NA
ATOM     22  C   UNL     1      19.514   5.272  50.017  0.00  0.00    +0.000 A 
ATOM     23 BR   UNL     1      19.345   6.642  48.722  0.00  0.00    +0.000 Br
ATOM     24  C   UNL     1      20.741   5.059  50.635  0.00  0.00    +0.000 A 
ATOM     25  N   UNL     1      20.942   4.096  51.576  0.00  0.00    +0.000 NA
ENDBRANCH  17  19
ENDBRANCH  14  17
ENDBRANCH   6  14
TORSDOF 4
ENDMDL
MODEL 2
REMARK VINA RESULT:    -7.518      5.001      8.065
REMARK INTER + INTRA:          -9.605
REMARK INTER:                  -9.456
REMARK INTRA:                  -0.148
REMARK UNBOUND:                -0.328
REMARK  Name = 
REMARK  6 active torsions:
REMARK  status: ('A' for Active; 'I' for Inactive)
REMARK    1  A    between atoms: C_1  and  N_2
REMARK    2  A    between atoms: N_2  and  C_3
REMARK    3  A    between atoms: N_2  and  C_4
REMARK    4  A    between atoms: C_9  and  S_10
REMARK    5  A    between atoms: S_10  and  N_13
REMARK    6  A    between atoms: N_13  and  C_14
REMARK                            x       y       z     vdW  Elec       q    Type
REMARK                         _______ _______ _______ _____ _____    ______ ____
ROOT
ATOM      1  C   UNL     1      26.311   6.449  49.136  0.00  0.00    +0.000 A 
ATOM      2  C   UNL     1      27.277   5.487  48.774  0.00  0.00    +0.000 A 
ATOM      3  C   UNL     1      27.137   4.147  49.098  0.00  0.00    +0.000 A 
ATOM      4  C   UNL     1      26.093   3.744  49.913  0.00  0.00    +0.000 A 
ATOM      5  C   UNL     1      25.174   4.665  50.459  0.00  0.00    +0.000 A 
ATOM      6  C   UNL     1      24.175   4.296  51.403  0.00  0.00    +0.000 A 
ATOM      7  C   UNL     1      23.133   5.171  51.730  0.00  0.00    +0.000 A 
ATOM      8  C   UNL     1      23.095   6.430  51.160  0.00  0.00    +0.000 A 
ATOM      9  C   UNL     1      24.131   6.847  50.320  0.00  0.00    +0.000 A 
ATOM     10  C   UNL     1      25.226   6.015  49.979  0.00  0.00    +0.000 A 
ENDROOT
BRANCH   1  12
ATOM     11  C   UNL     1      26.106   7.919  47.175  0.00  0.00    +0.000 C 
ATOM     12  N   UNL     1      26.405   7.763  48.604  0.00  0.00    +0.000 N 
ATOM     13  C   UNL     1      27.518   8.595  49.075  0.00  0.00    +0.000 C 
ENDBRANCH   1  12
BRANCH   6  14
ATOM     14  S   UNL     1      24.180   2.709  52.244  0.00  0.00    +0.000 S 
ATOM     15  O   UNL     1      22.880   2.520  52.861  0.00  0.00    +0.000 OA
ATOM     16  O   UNL     1      24.698   1.734  51.314  0.00  0.00    +0.000 OA
BRANCH  14  17
ATOM     17  N   UNL     1      25.305   2.852  53.499  0.00  0.00    +0.000 N 
ATOM     18  H   UNL     1      25.205   3.530  54.206  0.00  0.00    +0.000 HD
BRANCH  17  19
ATOM     19  C   UNL     1      26.391   1.955  53.489  0.00  0.00    +0.000 A 
ATOM     20  C   UNL     1      27.673   2.286  53.068  0.00  0.00    +0.000 A 
ATOM     21  N   UNL     1      28.712   1.415  53.138  0.00  0.00    +0.000 NA
ATOM     22  C   UNL     1      28.409   0.194  53.631  0.00  0.00    +0.000 A 
ATOM     23 BR   UNL     1      29.783  -1.102  53.755  0.00  0.00    +0.000 Br
ATOM     24  C   UNL     1      27.122  -0.129  54.045  0.00  0.00    +0.000 A 
ATOM     25  N   UNL     1      26.081   0.747  53.990  0.00  0.00    +0.000 NA
ENDBRANCH  17  19
ENDBRANCH  14  17
ENDBRANCH   6  14
TORSDOF 4
ENDMDL
MODEL 3
REMARK VINA RESULT:    -7.477      3.335      3.927
REMARK INTER + INTRA:          -9.554
REMARK INTER:                  -9.573
REMARK INTRA:                   0.019
REMARK UNBOUND:                -0.328
REMARK  Name = 
REMARK  6 active torsions:
REMARK  status: ('A' for Active; 'I' for Inactive)
REMARK    1  A    between atoms: C_1  and  N_2
REMARK    2  A    between atoms: N_2  and  C_3
REMARK    3  A    between atoms: N_2  and  C_4
REMARK    4  A    between atoms: C_9  and  S_10
REMARK    5  A    between atoms: S_10  and  N_13
REMARK    6  A    between atoms: N_13  and  C_14
REMARK                            x       y       z     vdW  Elec       q    Type
REMARK                         _______ _______ _______ _____ _____    ______ ____
ROOT
ATOM      1  C   UNL     1      25.921   0.074  53.223  0.00  0.00    +0.000 A 
ATOM      2  C   UNL     1      25.920   0.980  52.143  0.00  0.00    +0.000 A 
ATOM      3  C   UNL     1      24.766   1.627  51.727  0.00  0.00    +0.000 A 
ATOM      4  C   UNL     1      23.548   1.285  52.290  0.00  0.00    +0.000 A 
ATOM      5  C   UNL     1      23.434   0.268  53.261  0.00  0.00    +0.000 A 
ATOM      6  C   UNL     1      22.182  -0.193  53.758  0.00  0.00    +0.000 A 
ATOM      7  C   UNL     1      22.113  -1.015  54.888  0.00  0.00    +0.000 A 
ATOM      8  C   UNL     1      23.279  -1.423  55.508  0.00  0.00    +0.000 A 
ATOM      9  C   UNL     1      24.517  -1.072  54.964  0.00  0.00    +0.000 A 
ATOM     10  C   UNL     1      24.647  -0.268  53.805  0.00  0.00    +0.000 A 
ENDROOT
BRANCH   1  12
ATOM     11  C   UNL     1      28.023   0.590  54.390  0.00  0.00    +0.000 C 
ATOM     12  N   UNL     1      27.160  -0.399  53.733  0.00  0.00    +0.000 N 
ATOM     13  C   UNL     1      27.887  -1.377  52.915  0.00  0.00    +0.000 C 
ENDBRANCH   1  12
BRANCH   6  14
ATOM     14  S   UNL     1      20.620   0.230  52.978  0.00  0.00    +0.000 S 
ATOM     15  O   UNL     1      20.342   1.628  53.253  0.00  0.00    +0.000 OA
ATOM     16  O   UNL     1      20.675  -0.252  51.619  0.00  0.00    +0.000 OA
BRANCH  14  17
ATOM     17  N   UNL     1      19.439  -0.674  53.784  0.00  0.00    +0.000 N 
ATOM     18  H   UNL     1      19.570  -0.985  54.709  0.00  0.00    +0.000 HD
BRANCH  17  19
ATOM     19  C   UNL     1      18.258  -0.962  53.072  0.00  0.00    +0.000 A 
ATOM     20  C   UNL     1      17.489  -2.103  53.265  0.00  0.00    +0.000 A 
ATOM     21  N   UNL     1      16.318  -2.313  52.610  0.00  0.00    +0.000 NA
ATOM     22  C   UNL     1      15.961  -1.341  51.740  0.00  0.00    +0.000 A 
ATOM     23 BR   UNL     1      14.354  -1.544  50.761  0.00  0.00    +0.000 Br
ATOM     24  C   UNL     1      16.741  -0.206  51.551  0.00  0.00    +0.000 A 
ATOM     25  N   UNL     1      17.908   0.015  52.218  0.00  0.00    +0.000 NA
ENDBRANCH  17  19
ENDBRANCH  14  17
ENDBRANCH   6  14
TORSDOF 4
ENDMDL
MODEL 4
REMARK VINA RESULT:    -7.385      1.694      2.027
REMARK INTER + INTRA:          -9.440
REMARK INTER:                  -9.359
REMARK INTRA:                  -0.080
REMARK UNBOUND:                -0.328
REMARK  Name = 
REMARK  6 active torsions:
REMARK  status: ('A' for Active; 'I' for Inactive)
REMARK    1  A    between atoms: C_1  and  N_2
REMARK    2  A    between atoms: N_2  and  C_3
REMARK    3  A    between atoms: N_2  and  C_4
REMARK    4  A    between atoms: C_9  and  S_10
REMARK    5  A    between atoms: S_10  and  N_13
REMARK    6  A    between atoms: N_13  and  C_14
REMARK                            x       y       z     vdW  Elec       q    Type
REMARK                         _______ _______ _______ _____ _____    ______ ____
ROOT
ATOM      1  C   UNL     1      26.854   0.305  53.144  0.00  0.00    +0.000 A 
ATOM      2  C   UNL     1      27.212   1.246  52.157  0.00  0.00    +0.000 A 
ATOM      3  C   UNL     1      26.270   2.042  51.525  0.00  0.00    +0.000 A 
ATOM      4  C   UNL     1      24.922   1.829  51.762  0.00  0.00    +0.000 A 
ATOM      5  C   UNL     1      24.468   0.798  52.609  0.00  0.00    +0.000 A 
ATOM      6  C   UNL     1      23.091   0.474  52.766  0.00  0.00    +0.000 A 
ATOM      7  C   UNL     1      22.662  -0.377  53.791  0.00  0.00    +0.000 A 
ATOM      8  C   UNL     1      23.593  -0.947  54.640  0.00  0.00    +0.000 A 
ATOM      9  C   UNL     1      24.956  -0.729  54.426  0.00  0.00    +0.000 A 
ATOM     10  C   UNL     1      25.449   0.098  53.386  0.00  0.00    +0.000 A 
ENDROOT
BRANCH   1  12
ATOM     11  C   UNL     1      28.705   0.528  54.747  0.00  0.00    +0.000 C 
ATOM     12  N   UNL     1      27.875  -0.334  53.898  0.00  0.00    +0.000 N 
ATOM     13  C   UNL     1      28.618  -1.412  53.235  0.00  0.00    +0.000 C 
ENDBRANCH   1  12
BRANCH   6  14
ATOM     14  S   UNL     1      21.818   1.112  51.671  0.00  0.00    +0.000 S 
ATOM     15  O   UNL     1      22.451   1.509  50.426  0.00  0.00    +0.000 OA
ATOM     16  O   UNL     1      20.736   0.157  51.670  0.00  0.00    +0.000 OA
BRANCH  14  17
ATOM     17  N   UNL     1      21.241   2.524  52.402  0.00  0.00    +0.000 N 
ATOM     18  H   UNL     1      20.657   2.493  53.194  0.00  0.00    +0.000 HD
BRANCH  17  19
ATOM     19  C   UNL     1      21.636   3.748  51.827  0.00  0.00    +0.000 A 
ATOM     20  C   UNL     1      20.895   4.437  50.875  0.00  0.00    +0.000 A 
ATOM     21  N   UNL     1      21.272   5.650  50.395  0.00  0.00    +0.000 NA
ATOM     22  C   UNL     1      22.431   6.134  50.895  0.00  0.00    +0.000 A 
ATOM     23 BR   UNL     1      23.057   7.810  50.278  0.00  0.00    +0.000 Br
ATOM     24  C   UNL     1      23.167   5.433  51.844  0.00  0.00    +0.000 A 
ATOM     25  N   UNL     1      22.783   4.224  52.339  0.00  0.00    +0.000 NA
ENDBRANCH  17  19
ENDBRANCH  14  17
ENDBRANCH   6  14
TORSDOF 4
ENDMDL
MODEL 5
REMARK VINA RESULT:    -7.208      2.998      4.195
REMARK INTER + INTRA:          -9.222
REMARK INTER:                  -8.933
REMARK INTRA:                  -0.289
REMARK UNBOUND:                -0.328
REMARK  Name = 
REMARK  6 active torsions:
REMARK  status: ('A' for Active; 'I' for Inactive)
REMARK    1  A    between atoms: C_1  and  N_2
REMARK    2  A    between atoms: N_2  and  C_3
REMARK    3  A    between atoms: N_2  and  C_4
REMARK    4  A    between atoms: C_9  and  S_10
REMARK    5  A    between atoms: S_10  and  N_13
REMARK    6  A    between atoms: N_13  and  C_14
REMARK                            x       y       z     vdW  Elec       q    Type
REMARK                         _______ _______ _______ _____ _____    ______ ____
ROOT
ATOM      1  C   UNL     1      26.546   0.174  53.514  0.00  0.00    +0.000 A 
ATOM      2  C   UNL     1      25.624  -0.621  54.226  0.00  0.00    +0.000 A 
ATOM      3  C   UNL     1      24.286  -0.692  53.872  0.00  0.00    +0.000 A 
ATOM      4  C   UNL     1      23.796   0.136  52.876  0.00  0.00    +0.000 A 
ATOM      5  C   UNL     1      24.613   1.083  52.224  0.00  0.00    +0.000 A 
ATOM      6  C   UNL     1      24.106   2.034  51.294  0.00  0.00    +0.000 A 
ATOM      7  C   UNL     1      24.969   2.783  50.486  0.00  0.00    +0.000 A 
ATOM      8  C   UNL     1      26.336   2.630  50.622  0.00  0.00    +0.000 A 
ATOM      9  C   UNL     1      26.849   1.785  51.610  0.00  0.00    +0.000 A 
ATOM     10  C   UNL     1      26.023   1.026  52.476  0.00  0.00    +0.000 A 
ENDROOT
BRANCH   1  12
ATOM     11  C   UNL     1      28.605  -1.148  53.275  0.00  0.00    +0.000 C 
ATOM     12  N   UNL     1      27.933   0.050  53.793  0.00  0.00    +0.000 N 
ATOM     13  C   UNL     1      28.383   0.457  55.129  0.00  0.00    +0.000 C 
ENDBRANCH   1  12
BRANCH   6  14
ATOM     14  S   UNL     1      22.349   2.349  51.096  0.00  0.00    +0.000 S 
ATOM     15  O   UNL     1      21.803   2.696  52.396  0.00  0.00    +0.000 OA
ATOM     16  O   UNL     1      22.199   3.246  49.976  0.00  0.00    +0.000 OA
BRANCH  14  17
ATOM     17  N   UNL     1      21.659   0.870  50.651  0.00  0.00    +0.000 N 
ATOM     18  H   UNL     1      22.176   0.184  50.171  0.00  0.00    +0.000 HD
BRANCH  17  19
ATOM     19  C   UNL     1      20.310   0.664  51.001  0.00  0.00    +0.000 A 
ATOM     20  C   UNL     1      19.231   1.094  50.237  0.00  0.00    +0.000 A 
ATOM     21  N   UNL     1      17.945   0.815  50.569  0.00  0.00    +0.000 NA
ATOM     22  C   UNL     1      17.784   0.106  51.709  0.00  0.00    +0.000 A 
ATOM     23 BR   UNL     1      16.028  -0.321  52.273  0.00  0.00    +0.000 Br
ATOM     24  C   UNL     1      18.870  -0.315  52.468  0.00  0.00    +0.000 A 
ATOM     25  N   UNL     1      20.162  -0.051  52.129  0.00  0.00    +0.000 NA
ENDBRANCH  17  19
ENDBRANCH  14  17
ENDBRANCH   6  14
TORSDOF 4
ENDMDL
MODEL 6
REMARK VINA RESULT:    -7.106      2.393      3.749
REMARK INTER + INTRA:          -9.096
REMARK INTER:                  -8.667
REMARK INTRA:                  -0.429
REMARK UNBOUND:                -0.328
REMARK  Name = 
REMARK  6 active torsions:
REMARK  status: ('A' for Active; 'I' for Inactive)
REMARK    1  A    between atoms: C_1  and  N_2
REMARK    2  A    between atoms: N_2  and  C_3
REMARK    3  A    between atoms: N_2  and  C_4
REMARK    4  A    between atoms: C_9  and  S_10
REMARK    5  A    between atoms: S_10  and  N_13
REMARK    6  A    between atoms: N_13  and  C_14
REMARK                            x       y       z     vdW  Elec       q    Type
REMARK                         _______ _______ _______ _____ _____    ______ ____
ROOT
ATOM      1  C   UNL     1      25.865   0.280  53.084  0.00  0.00    +0.000 A 
ATOM      2  C   UNL     1      24.745  -0.306  53.708  0.00  0.00    +0.000 A 
ATOM      3  C   UNL     1      23.448  -0.012  53.318  0.00  0.00    +0.000 A 
ATOM      4  C   UNL     1      23.223   0.983  52.381  0.00  0.00    +0.000 A 
ATOM      5  C   UNL     1      24.278   1.737  51.826  0.00  0.00    +0.000 A 
ATOM      6  C   UNL     1      24.065   2.849  50.964  0.00  0.00    +0.000 A 
ATOM      7  C   UNL     1      25.122   3.413  50.240  0.00  0.00    +0.000 A 
ATOM      8  C   UNL     1      26.400   2.911  50.395  0.00  0.00    +0.000 A 
ATOM      9  C   UNL     1      26.643   1.895  51.323  0.00  0.00    +0.000 A 
ATOM     10  C   UNL     1      25.617   1.309  52.106  0.00  0.00    +0.000 A 
ENDROOT
BRANCH   1  12
ATOM     11  C   UNL     1      27.490  -1.556  52.899  0.00  0.00    +0.000 C 
ATOM     12  N   UNL     1      27.164  -0.209  53.385  0.00  0.00    +0.000 N 
ATOM     13  C   UNL     1      27.696   0.088  54.720  0.00  0.00    +0.000 C 
ENDBRANCH   1  12
BRANCH   6  14
ATOM     14  S   UNL     1      22.453   3.611  50.750  0.00  0.00    +0.000 S 
ATOM     15  O   UNL     1      21.546   2.608  50.220  0.00  0.00    +0.000 OA
ATOM     16  O   UNL     1      22.141   4.304  51.977  0.00  0.00    +0.000 OA
BRANCH  14  17
ATOM     17  N   UNL     1      22.648   4.783  49.547  0.00  0.00    +0.000 N 
ATOM     18  H   UNL     1      23.327   4.689  48.841  0.00  0.00    +0.000 HD
BRANCH  17  19
ATOM     19  C   UNL     1      21.793   5.902  49.600  0.00  0.00    +0.000 A 
ATOM     20  C   UNL     1      20.418   5.843  49.408  0.00  0.00    +0.000 A 
ATOM     21  N   UNL     1      19.616   6.932  49.537  0.00  0.00    +0.000 NA
ATOM     22  C   UNL     1      20.252   8.083  49.847  0.00  0.00    +0.000 A 
ATOM     23 BR   UNL     1      19.229   9.665  50.032  0.00  0.00    +0.000 Br
ATOM     24  C   UNL     1      21.630   8.132  50.032  0.00  0.00    +0.000 A 
ATOM     25  N   UNL     1      22.434   7.039  49.919  0.00  0.00    +0.000 NA
ENDBRANCH  17  19
ENDBRANCH  14  17
ENDBRANCH   6  14
TORSDOF 4
ENDMDL
MODEL 7
REMARK VINA RESULT:    -7.069      2.991      3.545
REMARK INTER + INTRA:          -9.051
REMARK INTER:                  -8.711
REMARK INTRA:                  -0.340
REMARK UNBOUND:                -0.328
REMARK  Name = 
REMARK  6 active torsions:
REMARK  status: ('A' for Active; 'I' for Inactive)
REMARK    1  A    between atoms: C_1  and  N_2
REMARK    2  A    between atoms: N_2  and  C_3
REMARK    3  A    between atoms: N_2  and  C_4
REMARK    4  A    between atoms: C_9  and  S_10
REMARK    5  A    between atoms: S_10  and  N_13
REMARK    6  A    between atoms: N_13  and  C_14
REMARK                            x       y       z     vdW  Elec       q    Type
REMARK                         _______ _______ _______ _____ _____    ______ ____
ROOT
ATOM      1  C   UNL     1      24.852   0.186  53.046  0.00  0.00    +0.000 A 
ATOM      2  C   UNL     1      25.128   1.181  52.086  0.00  0.00    +0.000 A 
ATOM      3  C   UNL     1      24.125   1.945  51.509  0.00  0.00    +0.000 A 
ATOM      4  C   UNL     1      22.799   1.647  51.773  0.00  0.00    +0.000 A 
ATOM      5  C   UNL     1      22.427   0.560  52.591  0.00  0.00    +0.000 A 
ATOM      6  C   UNL     1      21.076   0.152  52.771  0.00  0.00    +0.000 A 
ATOM      7  C   UNL     1      20.724  -0.759  53.774  0.00  0.00    +0.000 A 
ATOM      8  C   UNL     1      21.709  -1.304  54.576  0.00  0.00    +0.000 A 
ATOM      9  C   UNL     1      23.052  -1.000  54.336  0.00  0.00    +0.000 A 
ATOM     10  C   UNL     1      23.467  -0.110  53.316  0.00  0.00    +0.000 A 
ENDROOT
BRANCH   1  12
ATOM     11  C   UNL     1      26.610   0.408  54.751  0.00  0.00    +0.000 C 
ATOM     12  N   UNL     1      25.927  -0.420  53.748  0.00  0.00    +0.000 N 
ATOM     13  C   UNL     1      26.827  -1.283  52.974  0.00  0.00    +0.000 C 
ENDBRANCH   1  12
BRANCH   6  14
ATOM     14  S   UNL     1      19.739   0.756  51.734  0.00  0.00    +0.000 S 
ATOM     15  O   UNL     1      19.271   2.014  52.288  0.00  0.00    +0.000 OA
ATOM     16  O   UNL     1      20.191   0.682  50.366  0.00  0.00    +0.000 OA
BRANCH  14  17
ATOM     17  N   UNL     1      18.477  -0.358  51.908  0.00  0.00    +0.000 N 
ATOM     18  H   UNL     1      18.648  -1.297  52.149  0.00  0.00    +0.000 HD
BRANCH  17  19
ATOM     19  C   UNL     1      17.170   0.120  51.693  0.00  0.00    +0.000 A 
ATOM     20  C   UNL     1      16.730   0.682  50.500  0.00  0.00    +0.000 A 
ATOM     21  N   UNL     1      15.443   1.067  50.305  0.00  0.00    +0.000 NA
ATOM     22  C   UNL     1      14.620   0.884  51.362  0.00  0.00    +0.000 A 
ATOM     23 BR   UNL     1      12.807   1.404  51.202  0.00  0.00    +0.000 Br
ATOM     24  C   UNL     1      15.071   0.325  52.553  0.00  0.00    +0.000 A 
ATOM     25  N   UNL     1      16.358  -0.077  52.745  0.00  0.00    +0.000 NA
ENDBRANCH  17  19
ENDBRANCH  14  17
ENDBRANCH   6  14
TORSDOF 4
ENDMDL
MODEL 8
REMARK VINA RESULT:    -7.055      3.177      4.664
REMARK INTER + INTRA:          -9.033
REMARK INTER:                  -8.893
REMARK INTRA:                  -0.140
REMARK UNBOUND:                -0.328
REMARK  Name = 
REMARK  6 active torsions:
REMARK  status: ('A' for Active; 'I' for Inactive)
REMARK    1  A    between atoms: C_1  and  N_2
REMARK    2  A    between atoms: N_2  and  C_3
REMARK    3  A    between atoms: N_2  and  C_4
REMARK    4  A    between atoms: C_9  and  S_10
REMARK    5  A    between atoms: S_10  and  N_13
REMARK    6  A    between atoms: N_13  and  C_14
REMARK                            x       y       z     vdW  Elec       q    Type
REMARK                         _______ _______ _______ _____ _____    ______ ____
ROOT
ATOM      1  C   UNL     1      22.859  -0.101  53.493  0.00  0.00    +0.000 A 
ATOM      2  C   UNL     1      21.673   0.616  53.232  0.00  0.00    +0.000 A 
ATOM      3  C   UNL     1      21.612   1.611  52.268  0.00  0.00    +0.000 A 
ATOM      4  C   UNL     1      22.771   2.015  51.627  0.00  0.00    +0.000 A 
ATOM      5  C   UNL     1      24.030   1.467  51.946  0.00  0.00    +0.000 A 
ATOM      6  C   UNL     1      25.250   1.956  51.398  0.00  0.00    +0.000 A 
ATOM      7  C   UNL     1      26.443   1.238  51.538  0.00  0.00    +0.000 A 
ATOM      8  C   UNL     1      26.448   0.057  52.255  0.00  0.00    +0.000 A 
ATOM      9  C   UNL     1      25.284  -0.377  52.895  0.00  0.00    +0.000 A 
ATOM     10  C   UNL     1      24.056   0.326  52.813  0.00  0.00    +0.000 A 
ENDROOT
BRANCH   1  12
ATOM     11  C   UNL     1      21.522  -1.937  54.436  0.00  0.00    +0.000 C 
ATOM     12  N   UNL     1      22.810  -1.240  54.340  0.00  0.00    +0.000 N 
ATOM     13  C   UNL     1      23.539  -1.155  55.612  0.00  0.00    +0.000 C 
ENDBRANCH   1  12
BRANCH   6  14
ATOM     14  S   UNL     1      25.352   3.513  50.509  0.00  0.00    +0.000 S 
ATOM     15  O   UNL     1      26.755   3.816  50.289  0.00  0.00    +0.000 OA
ATOM     16  O   UNL     1      24.438   3.432  49.395  0.00  0.00    +0.000 OA
BRANCH  14  17
ATOM     17  N   UNL     1      24.754   4.692  51.565  0.00  0.00    +0.000 N 
ATOM     18  H   UNL     1      24.866   4.614  52.540  0.00  0.00    +0.000 HD
BRANCH  17  19
ATOM     19  C   UNL     1      24.090   5.791  50.985  0.00  0.00    +0.000 A 
ATOM     20  C   UNL     1      24.706   6.736  50.174  0.00  0.00    +0.000 A 
ATOM     21  N   UNL     1      24.019   7.743  49.575  0.00  0.00    +0.000 NA
ATOM     22  C   UNL     1      22.694   7.773  49.839  0.00  0.00    +0.000 A 
ATOM     23 BR   UNL     1      21.646   9.148  49.067  0.00  0.00    +0.000 Br
ATOM     24  C   UNL     1      22.088   6.825  50.656  0.00  0.00    +0.000 A 
ATOM     25  N   UNL     1      22.772   5.805  51.245  0.00  0.00    +0.000 NA
ENDBRANCH  17  19
ENDBRANCH  14  17
ENDBRANCH   6  14
TORSDOF 4
ENDMDL
MODEL 9
REMARK VINA RESULT:    -6.953      2.325      2.760
REMARK INTER + INTRA:          -8.908
REMARK INTER:                  -8.498
REMARK INTRA:                  -0.409
REMARK UNBOUND:                -0.328
REMARK  Name = 
REMARK  6 active torsions:
REMARK  status: ('A' for Active; 'I' for Inactive)
REMARK    1  A    between atoms: C_1  and  N_2
REMARK    2  A    between atoms: N_2  and  C_3
REMARK    3  A    between atoms: N_2  and  C_4
REMARK    4  A    between atoms: C_9  and  S_10
REMARK    5  A    between atoms: S_10  and  N_13
REMARK    6  A    between atoms: N_13  and  C_14
REMARK                            x       y       z     vdW  Elec       q    Type
REMARK                         _______ _______ _______ _____ _____    ______ ____
ROOT
ATOM      1  C   UNL     1      26.818   0.304  53.060  0.00  0.00    +0.000 A 
ATOM      2  C   UNL     1      27.198   1.307  52.145  0.00  0.00    +0.000 A 
ATOM      3  C   UNL     1      26.287   2.218  51.632  0.00  0.00    +0.000 A 
ATOM      4  C   UNL     1      24.939   2.071  51.914  0.00  0.00    +0.000 A 
ATOM      5  C   UNL     1      24.451   0.997  52.685  0.00  0.00    +0.000 A 
ATOM      6  C   UNL     1      23.063   0.749  52.878  0.00  0.00    +0.000 A 
ATOM      7  C   UNL     1      22.619  -0.164  53.842  0.00  0.00    +0.000 A 
ATOM      8  C   UNL     1      23.543  -0.868  54.591  0.00  0.00    +0.000 A 
ATOM      9  C   UNL     1      24.909  -0.719  54.333  0.00  0.00    +0.000 A 
ATOM     10  C   UNL     1      25.413   0.166  53.349  0.00  0.00    +0.000 A 
ENDROOT
BRANCH   1  12
ATOM     11  C   UNL     1      28.873   0.278  54.410  0.00  0.00    +0.000 C 
ATOM     12  N   UNL     1      27.823  -0.466  53.704  0.00  0.00    +0.000 N 
ATOM     13  C   UNL     1      28.309  -1.655  52.994  0.00  0.00    +0.000 C 
ENDBRANCH   1  12
BRANCH   6  14
ATOM     14  S   UNL     1      21.792   1.566  51.906  0.00  0.00    +0.000 S 
ATOM     15  O   UNL     1      21.895   2.996  52.139  0.00  0.00    +0.000 OA
ATOM     16  O   UNL     1      21.870   1.036  50.566  0.00  0.00    +0.000 OA
BRANCH  14  17
ATOM     17  N   UNL     1      20.314   1.066  52.559  0.00  0.00    +0.000 N 
ATOM     18  H   UNL     1      20.239   0.762  53.493  0.00  0.00    +0.000 HD
BRANCH  17  19
ATOM     19  C   UNL     1      19.193   1.105  51.707  0.00  0.00    +0.000 A 
ATOM     20  C   UNL     1      18.596  -0.020  51.151  0.00  0.00    +0.000 A 
ATOM     21  N   UNL     1      17.473   0.050  50.391  0.00  0.00    +0.000 NA
ATOM     22  C   UNL     1      16.987   1.296  50.194  0.00  0.00    +0.000 A 
ATOM     23 BR   UNL     1      15.434   1.508  49.132  0.00  0.00    +0.000 Br
ATOM     24  C   UNL     1      17.595   2.416  50.750  0.00  0.00    +0.000 A 
ATOM     25  N   UNL     1      18.712   2.346  51.527  0.00  0.00    +0.000 NA
ENDBRANCH  17  19
ENDBRANCH  14  17
ENDBRANCH   6  14
TORSDOF 4
ENDMDL
