MODEL 1
REMARK VINA RESULT:    -9.220      0.000      0.000
REMARK INTER + INTRA:         -11.499
REMARK INTER:                 -10.838
REMARK INTRA:                  -0.661
REMARK UNBOUND:                -0.661
REMARK  Name = 
REMARK  5 active torsions:
REMARK  status: ('A' for Active; 'I' for Inactive)
REMARK    1  A    between atoms: C_1  and  N_2
REMARK    2  A    between atoms: C_5  and  C_6
REMARK    3  A    between atoms: C_7  and  O_8
REMARK    4  A    between atoms: C_10  and  O_11
REMARK    5  A    between atoms: C_16  and  C_17
REMARK                            x       y       z     vdW  Elec       q    Type
REMARK                         _______ _______ _______ _____ _____    ______ ____
ROOT
ATOM      1  C   UNL     1      24.175  -0.309  54.078  0.00  0.00    +0.000 A 
ATOM      2  C   UNL     1      23.438  -1.078  54.992  0.00  0.00    +0.000 A 
ATOM      3  C   UNL     1      22.044  -1.026  55.020  0.00  0.00    +0.000 A 
ATOM      4  C   UNL     1      21.367  -0.199  54.122  0.00  0.00    +0.000 A 
ATOM      5  C   UNL     1      22.080   0.583  53.201  0.00  0.00    +0.000 A 
ATOM      6  C   UNL     1      21.399   1.475  52.233  0.00  0.00    +0.000 A 
ATOM      7  O   UNL     1      20.187   1.565  52.094  0.00  0.00    +0.000 OA
ATOM      8  C   UNL     1      22.267   2.305  51.380  0.00  0.00    +0.000 A 
ATOM      9  C   UNL     1      23.598   2.198  51.484  0.00  0.00    +0.000 A 
ATOM     10  O   UNL     1      24.235   1.302  52.326  0.00  0.00    +0.000 OA
ATOM     11  C   UNL     1      23.480   0.533  53.186  0.00  0.00    +0.000 A 
ENDROOT
BRANCH   1  16
ATOM     12  C   UNL     1      29.439   0.530  53.241  0.00  0.00    +0.000 C 
ATOM     13  N   UNL     1      28.577  -0.416  53.927  0.00  0.00    +0.000 N 
ATOM     14  C   UNL     1      27.883   0.146  55.078  0.00  0.00    +0.000 C 
ATOM     15  C   UNL     1      26.384   0.185  55.028  0.00  0.00    +0.000 C 
ATOM     16  C   UNL     1      25.649  -0.382  54.060  0.00  0.00    +0.000 C 
ATOM     17  C   UNL     1      26.292  -1.109  52.920  0.00  0.00    +0.000 C 
ATOM     18  C   UNL     1      27.814  -1.305  53.054  0.00  0.00    +0.000 C 
ATOM     19  H   UNL     1      29.210  -1.087  54.363  0.00  0.00    +0.000 HD
ENDBRANCH   1  16
BRANCH   9  20
ATOM     20  C   UNL     1      24.508   3.031  50.668  0.00  0.00    +0.000 A 
ATOM     21  C   UNL     1      24.040   4.123  49.925  0.00  0.00    +0.000 A 
ATOM     22  C   UNL     1      24.944   4.874  49.191  0.00  0.00    +0.000 A 
ATOM     23  N   UNL     1      26.268   4.625  49.152  0.00  0.00    +0.000 NA
ATOM     24  C   UNL     1      26.707   3.581  49.883  0.00  0.00    +0.000 A 
ATOM     25  C   UNL     1      25.882   2.769  50.647  0.00  0.00    +0.000 A 
ENDBRANCH   9  20
BRANCH   2  26
ATOM     26  O   UNL     1      24.097  -1.886  55.881  0.00  0.00    +0.000 OA
ATOM     27  H   UNL     1      23.658  -2.194  56.649  0.00  0.00    +0.000 HD
ENDBRANCH   2  26
BRANCH   4  28
ATOM     28  O   UNL     1      20.004  -0.156  54.169  0.00  0.00    +0.000 OA
ATOM     29  H   UNL     1      19.517  -0.927  54.384  0.00  0.00    +0.000 HD
ENDBRANCH   4  28
TORSDOF 4
ENDMDL
MODEL 2
REMARK VINA RESULT:    -9.122      1.377      2.011
REMARK INTER + INTRA:         -11.383
REMARK INTER:                 -10.733
REMARK INTRA:                  -0.651
REMARK UNBOUND:                -0.661
REMARK  Name = 
REMARK  5 active torsions:
REMARK  status: ('A' for Active; 'I' for Inactive)
REMARK    1  A    between atoms: C_1  and  N_2
REMARK    2  A    between atoms: C_5  and  C_6
REMARK    3  A    between atoms: C_7  and  O_8
REMARK    4  A    between atoms: C_10  and  O_11
REMARK    5  A    between atoms: C_16  and  C_17
REMARK                            x       y       z     vdW  Elec       q    Type
REMARK                         _______ _______ _______ _____ _____    ______ ____
ROOT
ATOM      1  C   UNL     1      24.277  -0.305  53.986  0.00  0.00    +0.000 A 
ATOM      2  C   UNL     1      24.025  -1.169  55.064  0.00  0.00    +0.000 A 
ATOM      3  C   UNL     1      22.736  -1.633  55.331  0.00  0.00    +0.000 A 
ATOM      4  C   UNL     1      21.677  -1.236  54.513  0.00  0.00    +0.000 A 
ATOM      5  C   UNL     1      21.901  -0.371  53.431  0.00  0.00    +0.000 A 
ATOM      6  C   UNL     1      20.804   0.075  52.540  0.00  0.00    +0.000 A 
ATOM      7  O   UNL     1      19.645  -0.309  52.609  0.00  0.00    +0.000 OA
ATOM      8  C   UNL     1      21.160   1.050  51.495  0.00  0.00    +0.000 A 
ATOM      9  C   UNL     1      22.431   1.456  51.372  0.00  0.00    +0.000 A 
ATOM     10  O   UNL     1      23.471   0.975  52.147  0.00  0.00    +0.000 OA
ATOM     11  C   UNL     1      23.196   0.098  53.175  0.00  0.00    +0.000 A 
ENDROOT
BRANCH   1  16
ATOM     12  C   UNL     1      29.487   1.065  54.287  0.00  0.00    +0.000 C 
ATOM     13  N   UNL     1      28.402   1.090  53.321  0.00  0.00    +0.000 N 
ATOM     14  C   UNL     1      27.980  -0.231  52.875  0.00  0.00    +0.000 C 
ATOM     15  C   UNL     1      26.571  -0.645  53.181  0.00  0.00    +0.000 C 
ATOM     16  C   UNL     1      25.648   0.170  53.715  0.00  0.00    +0.000 C 
ATOM     17  C   UNL     1      25.970   1.589  54.062  0.00  0.00    +0.000 C 
ATOM     18  C   UNL     1      27.354   2.072  53.591  0.00  0.00    +0.000 C 
ATOM     19  H   UNL     1      28.809   1.485  52.473  0.00  0.00    +0.000 HD
ENDBRANCH   1  16
BRANCH   9  20
ATOM     20  C   UNL     1      22.829   2.455  50.357  0.00  0.00    +0.000 A 
ATOM     21  C   UNL     1      24.040   3.155  50.448  0.00  0.00    +0.000 A 
ATOM     22  C   UNL     1      24.364   4.069  49.458  0.00  0.00    +0.000 A 
ATOM     23  N   UNL     1      23.583   4.327  48.391  0.00  0.00    +0.000 NA
ATOM     24  C   UNL     1      22.429   3.636  48.308  0.00  0.00    +0.000 A 
ATOM     25  C   UNL     1      22.015   2.704  49.247  0.00  0.00    +0.000 A 
ENDBRANCH   9  20
BRANCH   2  26
ATOM     26  O   UNL     1      25.059  -1.555  55.875  0.00  0.00    +0.000 OA
ATOM     27  H   UNL     1      24.881  -1.985  56.689  0.00  0.00    +0.000 HD
ENDBRANCH   2  26
BRANCH   4  28
ATOM     28  O   UNL     1      20.423  -1.694  54.794  0.00  0.00    +0.000 OA
ATOM     29  H   UNL     1      19.672  -1.227  54.483  0.00  0.00    +0.000 HD
ENDBRANCH   4  28
TORSDOF 4
ENDMDL
MODEL 3
REMARK VINA RESULT:    -8.836      1.324      5.196
REMARK INTER + INTRA:         -11.047
REMARK INTER:                 -10.244
REMARK INTRA:                  -0.803
REMARK UNBOUND:                -0.661
REMARK  Name = 
REMARK  5 active torsions:
REMARK  status: ('A' for Active; 'I' for Inactive)
REMARK    1  A    between atoms: C_1  and  N_2
REMARK    2  A    between atoms: C_5  and  C_6
REMARK    3  A    between atoms: C_7  and  O_8
REMARK    4  A    between atoms: C_10  and  O_11
REMARK    5  A    between atoms: C_16  and  C_17
REMARK                            x       y       z     vdW  Elec       q    Type
REMARK                         _______ _______ _______ _____ _____    ______ ____
ROOT
ATOM      1  C   UNL     1      22.273   1.423  52.398  0.00  0.00    +0.000 A 
ATOM      2  C   UNL     1      20.909   1.098  52.349  0.00  0.00    +0.000 A 
ATOM      3  C   UNL     1      20.383   0.069  53.130  0.00  0.00    +0.000 A 
ATOM      4  C   UNL     1      21.225  -0.650  53.980  0.00  0.00    +0.000 A 
ATOM      5  C   UNL     1      22.593  -0.347  54.047  0.00  0.00    +0.000 A 
ATOM      6  C   UNL     1      23.520  -1.087  54.935  0.00  0.00    +0.000 A 
ATOM      7  O   UNL     1      23.188  -1.958  55.727  0.00  0.00    +0.000 OA
ATOM      8  C   UNL     1      24.946  -0.728  54.845  0.00  0.00    +0.000 A 
ATOM      9  C   UNL     1      25.332   0.251  54.015  0.00  0.00    +0.000 A 
ATOM     10  O   UNL     1      24.456   1.001  53.250  0.00  0.00    +0.000 OA
ATOM     11  C   UNL     1      23.115   0.681  53.251  0.00  0.00    +0.000 A 
ENDROOT
BRANCH   1  16
ATOM     12  C   UNL     1      25.404   5.065  49.939  0.00  0.00    +0.000 C 
ATOM     13  N   UNL     1      24.006   4.678  49.986  0.00  0.00    +0.000 N 
ATOM     14  C   UNL     1      23.736   3.373  49.396  0.00  0.00    +0.000 C 
ATOM     15  C   UNL     1      23.188   2.308  50.299  0.00  0.00    +0.000 C 
ATOM     16  C   UNL     1      22.809   2.520  51.568  0.00  0.00    +0.000 C 
ATOM     17  C   UNL     1      22.918   3.874  52.196  0.00  0.00    +0.000 C 
ATOM     18  C   UNL     1      23.312   5.006  51.229  0.00  0.00    +0.000 C 
ATOM     19  H   UNL     1      23.532   5.309  49.340  0.00  0.00    +0.000 HD
ENDBRANCH   1  16
BRANCH   9  20
ATOM     20  C   UNL     1      26.755   0.627  53.871  0.00  0.00    +0.000 A 
ATOM     21  C   UNL     1      27.146   1.952  53.633  0.00  0.00    +0.000 A 
ATOM     22  C   UNL     1      28.496   2.244  53.520  0.00  0.00    +0.000 A 
ATOM     23  N   UNL     1      29.474   1.325  53.635  0.00  0.00    +0.000 NA
ATOM     24  C   UNL     1      29.085   0.057  53.878  0.00  0.00    +0.000 A 
ATOM     25  C   UNL     1      27.761  -0.335  54.005  0.00  0.00    +0.000 A 
ENDBRANCH   9  20
BRANCH   2  26
ATOM     26  O   UNL     1      20.079   1.795  51.510  0.00  0.00    +0.000 OA
ATOM     27  H   UNL     1      19.960   1.510  50.625  0.00  0.00    +0.000 HD
ENDBRANCH   2  26
BRANCH   4  28
ATOM     28  O   UNL     1      20.694  -1.657  54.732  0.00  0.00    +0.000 OA
ATOM     29  H   UNL     1      21.099  -2.502  54.738  0.00  0.00    +0.000 HD
ENDBRANCH   4  28
TORSDOF 4
ENDMDL
MODEL 4
REMARK VINA RESULT:    -8.668      2.196      5.149
REMARK INTER + INTRA:         -10.850
REMARK INTER:                 -10.049
REMARK INTRA:                  -0.801
REMARK UNBOUND:                -0.661
REMARK  Name = 
REMARK  5 active torsions:
REMARK  status: ('A' for Active; 'I' for Inactive)
REMARK    1  A    between atoms: C_1  and  N_2
REMARK    2  A    between atoms: C_5  and  C_6
REMARK    3  A    between atoms: C_7  and  O_8
REMARK    4  A    between atoms: C_10  and  O_11
REMARK    5  A    between atoms: C_16  and  C_17
REMARK                            x       y       z     vdW  Elec       q    Type
REMARK                         _______ _______ _______ _____ _____    ______ ____
ROOT
ATOM      1  C   UNL     1      22.126   0.109  53.404  0.00  0.00    +0.000 A 
ATOM      2  C   UNL     1      21.775  -0.899  54.316  0.00  0.00    +0.000 A 
ATOM      3  C   UNL     1      22.731  -1.489  55.143  0.00  0.00    +0.000 A 
ATOM      4  C   UNL     1      24.061  -1.070  55.067  0.00  0.00    +0.000 A 
ATOM      5  C   UNL     1      24.439  -0.067  54.163  0.00  0.00    +0.000 A 
ATOM      6  C   UNL     1      25.839   0.405  54.051  0.00  0.00    +0.000 A 
ATOM      7  O   UNL     1      26.763   0.034  54.760  0.00  0.00    +0.000 OA
ATOM      8  C   UNL     1      26.116   1.402  53.002  0.00  0.00    +0.000 A 
ATOM      9  C   UNL     1      25.114   1.856  52.237  0.00  0.00    +0.000 A 
ATOM     10  O   UNL     1      23.791   1.481  52.398  0.00  0.00    +0.000 OA
ATOM     11  C   UNL     1      23.474   0.514  53.329  0.00  0.00    +0.000 A 
ENDROOT
BRANCH   1  16
ATOM     12  C   UNL     1      17.554   1.492  50.894  0.00  0.00    +0.000 C 
ATOM     13  N   UNL     1      18.961   1.851  50.883  0.00  0.00    +0.000 N 
ATOM     14  C   UNL     1      19.406   2.526  52.095  0.00  0.00    +0.000 C 
ATOM     15  C   UNL     1      20.456   1.843  52.919  0.00  0.00    +0.000 C 
ATOM     16  C   UNL     1      21.098   0.726  52.543  0.00  0.00    +0.000 C 
ATOM     17  C   UNL     1      20.797   0.059  51.238  0.00  0.00    +0.000 C 
ATOM     18  C   UNL     1      19.853   0.846  50.310  0.00  0.00    +0.000 C 
ATOM     19  H   UNL     1      19.042   2.589  50.183  0.00  0.00    +0.000 HD
ENDBRANCH   1  16
BRANCH   9  20
ATOM     20  C   UNL     1      25.350   2.835  51.154  0.00  0.00    +0.000 A 
ATOM     21  C   UNL     1      24.378   3.777  50.788  0.00  0.00    +0.000 A 
ATOM     22  C   UNL     1      24.663   4.677  49.774  0.00  0.00    +0.000 A 
ATOM     23  N   UNL     1      25.835   4.713  49.111  0.00  0.00    +0.000 NA
ATOM     24  C   UNL     1      26.766   3.811  49.483  0.00  0.00    +0.000 A 
ATOM     25  C   UNL     1      26.576   2.870  50.483  0.00  0.00    +0.000 A 
ENDBRANCH   9  20
BRANCH   2  26
ATOM     26  O   UNL     1      20.473  -1.320  54.388  0.00  0.00    +0.000 OA
ATOM     27  H   UNL     1      19.779  -0.742  54.141  0.00  0.00    +0.000 HD
ENDBRANCH   2  26
BRANCH   4  28
ATOM     28  O   UNL     1      24.983  -1.663  55.879  0.00  0.00    +0.000 OA
ATOM     29  H   UNL     1      25.739  -1.185  56.158  0.00  0.00    +0.000 HD
ENDBRANCH   4  28
TORSDOF 4
ENDMDL
MODEL 5
REMARK VINA RESULT:    -8.635      1.757      5.654
REMARK INTER + INTRA:         -10.811
REMARK INTER:                 -10.123
REMARK INTRA:                  -0.688
REMARK UNBOUND:                -0.661
REMARK  Name = 
REMARK  5 active torsions:
REMARK  status: ('A' for Active; 'I' for Inactive)
REMARK    1  A    between atoms: C_1  and  N_2
REMARK    2  A    between atoms: C_5  and  C_6
REMARK    3  A    between atoms: C_7  and  O_8
REMARK    4  A    between atoms: C_10  and  O_11
REMARK    5  A    between atoms: C_16  and  C_17
REMARK                            x       y       z     vdW  Elec       q    Type
REMARK                         _______ _______ _______ _____ _____    ______ ____
ROOT
ATOM      1  C   UNL     1      23.585   2.931  50.516  0.00  0.00    +0.000 A 
ATOM      2  C   UNL     1      22.353   2.897  49.844  0.00  0.00    +0.000 A 
ATOM      3  C   UNL     1      21.386   1.941  50.157  0.00  0.00    +0.000 A 
ATOM      4  C   UNL     1      21.642   1.004  51.159  0.00  0.00    +0.000 A 
ATOM      5  C   UNL     1      22.866   1.014  51.844  0.00  0.00    +0.000 A 
ATOM      6  C   UNL     1      23.179   0.036  52.912  0.00  0.00    +0.000 A 
ATOM      7  O   UNL     1      22.401  -0.806  53.342  0.00  0.00    +0.000 OA
ATOM      8  C   UNL     1      24.531   0.102  53.492  0.00  0.00    +0.000 A 
ATOM      9  C   UNL     1      25.389   1.040  53.068  0.00  0.00    +0.000 A 
ATOM     10  O   UNL     1      25.069   2.009  52.133  0.00  0.00    +0.000 OA
ATOM     11  C   UNL     1      23.836   1.970  51.517  0.00  0.00    +0.000 A 
ENDROOT
BRANCH   1  16
ATOM     12  C   UNL     1      26.517   6.791  48.147  0.00  0.00    +0.000 C 
ATOM     13  N   UNL     1      26.530   5.998  49.363  0.00  0.00    +0.000 N 
ATOM     14  C   UNL     1      25.445   6.313  50.284  0.00  0.00    +0.000 C 
ATOM     15  C   UNL     1      24.461   5.224  50.588  0.00  0.00    +0.000 C 
ATOM     16  C   UNL     1      24.593   3.954  50.175  0.00  0.00    +0.000 C 
ATOM     17  C   UNL     1      25.764   3.523  49.348  0.00  0.00    +0.000 C 
ATOM     18  C   UNL     1      26.864   4.587  49.180  0.00  0.00    +0.000 C 
ATOM     19  H   UNL     1      27.351   6.314  49.880  0.00  0.00    +0.000 HD
ENDBRANCH   1  16
BRANCH   9  20
ATOM     20  C   UNL     1      26.766   1.126  53.600  0.00  0.00    +0.000 A 
ATOM     21  C   UNL     1      27.582   2.238  53.353  0.00  0.00    +0.000 A 
ATOM     22  C   UNL     1      28.860   2.268  53.890  0.00  0.00    +0.000 A 
ATOM     23  N   UNL     1      29.374   1.285  54.654  0.00  0.00    +0.000 NA
ATOM     24  C   UNL     1      28.573   0.228  54.896  0.00  0.00    +0.000 A 
ATOM     25  C   UNL     1      27.283   0.105  54.403  0.00  0.00    +0.000 A 
ENDBRANCH   9  20
BRANCH   2  26
ATOM     26  O   UNL     1      22.099   3.809  48.854  0.00  0.00    +0.000 OA
ATOM     27  H   UNL     1      22.702   3.911  48.144  0.00  0.00    +0.000 HD
ENDBRANCH   2  26
BRANCH   4  28
ATOM     28  O   UNL     1      20.688   0.073  51.447  0.00  0.00    +0.000 OA
ATOM     29  H   UNL     1      20.794  -0.495  52.185  0.00  0.00    +0.000 HD
ENDBRANCH   4  28
TORSDOF 4
ENDMDL
MODEL 6
REMARK VINA RESULT:    -8.379      2.925      6.906
REMARK INTER + INTRA:         -10.509
REMARK INTER:                  -9.704
REMARK INTRA:                  -0.806
REMARK UNBOUND:                -0.661
REMARK  Name = 
REMARK  5 active torsions:
REMARK  status: ('A' for Active; 'I' for Inactive)
REMARK    1  A    between atoms: C_1  and  N_2
REMARK    2  A    between atoms: C_5  and  C_6
REMARK    3  A    between atoms: C_7  and  O_8
REMARK    4  A    between atoms: C_10  and  O_11
REMARK    5  A    between atoms: C_16  and  C_17
REMARK                            x       y       z     vdW  Elec       q    Type
REMARK                         _______ _______ _______ _____ _____    ______ ____
ROOT
ATOM      1  C   UNL     1      24.703   2.657  51.011  0.00  0.00    +0.000 A 
ATOM      2  C   UNL     1      26.055   3.031  51.075  0.00  0.00    +0.000 A 
ATOM      3  C   UNL     1      26.963   2.324  51.863  0.00  0.00    +0.000 A 
ATOM      4  C   UNL     1      26.525   1.223  52.601  0.00  0.00    +0.000 A 
ATOM      5  C   UNL     1      25.179   0.830  52.558  0.00  0.00    +0.000 A 
ATOM      6  C   UNL     1      24.673  -0.331  53.327  0.00  0.00    +0.000 A 
ATOM      7  O   UNL     1      25.366  -1.084  53.997  0.00  0.00    +0.000 OA
ATOM      8  C   UNL     1      23.223  -0.584  53.261  0.00  0.00    +0.000 A 
ATOM      9  C   UNL     1      22.447   0.201  52.502  0.00  0.00    +0.000 A 
ATOM     10  O   UNL     1      22.930   1.233  51.715  0.00  0.00    +0.000 OA
ATOM     11  C   UNL     1      24.271   1.551  51.772  0.00  0.00    +0.000 A 
ENDROOT
BRANCH   1  16
ATOM     12  C   UNL     1      22.356   6.155  47.639  0.00  0.00    +0.000 C 
ATOM     13  N   UNL     1      21.992   5.013  48.460  0.00  0.00    +0.000 N 
ATOM     14  C   UNL     1      22.549   3.750  47.992  0.00  0.00    +0.000 C 
ATOM     15  C   UNL     1      23.498   3.034  48.906  0.00  0.00    +0.000 C 
ATOM     16  C   UNL     1      23.759   3.414  50.166  0.00  0.00    +0.000 C 
ATOM     17  C   UNL     1      23.107   4.620  50.765  0.00  0.00    +0.000 C 
ATOM     18  C   UNL     1      22.003   5.256  49.900  0.00  0.00    +0.000 C 
ATOM     19  H   UNL     1      20.993   4.880  48.304  0.00  0.00    +0.000 HD
ENDBRANCH   1  16
BRANCH   9  20
ATOM     20  C   UNL     1      20.983   0.004  52.428  0.00  0.00    +0.000 A 
ATOM     21  C   UNL     1      20.244   0.388  51.301  0.00  0.00    +0.000 A 
ATOM     22  C   UNL     1      18.877   0.164  51.285  0.00  0.00    +0.000 A 
ATOM     23  N   UNL     1      18.200  -0.416  52.296  0.00  0.00    +0.000 NA
ATOM     24  C   UNL     1      18.926  -0.795  53.367  0.00  0.00    +0.000 A 
ATOM     25  C   UNL     1      20.296  -0.612  53.479  0.00  0.00    +0.000 A 
ENDBRANCH   9  20
BRANCH   2  26
ATOM     26  O   UNL     1      26.489   4.116  50.359  0.00  0.00    +0.000 OA
ATOM     27  H   UNL     1      27.398   4.346  50.363  0.00  0.00    +0.000 HD
ENDBRANCH   2  26
BRANCH   4  28
ATOM     28  O   UNL     1      27.426   0.548  53.371  0.00  0.00    +0.000 OA
ATOM     29  H   UNL     1      27.861  -0.208  53.030  0.00  0.00    +0.000 HD
ENDBRANCH   4  28
TORSDOF 4
ENDMDL
MODEL 7
REMARK VINA RESULT:    -8.018      3.206      7.712
REMARK INTER + INTRA:         -10.085
REMARK INTER:                  -9.233
REMARK INTRA:                  -0.852
REMARK UNBOUND:                -0.661
REMARK  Name = 
REMARK  5 active torsions:
REMARK  status: ('A' for Active; 'I' for Inactive)
REMARK    1  A    between atoms: C_1  and  N_2
REMARK    2  A    between atoms: C_5  and  C_6
REMARK    3  A    between atoms: C_7  and  O_8
REMARK    4  A    between atoms: C_10  and  O_11
REMARK    5  A    between atoms: C_16  and  C_17
REMARK                            x       y       z     vdW  Elec       q    Type
REMARK                         _______ _______ _______ _____ _____    ______ ____
ROOT
ATOM      1  C   UNL     1      23.274   3.560  49.699  0.00  0.00    +0.000 A 
ATOM      2  C   UNL     1      24.051   4.503  49.009  0.00  0.00    +0.000 A 
ATOM      3  C   UNL     1      25.429   4.592  49.211  0.00  0.00    +0.000 A 
ATOM      4  C   UNL     1      26.050   3.727  50.113  0.00  0.00    +0.000 A 
ATOM      5  C   UNL     1      25.297   2.777  50.819  0.00  0.00    +0.000 A 
ATOM      6  C   UNL     1      25.917   1.842  51.787  0.00  0.00    +0.000 A 
ATOM      7  O   UNL     1      27.117   1.756  52.008  0.00  0.00    +0.000 OA
ATOM      8  C   UNL     1      25.002   0.953  52.524  0.00  0.00    +0.000 A 
ATOM      9  C   UNL     1      23.687   0.999  52.272  0.00  0.00    +0.000 A 
ATOM     10  O   UNL     1      23.116   1.811  51.306  0.00  0.00    +0.000 OA
ATOM     11  C   UNL     1      23.912   2.701  50.618  0.00  0.00    +0.000 A 
ENDROOT
BRANCH   1  16
ATOM     12  C   UNL     1      18.055   2.193  49.681  0.00  0.00    +0.000 C 
ATOM     13  N   UNL     1      18.929   3.186  49.081  0.00  0.00    +0.000 N 
ATOM     14  C   UNL     1      19.467   4.149  50.034  0.00  0.00    +0.000 C 
ATOM     15  C   UNL     1      20.956   4.180  50.216  0.00  0.00    +0.000 C 
ATOM     16  C   UNL     1      21.819   3.477  49.466  0.00  0.00    +0.000 C 
ATOM     17  C   UNL     1      21.344   2.579  48.368  0.00  0.00    +0.000 C 
ATOM     18  C   UNL     1      19.839   2.676  48.059  0.00  0.00    +0.000 C 
ATOM     19  H   UNL     1      18.318   3.769  48.508  0.00  0.00    +0.000 HD
ENDBRANCH   1  16
BRANCH   9  20
ATOM     20  C   UNL     1      22.728   0.147  53.007  0.00  0.00    +0.000 A 
ATOM     21  C   UNL     1      23.140  -0.701  54.044  0.00  0.00    +0.000 A 
ATOM     22  C   UNL     1      22.192  -1.465  54.705  0.00  0.00    +0.000 A 
ATOM     23  N   UNL     1      20.875  -1.441  54.416  0.00  0.00    +0.000 NA
ATOM     24  C   UNL     1      20.491  -0.610  53.427  0.00  0.00    +0.000 A 
ATOM     25  C   UNL     1      21.363   0.192  52.706  0.00  0.00    +0.000 A 
ENDBRANCH   9  20
BRANCH   2  26
ATOM     26  O   UNL     1      23.446   5.361  48.128  0.00  0.00    +0.000 OA
ATOM     27  H   UNL     1      22.695   5.855  48.395  0.00  0.00    +0.000 HD
ENDBRANCH   2  26
BRANCH   4  28
ATOM     28  O   UNL     1      27.396   3.833  50.304  0.00  0.00    +0.000 OA
ATOM     29  H   UNL     1      27.770   3.626  51.138  0.00  0.00    +0.000 HD
ENDBRANCH   4  28
TORSDOF 4
ENDMDL
MODEL 8
REMARK VINA RESULT:    -7.724      2.769      6.540
REMARK INTER + INTRA:          -9.740
REMARK INTER:                  -8.962
REMARK INTRA:                  -0.778
REMARK UNBOUND:                -0.661
REMARK  Name = 
REMARK  5 active torsions:
REMARK  status: ('A' for Active; 'I' for Inactive)
REMARK    1  A    between atoms: C_1  and  N_2
REMARK    2  A    between atoms: C_5  and  C_6
REMARK    3  A    between atoms: C_7  and  O_8
REMARK    4  A    between atoms: C_10  and  O_11
REMARK    5  A    between atoms: C_16  and  C_17
REMARK                            x       y       z     vdW  Elec       q    Type
REMARK                         _______ _______ _______ _____ _____    ______ ____
ROOT
ATOM      1  C   UNL     1      22.625   3.377  50.318  0.00  0.00    +0.000 A 
ATOM      2  C   UNL     1      21.873   4.322  49.603  0.00  0.00    +0.000 A 
ATOM      3  C   UNL     1      22.494   5.304  48.830  0.00  0.00    +0.000 A 
ATOM      4  C   UNL     1      23.888   5.348  48.761  0.00  0.00    +0.000 A 
ATOM      5  C   UNL     1      24.663   4.417  49.468  0.00  0.00    +0.000 A 
ATOM      6  C   UNL     1      26.144   4.430  49.423  0.00  0.00    +0.000 A 
ATOM      7  O   UNL     1      26.818   5.182  48.732  0.00  0.00    +0.000 OA
ATOM      8  C   UNL     1      26.838   3.453  50.279  0.00  0.00    +0.000 A 
ATOM      9  C   UNL     1      26.124   2.591  51.015  0.00  0.00    +0.000 A 
ATOM     10  O   UNL     1      24.742   2.520  50.992  0.00  0.00    +0.000 OA
ATOM     11  C   UNL     1      24.032   3.440  50.250  0.00  0.00    +0.000 A 
ENDROOT
BRANCH   1  16
ATOM     12  C   UNL     1      21.429  -0.763  53.565  0.00  0.00    +0.000 C 
ATOM     13  N   UNL     1      20.741   0.228  52.756  0.00  0.00    +0.000 N 
ATOM     14  C   UNL     1      20.865   1.589  53.260  0.00  0.00    +0.000 C 
ATOM     15  C   UNL     1      21.559   2.589  52.384  0.00  0.00    +0.000 C 
ATOM     16  C   UNL     1      21.950   2.342  51.124  0.00  0.00    +0.000 C 
ATOM     17  C   UNL     1      21.721   1.007  50.487  0.00  0.00    +0.000 C 
ATOM     18  C   UNL     1      20.856   0.036  51.312  0.00  0.00    +0.000 C 
ATOM     19  H   UNL     1      19.748   0.038  52.888  0.00  0.00    +0.000 HD
ENDBRANCH   1  16
BRANCH   9  20
ATOM     20  C   UNL     1      26.777   1.611  51.910  0.00  0.00    +0.000 A 
ATOM     21  C   UNL     1      26.493   0.241  51.834  0.00  0.00    +0.000 A 
ATOM     22  C   UNL     1      27.148  -0.630  52.691  0.00  0.00    +0.000 A 
ATOM     23  N   UNL     1      28.060  -0.240  53.603  0.00  0.00    +0.000 NA
ATOM     24  C   UNL     1      28.334   1.079  53.655  0.00  0.00    +0.000 A 
ATOM     25  C   UNL     1      27.732   2.028  52.843  0.00  0.00    +0.000 A 
ENDBRANCH   9  20
BRANCH   2  26
ATOM     26  O   UNL     1      20.505   4.289  49.673  0.00  0.00    +0.000 OA
ATOM     27  H   UNL     1      20.026   5.073  49.858  0.00  0.00    +0.000 HD
ENDBRANCH   2  26
BRANCH   4  28
ATOM     28  O   UNL     1      24.477   6.319  48.006  0.00  0.00    +0.000 OA
ATOM     29  H   UNL     1      25.018   6.967  48.414  0.00  0.00    +0.000 HD
ENDBRANCH   4  28
TORSDOF 4
ENDMDL
MODEL 9
REMARK VINA RESULT:    -7.419      2.982      5.388
REMARK INTER + INTRA:          -9.382
REMARK INTER:                  -8.821
REMARK INTRA:                  -0.561
REMARK UNBOUND:                -0.661
REMARK  Name = 
REMARK  5 active torsions:
REMARK  status: ('A' for Active; 'I' for Inactive)
REMARK    1  A    between atoms: C_1  and  N_2
REMARK    2  A    between atoms: C_5  and  C_6
REMARK    3  A    between atoms: C_7  and  O_8
REMARK    4  A    between atoms: C_10  and  O_11
REMARK    5  A    between atoms: C_16  and  C_17
REMARK                            x       y       z     vdW  Elec       q    Type
REMARK                         _______ _______ _______ _____ _____    ______ ____
ROOT
ATOM      1  C   UNL     1      24.282   0.754  53.097  0.00  0.00    +0.000 A 
ATOM      2  C   UNL     1      25.405   0.499  53.900  0.00  0.00    +0.000 A 
ATOM      3  C   UNL     1      26.650   1.054  53.599  0.00  0.00    +0.000 A 
ATOM      4  C   UNL     1      26.783   1.880  52.483  0.00  0.00    +0.000 A 
ATOM      5  C   UNL     1      25.678   2.149  51.661  0.00  0.00    +0.000 A 
ATOM      6  C   UNL     1      25.779   3.020  50.467  0.00  0.00    +0.000 A 
ATOM      7  O   UNL     1      26.782   3.630  50.126  0.00  0.00    +0.000 OA
ATOM      8  C   UNL     1      24.564   3.151  49.643  0.00  0.00    +0.000 A 
ATOM      9  C   UNL     1      23.440   2.525  50.015  0.00  0.00    +0.000 A 
ATOM     10  O   UNL     1      23.321   1.782  51.177  0.00  0.00    +0.000 OA
ATOM     11  C   UNL     1      24.434   1.580  51.965  0.00  0.00    +0.000 A 
ENDROOT
BRANCH   1  16
ATOM     12  C   UNL     1      19.211  -1.089  53.049  0.00  0.00    +0.000 C 
ATOM     13  N   UNL     1      20.324  -0.968  53.976  0.00  0.00    +0.000 N 
ATOM     14  C   UNL     1      21.456  -1.826  53.651  0.00  0.00    +0.000 C 
ATOM     15  C   UNL     1      22.757  -1.156  53.321  0.00  0.00    +0.000 C 
ATOM     16  C   UNL     1      22.973   0.163  53.436  0.00  0.00    +0.000 C 
ATOM     17  C   UNL     1      21.897   1.089  53.908  0.00  0.00    +0.000 C 
ATOM     18  C   UNL     1      20.620   0.393  54.415  0.00  0.00    +0.000 C 
ATOM     19  H   UNL     1      19.989  -1.374  54.850  0.00  0.00    +0.000 HD
ENDBRANCH   1  16
BRANCH   9  20
ATOM     20  C   UNL     1      22.205   2.604  49.205  0.00  0.00    +0.000 A 
ATOM     21  C   UNL     1      20.970   2.167  49.701  0.00  0.00    +0.000 A 
ATOM     22  C   UNL     1      19.845   2.279  48.898  0.00  0.00    +0.000 A 
ATOM     23  N   UNL     1      19.861   2.798  47.655  0.00  0.00    +0.000 NA
ATOM     24  C   UNL     1      21.053   3.227  47.196  0.00  0.00    +0.000 A 
ATOM     25  C   UNL     1      22.233   3.156  47.920  0.00  0.00    +0.000 A 
ENDBRANCH   9  20
BRANCH   2  26
ATOM     26  O   UNL     1      25.281  -0.318  54.993  0.00  0.00    +0.000 OA
ATOM     27  H   UNL     1      25.925  -0.292  55.674  0.00  0.00    +0.000 HD
ENDBRANCH   2  26
BRANCH   4  28
ATOM     28  O   UNL     1      28.009   2.409  52.200  0.00  0.00    +0.000 OA
ATOM     29  H   UNL     1      28.599   2.623  52.896  0.00  0.00    +0.000 HD
ENDBRANCH   4  28
TORSDOF 4
ENDMDL
