MODEL 1
REMARK VINA RESULT:    -9.104      0.000      0.000
REMARK INTER + INTRA:         -10.405
REMARK INTER:                 -10.434
REMARK INTRA:                   0.029
REMARK UNBOUND:                 0.029
REMARK  Name = 
REMARK  4 active torsions:
REMARK  status: ('A' for Active; 'I' for Inactive)
REMARK    1  A    between atoms: C_1  and  C_2
REMARK    2  A    between atoms: C_10  and  C_11
REMARK    3  A    between atoms: C_14  and  N_15
REMARK    4  A    between atoms: C_20  and  C_22
REMARK                            x       y       z     vdW  Elec       q    Type
REMARK                         _______ _______ _______ _____ _____    ______ ____
ROOT
ATOM      1  C   UNL     1      22.737   5.546  51.746  0.00  0.00    +0.000 C 
ATOM      2  C   UNL     1      23.658   4.322  51.767  0.00  0.00    +0.000 C 
ATOM      3  C   UNL     1      23.848   3.804  53.205  0.00  0.00    +0.000 C 
ATOM      4  C   UNL     1      24.515   2.451  53.187  0.00  0.00    +0.000 A 
ATOM      5  C   UNL     1      25.849   2.280  53.577  0.00  0.00    +0.000 A 
ATOM      6  C   UNL     1      26.406   1.026  53.415  0.00  0.00    +0.000 A 
ATOM      7  C   UNL     1      25.687  -0.038  52.922  0.00  0.00    +0.000 A 
ATOM      8  C   UNL     1      24.371   0.082  52.548  0.00  0.00    +0.000 A 
ATOM      9  C   UNL     1      23.788   1.348  52.673  0.00  0.00    +0.000 A 
ATOM     10  C   UNL     1      22.409   1.567  52.154  0.00  0.00    +0.000 C 
ATOM     11  N   UNL     1      22.118   2.468  51.256  0.00  0.00    +0.000 NA
ATOM     12  N   UNL     1      23.159   3.283  50.839  0.00  0.00    +0.000 N 
ATOM     13  C   UNL     1      23.527   3.315  49.490  0.00  0.00    +0.000 C 
ATOM     14  O   UNL     1      24.387   4.066  49.034  0.00  0.00    +0.000 OA
ATOM     15  O   UNL     1      26.436  -1.170  52.821  0.00  0.00    +0.000 OA
ATOM     16  C   UNL     1      27.736  -0.659  53.179  0.00  0.00    +0.000 C 
ATOM     17  O   UNL     1      27.702   0.694  53.678  0.00  0.00    +0.000 OA
ENDROOT
BRANCH  10  18
ATOM     18  C   UNL     1      21.332   0.671  52.671  0.00  0.00    +0.000 A 
ATOM     19  C   UNL     1      21.534  -0.090  53.825  0.00  0.00    +0.000 A 
ATOM     20  C   UNL     1      20.559  -0.995  54.244  0.00  0.00    +0.000 A 
ATOM     21  C   UNL     1      19.387  -1.171  53.506  0.00  0.00    +0.000 A 
ATOM     22  C   UNL     1      19.141  -0.320  52.422  0.00  0.00    +0.000 A 
ATOM     23  C   UNL     1      20.115   0.589  51.992  0.00  0.00    +0.000 A 
BRANCH  21  24
ATOM     24  N   UNL     1      18.382  -2.025  53.976  0.00  0.00    +0.000 N 
ATOM     25  H   UNL     1      17.598  -2.217  53.413  0.00  0.00    +0.000 HD
ATOM     26  H   UNL     1      18.460  -2.431  54.869  0.00  0.00    +0.000 HD
ENDBRANCH  21  24
ENDBRANCH  10  18
BRANCH  13  27
ATOM     27  C   UNL     1      22.858   2.316  48.590  0.00  0.00    +0.000 C 
ATOM     28  C   UNL     1      22.316   2.754  47.247  0.00  0.00    +0.000 C 
ATOM     29  C   UNL     1      21.369   2.357  48.342  0.00  0.00    +0.000 C 
ENDBRANCH  13  27
TORSDOF 3
ENDMDL
MODEL 2
REMARK VINA RESULT:    -7.902      3.776      5.474
REMARK INTER + INTRA:          -9.027
REMARK INTER:                  -9.076
REMARK INTRA:                   0.049
REMARK UNBOUND:                 0.029
REMARK  Name = 
REMARK  4 active torsions:
REMARK  status: ('A' for Active; 'I' for Inactive)
REMARK    1  A    between atoms: C_1  and  C_2
REMARK    2  A    between atoms: C_10  and  C_11
REMARK    3  A    between atoms: C_14  and  N_15
REMARK    4  A    between atoms: C_20  and  C_22
REMARK                            x       y       z     vdW  Elec       q    Type
REMARK                         _______ _______ _______ _____ _____    ______ ____
ROOT
ATOM      1  C   UNL     1      21.567   5.939  51.074  0.00  0.00    +0.000 C 
ATOM      2  C   UNL     1      22.847   5.878  50.234  0.00  0.00    +0.000 C 
ATOM      3  C   UNL     1      24.059   6.375  51.046  0.00  0.00    +0.000 C 
ATOM      4  C   UNL     1      25.341   6.049  50.319  0.00  0.00    +0.000 A 
ATOM      5  C   UNL     1      26.103   7.039  49.687  0.00  0.00    +0.000 A 
ATOM      6  C   UNL     1      27.196   6.629  48.949  0.00  0.00    +0.000 A 
ATOM      7  C   UNL     1      27.562   5.306  48.851  0.00  0.00    +0.000 A 
ATOM      8  C   UNL     1      26.854   4.307  49.473  0.00  0.00    +0.000 A 
ATOM      9  C   UNL     1      25.723   4.690  50.204  0.00  0.00    +0.000 A 
ATOM     10  C   UNL     1      24.842   3.637  50.783  0.00  0.00    +0.000 C 
ATOM     11  N   UNL     1      23.571   3.539  50.506  0.00  0.00    +0.000 NA
ATOM     12  N   UNL     1      23.040   4.519  49.682  0.00  0.00    +0.000 N 
ATOM     13  C   UNL     1      22.440   4.165  48.469  0.00  0.00    +0.000 C 
ATOM     14  O   UNL     1      21.882   4.968  47.723  0.00  0.00    +0.000 OA
ATOM     15  O   UNL     1      28.650   5.125  48.056  0.00  0.00    +0.000 OA
ATOM     16  C   UNL     1      28.843   6.466  47.560  0.00  0.00    +0.000 C 
ATOM     17  O   UNL     1      28.010   7.443  48.218  0.00  0.00    +0.000 OA
ENDROOT
BRANCH  10  18
ATOM     18  C   UNL     1      25.477   2.633  51.686  0.00  0.00    +0.000 A 
ATOM     19  C   UNL     1      26.311   1.637  51.169  0.00  0.00    +0.000 A 
ATOM     20  C   UNL     1      26.820   0.647  52.009  0.00  0.00    +0.000 A 
ATOM     21  C   UNL     1      26.485   0.622  53.364  0.00  0.00    +0.000 A 
ATOM     22  C   UNL     1      25.750   1.689  53.895  0.00  0.00    +0.000 A 
ATOM     23  C   UNL     1      25.232   2.684  53.060  0.00  0.00    +0.000 A 
BRANCH  21  24
ATOM     24  N   UNL     1      27.063  -0.330  54.212  0.00  0.00    +0.000 N 
ATOM     25  H   UNL     1      26.942  -0.258  55.187  0.00  0.00    +0.000 HD
ATOM     26  H   UNL     1      27.591  -1.070  53.834  0.00  0.00    +0.000 HD
ENDBRANCH  21  24
ENDBRANCH  10  18
BRANCH  13  27
ATOM     27  C   UNL     1      22.559   2.726  48.057  0.00  0.00    +0.000 C 
ATOM     28  C   UNL     1      21.333   1.966  47.603  0.00  0.00    +0.000 C 
ATOM     29  C   UNL     1      21.988   1.616  48.908  0.00  0.00    +0.000 C 
ENDBRANCH  13  27
TORSDOF 3
ENDMDL
MODEL 3
REMARK VINA RESULT:    -7.884      3.231      6.489
REMARK INTER + INTRA:          -9.006
REMARK INTER:                  -9.205
REMARK INTRA:                   0.199
REMARK UNBOUND:                 0.029
REMARK  Name = 
REMARK  4 active torsions:
REMARK  status: ('A' for Active; 'I' for Inactive)
REMARK    1  A    between atoms: C_1  and  C_2
REMARK    2  A    between atoms: C_10  and  C_11
REMARK    3  A    between atoms: C_14  and  N_15
REMARK    4  A    between atoms: C_20  and  C_22
REMARK                            x       y       z     vdW  Elec       q    Type
REMARK                         _______ _______ _______ _____ _____    ______ ____
ROOT
ATOM      1  C   UNL     1      20.330   4.200  46.893  0.00  0.00    +0.000 C 
ATOM      2  C   UNL     1      20.662   3.664  48.289  0.00  0.00    +0.000 C 
ATOM      3  C   UNL     1      21.595   2.441  48.198  0.00  0.00    +0.000 C 
ATOM      4  C   UNL     1      22.139   2.099  49.564  0.00  0.00    +0.000 A 
ATOM      5  C   UNL     1      21.700   0.973  50.272  0.00  0.00    +0.000 A 
ATOM      6  C   UNL     1      22.168   0.807  51.561  0.00  0.00    +0.000 A 
ATOM      7  C   UNL     1      23.058   1.684  52.137  0.00  0.00    +0.000 A 
ATOM      8  C   UNL     1      23.529   2.788  51.470  0.00  0.00    +0.000 A 
ATOM      9  C   UNL     1      23.049   2.999  50.172  0.00  0.00    +0.000 A 
ATOM     10  C   UNL     1      23.419   4.251  49.455  0.00  0.00    +0.000 C 
ATOM     11  N   UNL     1      22.538   5.097  48.994  0.00  0.00    +0.000 NA
ATOM     12  N   UNL     1      21.206   4.743  49.142  0.00  0.00    +0.000 N 
ATOM     13  C   UNL     1      20.337   5.571  49.862  0.00  0.00    +0.000 C 
ATOM     14  O   UNL     1      19.131   5.363  49.972  0.00  0.00    +0.000 OA
ATOM     15  O   UNL     1      23.365   1.346  53.418  0.00  0.00    +0.000 OA
ATOM     16  C   UNL     1      22.465   0.237  53.623  0.00  0.00    +0.000 C 
ATOM     17  O   UNL     1      21.800  -0.189  52.416  0.00  0.00    +0.000 OA
ENDROOT
BRANCH  10  18
ATOM     18  C   UNL     1      24.874   4.551  49.306  0.00  0.00    +0.000 A 
ATOM     19  C   UNL     1      25.306   5.846  49.008  0.00  0.00    +0.000 A 
ATOM     20  C   UNL     1      26.658   6.095  48.776  0.00  0.00    +0.000 A 
ATOM     21  C   UNL     1      27.590   5.056  48.812  0.00  0.00    +0.000 A 
ATOM     22  C   UNL     1      27.166   3.788  49.230  0.00  0.00    +0.000 A 
ATOM     23  C   UNL     1      25.811   3.528  49.461  0.00  0.00    +0.000 A 
BRANCH  21  24
ATOM     24  N   UNL     1      28.953   5.329  48.654  0.00  0.00    +0.000 N 
ATOM     25  H   UNL     1      29.272   5.787  47.844  0.00  0.00    +0.000 HD
ATOM     26  H   UNL     1      29.593   5.062  49.353  0.00  0.00    +0.000 HD
ENDBRANCH  21  24
ENDBRANCH  10  18
BRANCH  13  27
ATOM     27  C   UNL     1      20.960   6.733  50.580  0.00  0.00    +0.000 C 
ATOM     28  C   UNL     1      20.579   8.147  50.203  0.00  0.00    +0.000 C 
ATOM     29  C   UNL     1      21.956   7.638  49.893  0.00  0.00    +0.000 C 
ENDBRANCH  13  27
TORSDOF 3
ENDMDL
MODEL 4
REMARK VINA RESULT:    -7.574      3.286      7.631
REMARK INTER + INTRA:          -8.651
REMARK INTER:                  -8.277
REMARK INTRA:                  -0.375
REMARK UNBOUND:                 0.029
REMARK  Name = 
REMARK  4 active torsions:
REMARK  status: ('A' for Active; 'I' for Inactive)
REMARK    1  A    between atoms: C_1  and  C_2
REMARK    2  A    between atoms: C_10  and  C_11
REMARK    3  A    between atoms: C_14  and  N_15
REMARK    4  A    between atoms: C_20  and  C_22
REMARK                            x       y       z     vdW  Elec       q    Type
REMARK                         _______ _______ _______ _____ _____    ______ ____
ROOT
ATOM      1  C   UNL     1      23.983   4.734  54.071  0.00  0.00    +0.000 C 
ATOM      2  C   UNL     1      23.376   4.182  52.777  0.00  0.00    +0.000 C 
ATOM      3  C   UNL     1      22.856   5.325  51.885  0.00  0.00    +0.000 C 
ATOM      4  C   UNL     1      22.524   4.801  50.509  0.00  0.00    +0.000 A 
ATOM      5  C   UNL     1      21.201   4.650  50.076  0.00  0.00    +0.000 A 
ATOM      6  C   UNL     1      20.995   4.054  48.847  0.00  0.00    +0.000 A 
ATOM      7  C   UNL     1      22.036   3.645  48.046  0.00  0.00    +0.000 A 
ATOM      8  C   UNL     1      23.348   3.794  48.424  0.00  0.00    +0.000 A 
ATOM      9  C   UNL     1      23.587   4.368  49.678  0.00  0.00    +0.000 A 
ATOM     10  C   UNL     1      24.982   4.427  50.196  0.00  0.00    +0.000 C 
ATOM     11  N   UNL     1      25.347   3.890  51.328  0.00  0.00    +0.000 NA
ATOM     12  N   UNL     1      24.345   3.304  52.085  0.00  0.00    +0.000 N 
ATOM     13  C   UNL     1      24.421   1.947  52.418  0.00  0.00    +0.000 C 
ATOM     14  O   UNL     1      23.612   1.376  53.147  0.00  0.00    +0.000 OA
ATOM     15  O   UNL     1      21.608   3.061  46.894  0.00  0.00    +0.000 OA
ATOM     16  C   UNL     1      20.185   3.030  47.127  0.00  0.00    +0.000 C 
ATOM     17  O   UNL     1      19.780   3.769  48.298  0.00  0.00    +0.000 OA
ENDROOT
BRANCH  10  18
ATOM     18  C   UNL     1      26.003   5.101  49.340  0.00  0.00    +0.000 A 
ATOM     19  C   UNL     1      27.245   4.504  49.110  0.00  0.00    +0.000 A 
ATOM     20  C   UNL     1      28.225   5.186  48.390  0.00  0.00    +0.000 A 
ATOM     21  C   UNL     1      27.990   6.478  47.915  0.00  0.00    +0.000 A 
ATOM     22  C   UNL     1      26.705   7.019  48.045  0.00  0.00    +0.000 A 
ATOM     23  C   UNL     1      25.716   6.343  48.769  0.00  0.00    +0.000 A 
BRANCH  21  24
ATOM     24  N   UNL     1      28.951   7.123  47.128  0.00  0.00    +0.000 N 
ATOM     25  H   UNL     1      28.678   7.829  46.499  0.00  0.00    +0.000 HD
ATOM     26  H   UNL     1      29.899   6.869  47.204  0.00  0.00    +0.000 HD
ENDBRANCH  21  24
ENDBRANCH  10  18
BRANCH  13  27
ATOM     27  C   UNL     1      25.530   1.162  51.779  0.00  0.00    +0.000 C 
ATOM     28  C   UNL     1      26.157   0.000  52.519  0.00  0.00    +0.000 C 
ATOM     29  C   UNL     1      26.950   1.254  52.287  0.00  0.00    +0.000 C 
ENDBRANCH  13  27
TORSDOF 3
ENDMDL
MODEL 5
REMARK VINA RESULT:    -7.574      2.958      5.768
REMARK INTER + INTRA:          -8.651
REMARK INTER:                  -8.593
REMARK INTRA:                  -0.058
REMARK UNBOUND:                 0.029
REMARK  Name = 
REMARK  4 active torsions:
REMARK  status: ('A' for Active; 'I' for Inactive)
REMARK    1  A    between atoms: C_1  and  C_2
REMARK    2  A    between atoms: C_10  and  C_11
REMARK    3  A    between atoms: C_14  and  N_15
REMARK    4  A    between atoms: C_20  and  C_22
REMARK                            x       y       z     vdW  Elec       q    Type
REMARK                         _______ _______ _______ _____ _____    ______ ____
ROOT
ATOM      1  C   UNL     1      22.362   3.752  47.265  0.00  0.00    +0.000 C 
ATOM      2  C   UNL     1      21.669   3.193  48.512  0.00  0.00    +0.000 C 
ATOM      3  C   UNL     1      22.019   1.707  48.714  0.00  0.00    +0.000 C 
ATOM      4  C   UNL     1      21.569   1.247  50.079  0.00  0.00    +0.000 A 
ATOM      5  C   UNL     1      20.465   0.402  50.246  0.00  0.00    +0.000 A 
ATOM      6  C   UNL     1      20.059   0.131  51.538  0.00  0.00    +0.000 A 
ATOM      7  C   UNL     1      20.719   0.634  52.636  0.00  0.00    +0.000 A 
ATOM      8  C   UNL     1      21.818   1.448  52.516  0.00  0.00    +0.000 A 
ATOM      9  C   UNL     1      22.235   1.765  51.218  0.00  0.00    +0.000 A 
ATOM     10  C   UNL     1      23.334   2.752  51.029  0.00  0.00    +0.000 C 
ATOM     11  N   UNL     1      23.199   3.846  50.329  0.00  0.00    +0.000 NA
ATOM     12  N   UNL     1      21.981   4.026  49.695  0.00  0.00    +0.000 N 
ATOM     13  C   UNL     1      21.201   5.152  49.983  0.00  0.00    +0.000 C 
ATOM     14  O   UNL     1      20.147   5.418  49.407  0.00  0.00    +0.000 OA
ATOM     15  O   UNL     1      20.136   0.263  53.808  0.00  0.00    +0.000 OA
ATOM     16  C   UNL     1      18.961  -0.415  53.316  0.00  0.00    +0.000 C 
ATOM     17  O   UNL     1      18.971  -0.614  51.888  0.00  0.00    +0.000 OA
ENDROOT
BRANCH  10  18
ATOM     18  C   UNL     1      24.629   2.476  51.718  0.00  0.00    +0.000 A 
ATOM     19  C   UNL     1      25.727   1.992  51.003  0.00  0.00    +0.000 A 
ATOM     20  C   UNL     1      26.901   1.647  51.672  0.00  0.00    +0.000 A 
ATOM     21  C   UNL     1      26.985   1.753  53.062  0.00  0.00    +0.000 A 
ATOM     22  C   UNL     1      25.925   2.351  53.756  0.00  0.00    +0.000 A 
ATOM     23  C   UNL     1      24.743   2.698  53.092  0.00  0.00    +0.000 A 
BRANCH  21  24
ATOM     24  N   UNL     1      28.191   1.477  53.716  0.00  0.00    +0.000 N 
ATOM     25  H   UNL     1      28.358   0.578  54.080  0.00  0.00    +0.000 HD
ATOM     26  H   UNL     1      28.871   2.182  53.812  0.00  0.00    +0.000 HD
ENDBRANCH  21  24
ENDBRANCH  10  18
BRANCH  13  27
ATOM     27  C   UNL     1      21.674   6.025  51.108  0.00  0.00    +0.000 C 
ATOM     28  C   UNL     1      21.576   7.530  50.990  0.00  0.00    +0.000 C 
ATOM     29  C   UNL     1      22.922   6.866  50.977  0.00  0.00    +0.000 C 
ENDBRANCH  13  27
TORSDOF 3
ENDMDL
MODEL 6
REMARK VINA RESULT:    -7.489      3.242      5.087
REMARK INTER + INTRA:          -8.554
REMARK INTER:                  -8.522
REMARK INTRA:                  -0.032
REMARK UNBOUND:                 0.029
REMARK  Name = 
REMARK  4 active torsions:
REMARK  status: ('A' for Active; 'I' for Inactive)
REMARK    1  A    between atoms: C_1  and  C_2
REMARK    2  A    between atoms: C_10  and  C_11
REMARK    3  A    between atoms: C_14  and  N_15
REMARK    4  A    between atoms: C_20  and  C_22
REMARK                            x       y       z     vdW  Elec       q    Type
REMARK                         _______ _______ _______ _____ _____    ______ ____
ROOT
ATOM      1  C   UNL     1      20.031   3.738  52.450  0.00  0.00    +0.000 C 
ATOM      2  C   UNL     1      21.180   4.311  51.615  0.00  0.00    +0.000 C 
ATOM      3  C   UNL     1      22.316   4.820  52.523  0.00  0.00    +0.000 C 
ATOM      4  C   UNL     1      23.546   5.116  51.700  0.00  0.00    +0.000 A 
ATOM      5  C   UNL     1      23.961   6.428  51.440  0.00  0.00    +0.000 A 
ATOM      6  C   UNL     1      25.030   6.601  50.581  0.00  0.00    +0.000 A 
ATOM      7  C   UNL     1      25.697   5.538  50.017  0.00  0.00    +0.000 A 
ATOM      8  C   UNL     1      25.336   4.237  50.263  0.00  0.00    +0.000 A 
ATOM      9  C   UNL     1      24.237   4.031  51.106  0.00  0.00    +0.000 A 
ATOM     10  C   UNL     1      23.717   2.648  51.297  0.00  0.00    +0.000 C 
ATOM     11  N   UNL     1      22.487   2.305  51.031  0.00  0.00    +0.000 NA
ATOM     12  N   UNL     1      21.639   3.319  50.616  0.00  0.00    +0.000 N 
ATOM     13  C   UNL     1      21.009   3.240  49.369  0.00  0.00    +0.000 C 
ATOM     14  O   UNL     1      20.187   4.061  48.966  0.00  0.00    +0.000 OA
ATOM     15  O   UNL     1      26.698   5.935  49.185  0.00  0.00    +0.000 OA
ATOM     16  C   UNL     1      26.494   7.364  49.189  0.00  0.00    +0.000 C 
ATOM     17  O   UNL     1      25.526   7.801  50.165  0.00  0.00    +0.000 OA
ENDROOT
BRANCH  10  18
ATOM     18  C   UNL     1      24.681   1.614  51.776  0.00  0.00    +0.000 A 
ATOM     19  C   UNL     1      24.248   0.555  52.579  0.00  0.00    +0.000 A 
ATOM     20  C   UNL     1      25.173  -0.350  53.100  0.00  0.00    +0.000 A 
ATOM     21  C   UNL     1      26.538  -0.196  52.850  0.00  0.00    +0.000 A 
ATOM     22  C   UNL     1      26.949   0.793  51.948  0.00  0.00    +0.000 A 
ATOM     23  C   UNL     1      26.029   1.707  51.423  0.00  0.00    +0.000 A 
BRANCH  21  24
ATOM     24  N   UNL     1      27.448  -1.153  53.313  0.00  0.00    +0.000 N 
ATOM     25  H   UNL     1      27.382  -1.488  54.236  0.00  0.00    +0.000 HD
ATOM     26  H   UNL     1      28.155  -1.489  52.717  0.00  0.00    +0.000 HD
ENDBRANCH  21  24
ENDBRANCH  10  18
BRANCH  13  27
ATOM     27  C   UNL     1      21.433   2.111  48.476  0.00  0.00    +0.000 C 
ATOM     28  C   UNL     1      22.764   2.173  47.759  0.00  0.00    +0.000 C 
ATOM     29  C   UNL     1      21.488   2.276  46.975  0.00  0.00    +0.000 C 
ENDBRANCH  13  27
TORSDOF 3
ENDMDL
MODEL 7
REMARK VINA RESULT:    -7.407      3.331      5.084
REMARK INTER + INTRA:          -8.460
REMARK INTER:                  -8.283
REMARK INTRA:                  -0.177
REMARK UNBOUND:                 0.029
REMARK  Name = 
REMARK  4 active torsions:
REMARK  status: ('A' for Active; 'I' for Inactive)
REMARK    1  A    between atoms: C_1  and  C_2
REMARK    2  A    between atoms: C_10  and  C_11
REMARK    3  A    between atoms: C_14  and  N_15
REMARK    4  A    between atoms: C_20  and  C_22
REMARK                            x       y       z     vdW  Elec       q    Type
REMARK                         _______ _______ _______ _____ _____    ______ ____
ROOT
ATOM      1  C   UNL     1      20.993   7.528  50.421  0.00  0.00    +0.000 C 
ATOM      2  C   UNL     1      22.327   7.144  49.773  0.00  0.00    +0.000 C 
ATOM      3  C   UNL     1      23.482   7.262  50.785  0.00  0.00    +0.000 C 
ATOM      4  C   UNL     1      24.729   6.619  50.229  0.00  0.00    +0.000 A 
ATOM      5  C   UNL     1      25.819   7.380  49.789  0.00  0.00    +0.000 A 
ATOM      6  C   UNL     1      26.866   6.709  49.188  0.00  0.00    +0.000 A 
ATOM      7  C   UNL     1      26.875   5.340  49.046  0.00  0.00    +0.000 A 
ATOM      8  C   UNL     1      25.837   4.555  49.483  0.00  0.00    +0.000 A 
ATOM      9  C   UNL     1      24.747   5.211  50.069  0.00  0.00    +0.000 A 
ATOM     10  C   UNL     1      23.537   4.423  50.435  0.00  0.00    +0.000 C 
ATOM     11  N   UNL     1      22.346   4.688  49.971  0.00  0.00    +0.000 NA
ATOM     12  N   UNL     1      22.235   5.802  49.155  0.00  0.00    +0.000 N 
ATOM     13  C   UNL     1      21.763   5.667  47.844  0.00  0.00    +0.000 C 
ATOM     14  O   UNL     1      21.566   6.616  47.088  0.00  0.00    +0.000 OA
ATOM     15  O   UNL     1      27.988   4.892  48.405  0.00  0.00    +0.000 OA
ATOM     16  C   UNL     1      28.608   6.143  48.044  0.00  0.00    +0.000 C 
ATOM     17  O   UNL     1      27.973   7.291  48.645  0.00  0.00    +0.000 OA
ENDROOT
BRANCH  10  18
ATOM     18  C   UNL     1      23.729   3.254  51.343  0.00  0.00    +0.000 A 
ATOM     19  C   UNL     1      24.466   3.383  52.523  0.00  0.00    +0.000 A 
ATOM     20  C   UNL     1      24.720   2.263  53.314  0.00  0.00    +0.000 A 
ATOM     21  C   UNL     1      24.266   1.001  52.927  0.00  0.00    +0.000 A 
ATOM     22  C   UNL     1      23.428   0.901  51.810  0.00  0.00    +0.000 A 
ATOM     23  C   UNL     1      23.170   2.019  51.009  0.00  0.00    +0.000 A 
BRANCH  21  24
ATOM     24  N   UNL     1      24.460  -0.102  53.766  0.00  0.00    +0.000 N 
ATOM     25  H   UNL     1      25.268  -0.657  53.670  0.00  0.00    +0.000 HD
ATOM     26  H   UNL     1      23.789  -0.324  54.450  0.00  0.00    +0.000 HD
ENDBRANCH  21  24
ENDBRANCH  10  18
BRANCH  13  27
ATOM     27  C   UNL     1      21.558   4.265  47.348  0.00  0.00    +0.000 C 
ATOM     28  C   UNL     1      20.182   3.811  46.913  0.00  0.00    +0.000 C 
ATOM     29  C   UNL     1      20.794   3.248  48.162  0.00  0.00    +0.000 C 
ENDBRANCH  13  27
TORSDOF 3
ENDMDL
MODEL 8
REMARK VINA RESULT:    -7.374      3.010      5.943
REMARK INTER + INTRA:          -8.422
REMARK INTER:                  -7.916
REMARK INTRA:                  -0.506
REMARK UNBOUND:                 0.029
REMARK  Name = 
REMARK  4 active torsions:
REMARK  status: ('A' for Active; 'I' for Inactive)
REMARK    1  A    between atoms: C_1  and  C_2
REMARK    2  A    between atoms: C_10  and  C_11
REMARK    3  A    between atoms: C_14  and  N_15
REMARK    4  A    between atoms: C_20  and  C_22
REMARK                            x       y       z     vdW  Elec       q    Type
REMARK                         _______ _______ _______ _____ _____    ______ ____
ROOT
ATOM      1  C   UNL     1      23.082   2.008  47.327  0.00  0.00    +0.000 C 
ATOM      2  C   UNL     1      21.947   2.602  48.166  0.00  0.00    +0.000 C 
ATOM      3  C   UNL     1      20.815   1.576  48.363  0.00  0.00    +0.000 C 
ATOM      4  C   UNL     1      19.846   2.065  49.412  0.00  0.00    +0.000 A 
ATOM      5  C   UNL     1      18.569   2.530  49.078  0.00  0.00    +0.000 A 
ATOM      6  C   UNL     1      17.798   3.065  50.092  0.00  0.00    +0.000 A 
ATOM      7  C   UNL     1      18.236   3.120  51.396  0.00  0.00    +0.000 A 
ATOM      8  C   UNL     1      19.473   2.655  51.769  0.00  0.00    +0.000 A 
ATOM      9  C   UNL     1      20.288   2.134  50.757  0.00  0.00    +0.000 A 
ATOM     10  C   UNL     1      21.688   1.744  51.082  0.00  0.00    +0.000 C 
ATOM     11  N   UNL     1      22.728   2.248  50.476  0.00  0.00    +0.000 NA
ATOM     12  N   UNL     1      22.472   3.135  49.443  0.00  0.00    +0.000 N 
ATOM     13  C   UNL     1      22.964   4.444  49.505  0.00  0.00    +0.000 C 
ATOM     14  O   UNL     1      22.842   5.263  48.596  0.00  0.00    +0.000 OA
ATOM     15  O   UNL     1      17.331   3.708  52.224  0.00  0.00    +0.000 OA
ATOM     16  C   UNL     1      16.337   4.136  51.269  0.00  0.00    +0.000 C 
ATOM     17  O   UNL     1      16.563   3.622  49.940  0.00  0.00    +0.000 OA
ENDROOT
BRANCH  10  18
ATOM     18  C   UNL     1      21.887   0.759  52.186  0.00  0.00    +0.000 A 
ATOM     19  C   UNL     1      20.820  -0.017  52.648  0.00  0.00    +0.000 A 
ATOM     20  C   UNL     1      20.994  -0.863  53.743  0.00  0.00    +0.000 A 
ATOM     21  C   UNL     1      22.222  -0.925  54.406  0.00  0.00    +0.000 A 
ATOM     22  C   UNL     1      23.315  -0.238  53.863  0.00  0.00    +0.000 A 
ATOM     23  C   UNL     1      23.149   0.615  52.767  0.00  0.00    +0.000 A 
BRANCH  21  24
ATOM     24  N   UNL     1      22.408  -1.833  55.454  0.00  0.00    +0.000 N 
ATOM     25  H   UNL     1      22.220  -2.790  55.315  0.00  0.00    +0.000 HD
ATOM     26  H   UNL     1      22.724  -1.515  56.330  0.00  0.00    +0.000 HD
ENDBRANCH  21  24
ENDBRANCH  10  18
BRANCH  13  27
ATOM     27  C   UNL     1      23.615   4.854  50.794  0.00  0.00    +0.000 C 
ATOM     28  C   UNL     1      22.768   5.357  51.942  0.00  0.00    +0.000 C 
ATOM     29  C   UNL     1      23.679   6.303  51.215  0.00  0.00    +0.000 C 
ENDBRANCH  13  27
TORSDOF 3
ENDMDL
MODEL 9
REMARK VINA RESULT:    -6.387      5.152      8.186
REMARK INTER + INTRA:          -7.291
REMARK INTER:                  -6.975
REMARK INTRA:                  -0.316
REMARK UNBOUND:                 0.029
REMARK  Name = 
REMARK  4 active torsions:
REMARK  status: ('A' for Active; 'I' for Inactive)
REMARK    1  A    between atoms: C_1  and  C_2
REMARK    2  A    between atoms: C_10  and  C_11
REMARK    3  A    between atoms: C_14  and  N_15
REMARK    4  A    between atoms: C_20  and  C_22
REMARK                            x       y       z     vdW  Elec       q    Type
REMARK                         _______ _______ _______ _____ _____    ______ ____
ROOT
ATOM      1  C   UNL     1      18.630   2.681  47.777  0.00  0.00    +0.000 C 
ATOM      2  C   UNL     1      17.713   3.149  48.912  0.00  0.00    +0.000 C 
ATOM      3  C   UNL     1      16.347   2.441  48.839  0.00  0.00    +0.000 C 
ATOM      4  C   UNL     1      15.564   2.690  50.105  0.00  0.00    +0.000 A 
ATOM      5  C   UNL     1      14.458   3.548  50.133  0.00  0.00    +0.000 A 
ATOM      6  C   UNL     1      13.878   3.803  51.360  0.00  0.00    +0.000 A 
ATOM      7  C   UNL     1      14.333   3.222  52.522  0.00  0.00    +0.000 A 
ATOM      8  C   UNL     1      15.400   2.359  52.535  0.00  0.00    +0.000 A 
ATOM      9  C   UNL     1      16.027   2.104  51.309  0.00  0.00    +0.000 A 
ATOM     10  C   UNL     1      17.272   1.286  51.287  0.00  0.00    +0.000 C 
ATOM     11  N   UNL     1      18.401   1.719  50.797  0.00  0.00    +0.000 NA
ATOM     12  N   UNL     1      18.383   2.979  50.221  0.00  0.00    +0.000 N 
ATOM     13  C   UNL     1      19.215   3.989  50.716  0.00  0.00    +0.000 C 
ATOM     14  O   UNL     1      19.309   5.106  50.212  0.00  0.00    +0.000 OA
ATOM     15  O   UNL     1      13.635   3.632  53.615  0.00  0.00    +0.000 OA
ATOM     16  C   UNL     1      12.783   4.635  53.025  0.00  0.00    +0.000 C 
ATOM     17  O   UNL     1      12.840   4.659  51.584  0.00  0.00    +0.000 OA
ENDROOT
BRANCH  10  18
ATOM     18  C   UNL     1      17.209  -0.074  51.898  0.00  0.00    +0.000 A 
ATOM     19  C   UNL     1      16.099  -0.897  51.690  0.00  0.00    +0.000 A 
ATOM     20  C   UNL     1      16.008  -2.125  52.344  0.00  0.00    +0.000 A 
ATOM     21  C   UNL     1      17.006  -2.536  53.231  0.00  0.00    +0.000 A 
ATOM     22  C   UNL     1      18.168  -1.762  53.339  0.00  0.00    +0.000 A 
ATOM     23  C   UNL     1      18.267  -0.527  52.690  0.00  0.00    +0.000 A 
BRANCH  21  24
ATOM     24  N   UNL     1      16.942  -3.802  53.822  0.00  0.00    +0.000 N 
ATOM     25  H   UNL     1      17.336  -4.579  53.363  0.00  0.00    +0.000 HD
ATOM     26  H   UNL     1      16.502  -3.916  54.695  0.00  0.00    +0.000 HD
ENDBRANCH  21  24
ENDBRANCH  10  18
BRANCH  13  27
ATOM     27  C   UNL     1      19.972   3.675  51.974  0.00  0.00    +0.000 C 
ATOM     28  C   UNL     1      21.386   4.184  52.153  0.00  0.00    +0.000 C 
ATOM     29  C   UNL     1      21.139   2.715  51.969  0.00  0.00    +0.000 C 
ENDBRANCH  13  27
TORSDOF 3
ENDMDL
