MODEL 1
REMARK VINA RESULT:    -9.350      0.000      0.000
REMARK INTER + INTRA:         -11.754
REMARK INTER:                 -11.263
REMARK INTRA:                  -0.491
REMARK UNBOUND:                -0.491
REMARK  Name = 
REMARK  9 active torsions:
REMARK  status: ('A' for Active; 'I' for Inactive)
REMARK    1  A    between atoms: C_1  and  C_2
REMARK    2  A    between atoms: C_2  and  C_3
REMARK    3  A    between atoms: C_3  and  C_4
REMARK    4  A    between atoms: C_16  and  C_17
REMARK    5  A    between atoms: C_16  and  C_18
REMARK    6  A    between atoms: C_22  and  C_23
REMARK    7  A    between atoms: C_23  and  C_24
REMARK    8  A    between atoms: C_25  and  C_26
REMARK    9  A    between atoms: C_27  and  O_28
REMARK                            x       y       z     vdW  Elec       q    Type
REMARK                         _______ _______ _______ _____ _____    ______ ____
ROOT
ATOM      1  C   UNL     1      22.231   0.965  52.772  0.00  0.00    +0.000 A 
ATOM      2  C   UNL     1      21.039   1.478  52.392  0.00  0.00    +0.000 A 
ATOM      3  C   UNL     1      20.784   2.911  52.255  0.00  0.00    +0.000 A 
ATOM      4  O   UNL     1      19.671   3.345  51.954  0.00  0.00    +0.000 OA
ATOM      5  O   UNL     1      21.840   3.733  52.506  0.00  0.00    +0.000 OA
ATOM      6  C   UNL     1      23.068   3.115  52.282  0.00  0.00    +0.000 A 
ATOM      7  C   UNL     1      23.812   3.635  51.247  0.00  0.00    +0.000 A 
ATOM      8  C   UNL     1      25.164   3.394  51.219  0.00  0.00    +0.000 A 
ATOM      9  C   UNL     1      25.687   2.456  52.120  0.00  0.00    +0.000 A 
ATOM     10  C   UNL     1      24.802   1.592  52.819  0.00  0.00    +0.000 A 
ATOM     11  C   UNL     1      23.415   1.875  52.785  0.00  0.00    +0.000 A 
ATOM     12  O   UNL     1      25.266   0.511  53.539  0.00  0.00    +0.000 OA
ATOM     13  C   UNL     1      26.684   0.181  53.478  0.00  0.00    +0.000 C 
ATOM     14  C   UNL     1      27.163  -0.170  54.900  0.00  0.00    +0.000 C 
ATOM     15  C   UNL     1      26.844  -1.056  52.583  0.00  0.00    +0.000 C 
ATOM     16  C   UNL     1      27.588   1.263  52.941  0.00  0.00    +0.000 C 
ATOM     17  C   UNL     1      27.128   2.319  52.276  0.00  0.00    +0.000 C 
ATOM     18  O   UNL     1      25.965   4.051  50.331  0.00  0.00    +0.000 OA
ATOM     19  C   UNL     1      25.358   4.648  49.153  0.00  0.00    +0.000 C 
ATOM     20  C   UNL     1      23.878   5.091  49.295  0.00  0.00    +0.000 C 
ATOM     21  C   UNL     1      23.215   5.392  47.945  0.00  0.00    +0.000 C 
ATOM     22  C   UNL     1      23.086   4.040  50.013  0.00  0.00    +0.000 C 
ENDROOT
BRANCH  19  23
ATOM     23  C   UNL     1      26.187   5.883  48.809  0.00  0.00    +0.000 C 
ATOM     24  C   UNL     1      27.642   5.562  48.512  0.00  0.00    +0.000 C 
ENDBRANCH  19  23
BRANCH  22  25
ATOM     25  O   UNL     1      22.958   2.842  49.235  0.00  0.00    +0.000 OA
ATOM     26  H   UNL     1      22.094   2.833  48.795  0.00  0.00    +0.000 HD
ENDBRANCH  22  25
BRANCH   1  27
ATOM     27  C   UNL     1      22.318  -0.530  52.826  0.00  0.00    +0.000 C 
BRANCH  27  29
ATOM     28  C   UNL     1      22.774  -1.289  55.181  0.00  0.00    +0.000 C 
ATOM     29  C   UNL     1      21.710  -1.072  54.116  0.00  0.00    +0.000 C 
ENDBRANCH  27  29
ENDBRANCH   1  27
TORSDOF 4
ENDMDL
MODEL 2
REMARK VINA RESULT:    -8.224      2.270      5.966
REMARK INTER + INTRA:         -10.398
REMARK INTER:                  -9.839
REMARK INTRA:                  -0.559
REMARK UNBOUND:                -0.491
REMARK  Name = 
REMARK  9 active torsions:
REMARK  status: ('A' for Active; 'I' for Inactive)
REMARK    1  A    between atoms: C_1  and  C_2
REMARK    2  A    between atoms: C_2  and  C_3
REMARK    3  A    between atoms: C_3  and  C_4
REMARK    4  A    between atoms: C_16  and  C_17
REMARK    5  A    between atoms: C_16  and  C_18
REMARK    6  A    between atoms: C_22  and  C_23
REMARK    7  A    between atoms: C_23  and  C_24
REMARK    8  A    between atoms: C_25  and  C_26
REMARK    9  A    between atoms: C_27  and  O_28
REMARK                            x       y       z     vdW  Elec       q    Type
REMARK                         _______ _______ _______ _____ _____    ______ ____
ROOT
ATOM      1  C   UNL     1      23.160   3.094  49.537  0.00  0.00    +0.000 A 
ATOM      2  C   UNL     1      22.291   3.523  48.594  0.00  0.00    +0.000 A 
ATOM      3  C   UNL     1      21.281   2.666  47.977  0.00  0.00    +0.000 A 
ATOM      4  O   UNL     1      20.538   3.078  47.085  0.00  0.00    +0.000 OA
ATOM      5  O   UNL     1      21.230   1.382  48.428  0.00  0.00    +0.000 OA
ATOM      6  C   UNL     1      21.701   1.251  49.733  0.00  0.00    +0.000 A 
ATOM      7  C   UNL     1      20.763   0.874  50.665  0.00  0.00    +0.000 A 
ATOM      8  C   UNL     1      21.190   0.320  51.847  0.00  0.00    +0.000 A 
ATOM      9  C   UNL     1      22.561   0.363  52.139  0.00  0.00    +0.000 A 
ATOM     10  C   UNL     1      23.411   1.203  51.372  0.00  0.00    +0.000 A 
ATOM     11  C   UNL     1      22.903   1.770  50.179  0.00  0.00    +0.000 A 
ATOM     12  O   UNL     1      24.713   1.456  51.753  0.00  0.00    +0.000 OA
ATOM     13  C   UNL     1      25.183   0.944  53.033  0.00  0.00    +0.000 C 
ATOM     14  C   UNL     1      26.600   0.371  52.838  0.00  0.00    +0.000 C 
ATOM     15  C   UNL     1      25.257   2.121  54.015  0.00  0.00    +0.000 C 
ATOM     16  C   UNL     1      24.334  -0.133  53.663  0.00  0.00    +0.000 C 
ATOM     17  C   UNL     1      23.090  -0.391  53.267  0.00  0.00    +0.000 C 
ATOM     18  O   UNL     1      20.297  -0.248  52.708  0.00  0.00    +0.000 OA
ATOM     19  C   UNL     1      18.895   0.116  52.599  0.00  0.00    +0.000 C 
ATOM     20  C   UNL     1      18.406   0.546  51.191  0.00  0.00    +0.000 C 
ATOM     21  C   UNL     1      17.032   1.228  51.221  0.00  0.00    +0.000 C 
ATOM     22  C   UNL     1      19.402   1.467  50.553  0.00  0.00    +0.000 C 
ENDROOT
BRANCH  19  23
ATOM     23  C   UNL     1      18.087  -1.108  53.023  0.00  0.00    +0.000 C 
ATOM     24  C   UNL     1      18.918  -2.147  53.756  0.00  0.00    +0.000 C 
ENDBRANCH  19  23
BRANCH  22  25
ATOM     25  O   UNL     1      19.478   2.727  51.233  0.00  0.00    +0.000 OA
ATOM     26  H   UNL     1      19.016   2.665  52.083  0.00  0.00    +0.000 HD
ENDBRANCH  22  25
BRANCH   1  27
ATOM     27  C   UNL     1      24.104   4.123  50.080  0.00  0.00    +0.000 C 
BRANCH  27  29
ATOM     28  C   UNL     1      26.470   3.469  49.526  0.00  0.00    +0.000 C 
ATOM     29  C   UNL     1      25.285   4.341  49.139  0.00  0.00    +0.000 C 
ENDBRANCH  27  29
ENDBRANCH   1  27
TORSDOF 4
ENDMDL
MODEL 3
REMARK VINA RESULT:    -8.045      1.824      6.021
REMARK INTER + INTRA:         -10.182
REMARK INTER:                  -9.718
REMARK INTRA:                  -0.464
REMARK UNBOUND:                -0.491
REMARK  Name = 
REMARK  9 active torsions:
REMARK  status: ('A' for Active; 'I' for Inactive)
REMARK    1  A    between atoms: C_1  and  C_2
REMARK    2  A    between atoms: C_2  and  C_3
REMARK    3  A    between atoms: C_3  and  C_4
REMARK    4  A    between atoms: C_16  and  C_17
REMARK    5  A    between atoms: C_16  and  C_18
REMARK    6  A    between atoms: C_22  and  C_23
REMARK    7  A    between atoms: C_23  and  C_24
REMARK    8  A    between atoms: C_25  and  C_26
REMARK    9  A    between atoms: C_27  and  O_28
REMARK                            x       y       z     vdW  Elec       q    Type
REMARK                         _______ _______ _______ _____ _____    ______ ____
ROOT
ATOM      1  C   UNL     1      21.965   5.602  50.415  0.00  0.00    +0.000 A 
ATOM      2  C   UNL     1      20.912   4.952  50.961  0.00  0.00    +0.000 A 
ATOM      3  C   UNL     1      20.682   3.517  50.808  0.00  0.00    +0.000 A 
ATOM      4  O   UNL     1      19.685   2.967  51.278  0.00  0.00    +0.000 OA
ATOM      5  O   UNL     1      21.618   2.834  50.093  0.00  0.00    +0.000 OA
ATOM      6  C   UNL     1      22.871   3.444  50.128  0.00  0.00    +0.000 A 
ATOM      7  C   UNL     1      23.858   2.732  50.769  0.00  0.00    +0.000 A 
ATOM      8  C   UNL     1      25.171   3.029  50.496  0.00  0.00    +0.000 A 
ATOM      9  C   UNL     1      25.446   4.181  49.745  0.00  0.00    +0.000 A 
ATOM     10  C   UNL     1      24.418   5.139  49.537  0.00  0.00    +0.000 A 
ATOM     11  C   UNL     1      23.088   4.785  49.867  0.00  0.00    +0.000 A 
ATOM     12  O   UNL     1      24.687   6.383  49.006  0.00  0.00    +0.000 OA
ATOM     13  C   UNL     1      26.073   6.762  48.767  0.00  0.00    +0.000 C 
ATOM     14  C   UNL     1      26.156   7.466  47.399  0.00  0.00    +0.000 C 
ATOM     15  C   UNL     1      26.487   7.756  49.860  0.00  0.00    +0.000 C 
ATOM     16  C   UNL     1      27.072   5.631  48.765  0.00  0.00    +0.000 C 
ATOM     17  C   UNL     1      26.793   4.424  49.251  0.00  0.00    +0.000 C 
ATOM     18  O   UNL     1      26.172   2.222  50.952  0.00  0.00    +0.000 OA
ATOM     19  C   UNL     1      25.897   1.330  52.066  0.00  0.00    +0.000 C 
ATOM     20  C   UNL     1      24.427   0.858  52.218  0.00  0.00    +0.000 C 
ATOM     21  C   UNL     1      24.148   0.210  53.580  0.00  0.00    +0.000 C 
ATOM     22  C   UNL     1      23.486   2.007  52.014  0.00  0.00    +0.000 C 
ENDROOT
BRANCH  19  23
ATOM     23  C   UNL     1      26.769   0.094  51.868  0.00  0.00    +0.000 C 
ATOM     24  C   UNL     1      27.683  -0.188  53.048  0.00  0.00    +0.000 C 
ENDBRANCH  19  23
BRANCH  22  25
ATOM     25  O   UNL     1      23.591   2.977  53.066  0.00  0.00    +0.000 OA
ATOM     26  H   UNL     1      24.009   3.782  52.722  0.00  0.00    +0.000 HD
ENDBRANCH  22  25
BRANCH   1  27
ATOM     27  C   UNL     1      22.056   7.070  50.706  0.00  0.00    +0.000 C 
BRANCH  27  29
ATOM     28  C   UNL     1      22.404   8.981  49.107  0.00  0.00    +0.000 C 
ATOM     29  C   UNL     1      21.448   7.895  49.576  0.00  0.00    +0.000 C 
ENDBRANCH  27  29
ENDBRANCH   1  27
TORSDOF 4
ENDMDL
MODEL 4
REMARK VINA RESULT:    -7.918      1.702      2.439
REMARK INTER + INTRA:         -10.029
REMARK INTER:                  -9.505
REMARK INTRA:                  -0.524
REMARK UNBOUND:                -0.491
REMARK  Name = 
REMARK  9 active torsions:
REMARK  status: ('A' for Active; 'I' for Inactive)
REMARK    1  A    between atoms: C_1  and  C_2
REMARK    2  A    between atoms: C_2  and  C_3
REMARK    3  A    between atoms: C_3  and  C_4
REMARK    4  A    between atoms: C_16  and  C_17
REMARK    5  A    between atoms: C_16  and  C_18
REMARK    6  A    between atoms: C_22  and  C_23
REMARK    7  A    between atoms: C_23  and  C_24
REMARK    8  A    between atoms: C_25  and  C_26
REMARK    9  A    between atoms: C_27  and  O_28
REMARK                            x       y       z     vdW  Elec       q    Type
REMARK                         _______ _______ _______ _____ _____    ______ ____
ROOT
ATOM      1  C   UNL     1      21.869   0.118  52.866  0.00  0.00    +0.000 A 
ATOM      2  C   UNL     1      20.528   0.016  52.721  0.00  0.00    +0.000 A 
ATOM      3  C   UNL     1      19.665   1.148  52.391  0.00  0.00    +0.000 A 
ATOM      4  O   UNL     1      18.441   1.029  52.315  0.00  0.00    +0.000 OA
ATOM      5  O   UNL     1      20.291   2.342  52.201  0.00  0.00    +0.000 OA
ATOM      6  C   UNL     1      21.612   2.196  51.783  0.00  0.00    +0.000 A 
ATOM      7  C   UNL     1      21.884   2.648  50.512  0.00  0.00    +0.000 A 
ATOM      8  C   UNL     1      23.184   2.937  50.177  0.00  0.00    +0.000 A 
ATOM      9  C   UNL     1      24.196   2.554  51.069  0.00  0.00    +0.000 A 
ATOM     10  C   UNL     1      23.893   1.653  52.123  0.00  0.00    +0.000 A 
ATOM     11  C   UNL     1      22.534   1.371  52.400  0.00  0.00    +0.000 A 
ATOM     12  O   UNL     1      24.885   1.071  52.885  0.00  0.00    +0.000 OA
ATOM     13  C   UNL     1      26.277   1.297  52.520  0.00  0.00    +0.000 C 
ATOM     14  C   UNL     1      27.081   1.562  53.806  0.00  0.00    +0.000 C 
ATOM     15  C   UNL     1      26.806   0.016  51.860  0.00  0.00    +0.000 C 
ATOM     16  C   UNL     1      26.530   2.444  51.573  0.00  0.00    +0.000 C 
ATOM     17  C   UNL     1      25.561   3.020  50.866  0.00  0.00    +0.000 C 
ATOM     18  O   UNL     1      23.472   3.573  49.005  0.00  0.00    +0.000 OA
ATOM     19  C   UNL     1      22.488   3.545  47.936  0.00  0.00    +0.000 C 
ATOM     20  C   UNL     1      21.005   3.419  48.374  0.00  0.00    +0.000 C 
ATOM     21  C   UNL     1      20.070   3.061  47.212  0.00  0.00    +0.000 C 
ATOM     22  C   UNL     1      20.867   2.391  49.457  0.00  0.00    +0.000 C 
ENDROOT
BRANCH  19  23
ATOM     23  C   UNL     1      22.639   4.853  47.163  0.00  0.00    +0.000 C 
ATOM     24  C   UNL     1      22.229   6.073  47.969  0.00  0.00    +0.000 C 
ENDBRANCH  19  23
BRANCH  22  25
ATOM     25  O   UNL     1      21.143   1.068  48.976  0.00  0.00    +0.000 OA
ATOM     26  H   UNL     1      21.770   0.631  49.574  0.00  0.00    +0.000 HD
ENDBRANCH  22  25
BRANCH   1  27
ATOM     27  C   UNL     1      22.596  -1.157  53.173  0.00  0.00    +0.000 C 
BRANCH  27  29
ATOM     28  C   UNL     1      23.348  -1.363  55.565  0.00  0.00    +0.000 C 
ATOM     29  C   UNL     1      22.244  -1.672  54.565  0.00  0.00    +0.000 C 
ENDBRANCH  27  29
ENDBRANCH   1  27
TORSDOF 4
ENDMDL
MODEL 5
REMARK VINA RESULT:    -7.850      1.753      6.931
REMARK INTER + INTRA:          -9.947
REMARK INTER:                  -9.523
REMARK INTRA:                  -0.424
REMARK UNBOUND:                -0.491
REMARK  Name = 
REMARK  9 active torsions:
REMARK  status: ('A' for Active; 'I' for Inactive)
REMARK    1  A    between atoms: C_1  and  C_2
REMARK    2  A    between atoms: C_2  and  C_3
REMARK    3  A    between atoms: C_3  and  C_4
REMARK    4  A    between atoms: C_16  and  C_17
REMARK    5  A    between atoms: C_16  and  C_18
REMARK    6  A    between atoms: C_22  and  C_23
REMARK    7  A    between atoms: C_23  and  C_24
REMARK    8  A    between atoms: C_25  and  C_26
REMARK    9  A    between atoms: C_27  and  O_28
REMARK                            x       y       z     vdW  Elec       q    Type
REMARK                         _______ _______ _______ _____ _____    ______ ____
ROOT
ATOM      1  C   UNL     1      25.691   2.883  50.919  0.00  0.00    +0.000 A 
ATOM      2  C   UNL     1      26.525   2.422  51.878  0.00  0.00    +0.000 A 
ATOM      3  C   UNL     1      26.161   2.337  53.291  0.00  0.00    +0.000 A 
ATOM      4  O   UNL     1      26.964   1.957  54.145  0.00  0.00    +0.000 OA
ATOM      5  O   UNL     1      24.895   2.726  53.607  0.00  0.00    +0.000 OA
ATOM      6  C   UNL     1      24.008   2.584  52.543  0.00  0.00    +0.000 A 
ATOM      7  C   UNL     1      23.013   1.651  52.723  0.00  0.00    +0.000 A 
ATOM      8  C   UNL     1      21.880   1.734  51.951  0.00  0.00    +0.000 A 
ATOM      9  C   UNL     1      21.880   2.630  50.872  0.00  0.00    +0.000 A 
ATOM     10  C   UNL     1      23.107   3.199  50.439  0.00  0.00    +0.000 A 
ATOM     11  C   UNL     1      24.248   3.053  51.264  0.00  0.00    +0.000 A 
ATOM     12  O   UNL     1      23.201   3.902  49.255  0.00  0.00    +0.000 OA
ATOM     13  C   UNL     1      22.041   3.955  48.376  0.00  0.00    +0.000 C 
ATOM     14  C   UNL     1      21.898   5.394  47.846  0.00  0.00    +0.000 C 
ATOM     15  C   UNL     1      22.303   3.015  47.190  0.00  0.00    +0.000 C 
ATOM     16  C   UNL     1      20.725   3.560  48.998  0.00  0.00    +0.000 C 
ATOM     17  C   UNL     1      20.644   2.910  50.157  0.00  0.00    +0.000 C 
ATOM     18  O   UNL     1      20.793   0.960  52.231  0.00  0.00    +0.000 OA
ATOM     19  C   UNL     1      20.977  -0.237  53.036  0.00  0.00    +0.000 C 
ATOM     20  C   UNL     1      22.156  -0.209  54.044  0.00  0.00    +0.000 C 
ATOM     21  C   UNL     1      22.494  -1.597  54.603  0.00  0.00    +0.000 C 
ATOM     22  C   UNL     1      23.377   0.377  53.402  0.00  0.00    +0.000 C 
ENDROOT
BRANCH  19  23
ATOM     23  C   UNL     1      19.688  -0.439  53.827  0.00  0.00    +0.000 C 
ATOM     24  C   UNL     1      18.534  -0.935  52.972  0.00  0.00    +0.000 C 
ENDBRANCH  19  23
BRANCH  22  25
ATOM     25  O   UNL     1      23.897  -0.470  52.368  0.00  0.00    +0.000 OA
ATOM     26  H   UNL     1      23.226  -1.123  52.117  0.00  0.00    +0.000 HD
ENDBRANCH  22  25
BRANCH   1  27
ATOM     27  C   UNL     1      26.225   2.867  49.519  0.00  0.00    +0.000 C 
BRANCH  27  29
ATOM     28  C   UNL     1      26.127   5.345  49.091  0.00  0.00    +0.000 C 
ATOM     29  C   UNL     1      27.030   4.128  49.220  0.00  0.00    +0.000 C 
ENDBRANCH  27  29
ENDBRANCH   1  27
TORSDOF 4
ENDMDL
MODEL 6
REMARK VINA RESULT:    -7.653      2.011      5.832
REMARK INTER + INTRA:          -9.710
REMARK INTER:                  -9.119
REMARK INTRA:                  -0.592
REMARK UNBOUND:                -0.491
REMARK  Name = 
REMARK  9 active torsions:
REMARK  status: ('A' for Active; 'I' for Inactive)
REMARK    1  A    between atoms: C_1  and  C_2
REMARK    2  A    between atoms: C_2  and  C_3
REMARK    3  A    between atoms: C_3  and  C_4
REMARK    4  A    between atoms: C_16  and  C_17
REMARK    5  A    between atoms: C_16  and  C_18
REMARK    6  A    between atoms: C_22  and  C_23
REMARK    7  A    between atoms: C_23  and  C_24
REMARK    8  A    between atoms: C_25  and  C_26
REMARK    9  A    between atoms: C_27  and  O_28
REMARK                            x       y       z     vdW  Elec       q    Type
REMARK                         _______ _______ _______ _____ _____    ______ ____
ROOT
ATOM      1  C   UNL     1      20.244   3.123  50.455  0.00  0.00    +0.000 A 
ATOM      2  C   UNL     1      19.270   2.238  50.768  0.00  0.00    +0.000 A 
ATOM      3  C   UNL     1      19.454   0.788  50.731  0.00  0.00    +0.000 A 
ATOM      4  O   UNL     1      18.530   0.011  50.975  0.00  0.00    +0.000 OA
ATOM      5  O   UNL     1      20.697   0.353  50.385  0.00  0.00    +0.000 OA
ATOM      6  C   UNL     1      21.694   1.278  50.685  0.00  0.00    +0.000 A 
ATOM      7  C   UNL     1      22.592   0.887  51.652  0.00  0.00    +0.000 A 
ATOM      8  C   UNL     1      23.813   1.514  51.712  0.00  0.00    +0.000 A 
ATOM      9  C   UNL     1      24.005   2.663  50.933  0.00  0.00    +0.000 A 
ATOM     10  C   UNL     1      22.882   3.299  50.340  0.00  0.00    +0.000 A 
ATOM     11  C   UNL     1      21.643   2.615  50.336  0.00  0.00    +0.000 A 
ATOM     12  O   UNL     1      22.981   4.545  49.757  0.00  0.00    +0.000 OA
ATOM     13  C   UNL     1      24.239   5.272  49.860  0.00  0.00    +0.000 C 
ATOM     14  C   UNL     1      24.546   5.912  48.493  0.00  0.00    +0.000 C 
ATOM     15  C   UNL     1      24.056   6.388  50.898  0.00  0.00    +0.000 C 
ATOM     16  C   UNL     1      25.440   4.453  50.265  0.00  0.00    +0.000 C 
ATOM     17  C   UNL     1      25.335   3.239  50.798  0.00  0.00    +0.000 C 
ATOM     18  O   UNL     1      24.801   1.027  52.517  0.00  0.00    +0.000 OA
ATOM     19  C   UNL     1      24.438   0.144  53.613  0.00  0.00    +0.000 C 
ATOM     20  C   UNL     1      23.152  -0.700  53.414  0.00  0.00    +0.000 C 
ATOM     21  C   UNL     1      22.652  -1.338  54.717  0.00  0.00    +0.000 C 
ATOM     22  C   UNL     1      22.061   0.144  52.826  0.00  0.00    +0.000 C 
ENDROOT
BRANCH  19  23
ATOM     23  C   UNL     1      25.606  -0.819  53.809  0.00  0.00    +0.000 C 
ATOM     24  C   UNL     1      26.438  -1.012  52.553  0.00  0.00    +0.000 C 
ENDBRANCH  19  23
BRANCH  22  25
ATOM     25  O   UNL     1      21.610   1.151  53.743  0.00  0.00    +0.000 OA
ATOM     26  H   UNL     1      20.903   0.789  54.300  0.00  0.00    +0.000 HD
ENDBRANCH  22  25
BRANCH   1  27
ATOM     27  C   UNL     1      19.882   4.572  50.582  0.00  0.00    +0.000 C 
BRANCH  27  29
ATOM     28  C   UNL     1      19.949   5.299  48.174  0.00  0.00    +0.000 C 
ATOM     29  C   UNL     1      19.063   5.043  49.384  0.00  0.00    +0.000 C 
ENDBRANCH  27  29
ENDBRANCH   1  27
TORSDOF 4
ENDMDL
MODEL 7
REMARK VINA RESULT:    -7.632      2.522      6.639
REMARK INTER + INTRA:          -9.685
REMARK INTER:                  -8.993
REMARK INTRA:                  -0.691
REMARK UNBOUND:                -0.491
REMARK  Name = 
REMARK  9 active torsions:
REMARK  status: ('A' for Active; 'I' for Inactive)
REMARK    1  A    between atoms: C_1  and  C_2
REMARK    2  A    between atoms: C_2  and  C_3
REMARK    3  A    between atoms: C_3  and  C_4
REMARK    4  A    between atoms: C_16  and  C_17
REMARK    5  A    between atoms: C_16  and  C_18
REMARK    6  A    between atoms: C_22  and  C_23
REMARK    7  A    between atoms: C_23  and  C_24
REMARK    8  A    between atoms: C_25  and  C_26
REMARK    9  A    between atoms: C_27  and  O_28
REMARK                            x       y       z     vdW  Elec       q    Type
REMARK                         _______ _______ _______ _____ _____    ______ ____
ROOT
ATOM      1  C   UNL     1      20.078   4.299  50.415  0.00  0.00    +0.000 A 
ATOM      2  C   UNL     1      21.089   5.194  50.326  0.00  0.00    +0.000 A 
ATOM      3  C   UNL     1      22.037   5.450  51.408  0.00  0.00    +0.000 A 
ATOM      4  O   UNL     1      22.916   6.308  51.310  0.00  0.00    +0.000 OA
ATOM      5  O   UNL     1      21.873   4.705  52.536  0.00  0.00    +0.000 OA
ATOM      6  C   UNL     1      21.256   3.481  52.286  0.00  0.00    +0.000 A 
ATOM      7  C   UNL     1      22.036   2.369  52.510  0.00  0.00    +0.000 A 
ATOM      8  C   UNL     1      21.420   1.157  52.704  0.00  0.00    +0.000 A 
ATOM      9  C   UNL     1      20.044   1.068  52.451  0.00  0.00    +0.000 A 
ATOM     10  C   UNL     1      19.394   2.118  51.749  0.00  0.00    +0.000 A 
ATOM     11  C   UNL     1      20.093   3.333  51.554  0.00  0.00    +0.000 A 
ATOM     12  O   UNL     1      18.104   1.984  51.279  0.00  0.00    +0.000 OA
ATOM     13  C   UNL     1      17.441   0.693  51.404  0.00  0.00    +0.000 C 
ATOM     14  C   UNL     1      15.990   0.933  51.861  0.00  0.00    +0.000 C 
ATOM     15  C   UNL     1      17.419   0.037  50.016  0.00  0.00    +0.000 C 
ATOM     16  C   UNL     1      18.073  -0.281  52.367  0.00  0.00    +0.000 C 
ATOM     17  C   UNL     1      19.307  -0.126  52.840  0.00  0.00    +0.000 C 
ATOM     18  O   UNL     1      22.137   0.076  53.124  0.00  0.00    +0.000 OA
ATOM     19  C   UNL     1      23.579   0.080  52.942  0.00  0.00    +0.000 C 
ATOM     20  C   UNL     1      24.263   1.473  52.930  0.00  0.00    +0.000 C 
ATOM     21  C   UNL     1      25.703   1.424  52.405  0.00  0.00    +0.000 C 
ATOM     22  C   UNL     1      23.467   2.438  52.105  0.00  0.00    +0.000 C 
ENDROOT
BRANCH  19  23
ATOM     23  C   UNL     1      24.172  -0.724  54.095  0.00  0.00    +0.000 C 
ATOM     24  C   UNL     1      23.131  -1.180  55.103  0.00  0.00    +0.000 C 
ENDBRANCH  19  23
BRANCH  22  25
ATOM     25  O   UNL     1      23.485   2.093  50.712  0.00  0.00    +0.000 OA
ATOM     26  H   UNL     1      22.672   1.612  50.488  0.00  0.00    +0.000 HD
ENDBRANCH  22  25
BRANCH   1  27
ATOM     27  C   UNL     1      19.225   4.146  49.193  0.00  0.00    +0.000 C 
BRANCH  27  29
ATOM     28  C   UNL     1      20.531   2.246  48.185  0.00  0.00    +0.000 C 
ATOM     29  C   UNL     1      20.050   3.678  47.998  0.00  0.00    +0.000 C 
ENDBRANCH  27  29
ENDBRANCH   1  27
TORSDOF 4
ENDMDL
MODEL 8
REMARK VINA RESULT:    -7.594      1.758      4.778
REMARK INTER + INTRA:          -9.640
REMARK INTER:                  -9.033
REMARK INTRA:                  -0.606
REMARK UNBOUND:                -0.491
REMARK  Name = 
REMARK  9 active torsions:
REMARK  status: ('A' for Active; 'I' for Inactive)
REMARK    1  A    between atoms: C_1  and  C_2
REMARK    2  A    between atoms: C_2  and  C_3
REMARK    3  A    between atoms: C_3  and  C_4
REMARK    4  A    between atoms: C_16  and  C_17
REMARK    5  A    between atoms: C_16  and  C_18
REMARK    6  A    between atoms: C_22  and  C_23
REMARK    7  A    between atoms: C_23  and  C_24
REMARK    8  A    between atoms: C_25  and  C_26
REMARK    9  A    between atoms: C_27  and  O_28
REMARK                            x       y       z     vdW  Elec       q    Type
REMARK                         _______ _______ _______ _____ _____    ______ ____
ROOT
ATOM      1  C   UNL     1      25.792   1.737  51.944  0.00  0.00    +0.000 A 
ATOM      2  C   UNL     1      26.663   2.597  51.370  0.00  0.00    +0.000 A 
ATOM      3  C   UNL     1      26.405   3.282  50.105  0.00  0.00    +0.000 A 
ATOM      4  O   UNL     1      27.242   4.022  49.586  0.00  0.00    +0.000 OA
ATOM      5  O   UNL     1      25.198   3.033  49.526  0.00  0.00    +0.000 OA
ATOM      6  C   UNL     1      24.222   2.668  50.451  0.00  0.00    +0.000 A 
ATOM      7  C   UNL     1      23.181   3.556  50.594  0.00  0.00    +0.000 A 
ATOM      8  C   UNL     1      22.001   3.108  51.136  0.00  0.00    +0.000 A 
ATOM      9  C   UNL     1      21.981   1.831  51.713  0.00  0.00    +0.000 A 
ATOM     10  C   UNL     1      23.208   1.166  51.977  0.00  0.00    +0.000 A 
ATOM     11  C   UNL     1      24.396   1.694  51.417  0.00  0.00    +0.000 A 
ATOM     12  O   UNL     1      23.259   0.019  52.742  0.00  0.00    +0.000 OA
ATOM     13  C   UNL     1      22.041  -0.449  53.390  0.00  0.00    +0.000 C 
ATOM     14  C   UNL     1      21.959  -1.978  53.226  0.00  0.00    +0.000 C 
ATOM     15  C   UNL     1      22.144  -0.117  54.885  0.00  0.00    +0.000 C 
ATOM     16  C   UNL     1      20.752   0.140  52.871  0.00  0.00    +0.000 C 
ATOM     17  C   UNL     1      20.716   1.229  52.108  0.00  0.00    +0.000 C 
ATOM     18  O   UNL     1      20.886   3.895  51.111  0.00  0.00    +0.000 OA
ATOM     19  C   UNL     1      21.047   5.328  50.929  0.00  0.00    +0.000 C 
ATOM     20  C   UNL     1      22.300   5.780  50.132  0.00  0.00    +0.000 C 
ATOM     21  C   UNL     1      22.581   7.282  50.268  0.00  0.00    +0.000 C 
ATOM     22  C   UNL     1      23.506   5.008  50.575  0.00  0.00    +0.000 C 
ENDROOT
BRANCH  19  23
ATOM     23  C   UNL     1      19.812   5.818  50.179  0.00  0.00    +0.000 C 
ATOM     24  C   UNL     1      19.733   5.299  48.753  0.00  0.00    +0.000 C 
ENDBRANCH  19  23
BRANCH  22  25
ATOM     25  O   UNL     1      23.884   5.331  51.921  0.00  0.00    +0.000 OA
ATOM     26  H   UNL     1      23.088   5.400  52.472  0.00  0.00    +0.000 HD
ENDBRANCH  22  25
BRANCH   1  27
ATOM     27  C   UNL     1      26.213   1.153  53.259  0.00  0.00    +0.000 C 
BRANCH  27  29
ATOM     28  C   UNL     1      26.637  -1.207  52.497  0.00  0.00    +0.000 C 
ATOM     29  C   UNL     1      27.259   0.059  53.067  0.00  0.00    +0.000 C 
ENDBRANCH  27  29
ENDBRANCH   1  27
TORSDOF 4
ENDMDL
MODEL 9
REMARK VINA RESULT:    -7.548      2.445      6.174
REMARK INTER + INTRA:          -9.583
REMARK INTER:                  -9.141
REMARK INTRA:                  -0.442
REMARK UNBOUND:                -0.491
REMARK  Name = 
REMARK  9 active torsions:
REMARK  status: ('A' for Active; 'I' for Inactive)
REMARK    1  A    between atoms: C_1  and  C_2
REMARK    2  A    between atoms: C_2  and  C_3
REMARK    3  A    between atoms: C_3  and  C_4
REMARK    4  A    between atoms: C_16  and  C_17
REMARK    5  A    between atoms: C_16  and  C_18
REMARK    6  A    between atoms: C_22  and  C_23
REMARK    7  A    between atoms: C_23  and  C_24
REMARK    8  A    between atoms: C_25  and  C_26
REMARK    9  A    between atoms: C_27  and  O_28
REMARK                            x       y       z     vdW  Elec       q    Type
REMARK                         _______ _______ _______ _____ _____    ______ ____
ROOT
ATOM      1  C   UNL     1      23.474   1.088  52.614  0.00  0.00    +0.000 A 
ATOM      2  C   UNL     1      23.167  -0.136  53.100  0.00  0.00    +0.000 A 
ATOM      3  C   UNL     1      21.982  -0.408  53.911  0.00  0.00    +0.000 A 
ATOM      4  O   UNL     1      21.759  -1.525  54.378  0.00  0.00    +0.000 OA
ATOM      5  O   UNL     1      21.158   0.652  54.139  0.00  0.00    +0.000 OA
ATOM      6  C   UNL     1      21.239   1.621  53.141  0.00  0.00    +0.000 A 
ATOM      7  C   UNL     1      20.098   1.794  52.392  0.00  0.00    +0.000 A 
ATOM      8  C   UNL     1      19.934   2.970  51.700  0.00  0.00    +0.000 A 
ATOM      9  C   UNL     1      21.027   3.844  51.615  0.00  0.00    +0.000 A 
ATOM     10  C   UNL     1      22.318   3.384  51.984  0.00  0.00    +0.000 A 
ATOM     11  C   UNL     1      22.426   2.149  52.668  0.00  0.00    +0.000 A 
ATOM     12  O   UNL     1      23.453   4.120  51.711  0.00  0.00    +0.000 OA
ATOM     13  C   UNL     1      23.329   5.336  50.920  0.00  0.00    +0.000 C 
ATOM     14  C   UNL     1      24.210   6.425  51.561  0.00  0.00    +0.000 C 
ATOM     15  C   UNL     1      23.859   5.039  49.510  0.00  0.00    +0.000 C 
ATOM     16  C   UNL     1      21.934   5.893  50.784  0.00  0.00    +0.000 C 
ATOM     17  C   UNL     1      20.846   5.186  51.081  0.00  0.00    +0.000 C 
ATOM     18  O   UNL     1      18.739   3.265  51.111  0.00  0.00    +0.000 OA
ATOM     19  C   UNL     1      17.811   2.181  50.836  0.00  0.00    +0.000 C 
ATOM     20  C   UNL     1      17.898   0.950  51.775  0.00  0.00    +0.000 C 
ATOM     21  C   UNL     1      17.141  -0.269  51.230  0.00  0.00    +0.000 C 
ATOM     22  C   UNL     1      19.330   0.577  52.014  0.00  0.00    +0.000 C 
ENDROOT
BRANCH  19  23
ATOM     23  C   UNL     1      16.405   2.764  50.955  0.00  0.00    +0.000 C 
ATOM     24  C   UNL     1      16.339   3.984  51.858  0.00  0.00    +0.000 C 
ENDBRANCH  19  23
BRANCH  22  25
ATOM     25  O   UNL     1      19.960   0.082  50.825  0.00  0.00    +0.000 OA
ATOM     26  H   UNL     1      19.292  -0.321  50.248  0.00  0.00    +0.000 HD
ENDBRANCH  22  25
BRANCH   1  27
ATOM     27  C   UNL     1      24.713   1.171  51.774  0.00  0.00    +0.000 C 
BRANCH  27  29
ATOM     28  C   UNL     1      26.716  -0.305  52.153  0.00  0.00    +0.000 C 
ATOM     29  C   UNL     1      25.966   0.937  52.613  0.00  0.00    +0.000 C 
ENDBRANCH  27  29
ENDBRANCH   1  27
TORSDOF 4
ENDMDL
