MODEL 1
REMARK VINA RESULT:    -9.483      0.000      0.000
REMARK INTER + INTRA:         -15.720
REMARK INTER:                 -14.473
REMARK INTRA:                  -1.247
REMARK UNBOUND:                -1.247
REMARK  Name = 
REMARK  11 active torsions:
REMARK  status: ('A' for Active; 'I' for Inactive)
REMARK    1  A    between atoms: C_1  and  C_2
REMARK    2  A    between atoms: C_2  and  C_3
REMARK    3  A    between atoms: C_3  and  C_4
REMARK    4  A    between atoms: C_4  and  C_5
REMARK    5  A    between atoms: C_13  and  C_14
REMARK    6  A    between atoms: C_14  and  O_15
REMARK    7  A    between atoms: O_15  and  C_16
REMARK    8  A    between atoms: C_20  and  C_21
REMARK    9  A    between atoms: C_21  and  C_22
REMARK   10  A    between atoms: C_23  and  C_24
REMARK   11  A    between atoms: C_24  and  N_25
REMARK                            x       y       z     vdW  Elec       q    Type
REMARK                         _______ _______ _______ _____ _____    ______ ____
ROOT
ATOM      1  C   UNL     1      26.335   3.624  49.901  0.00  0.00    +0.000 A 
ATOM      2  C   UNL     1      25.230   4.351  50.337  0.00  0.00    +0.000 A 
ATOM      3  C   UNL     1      25.071   5.680  49.942  0.00  0.00    +0.000 A 
ATOM      4  C   UNL     1      26.041   6.301  49.148  0.00  0.00    +0.000 A 
ATOM      5  C   UNL     1      27.191   5.607  48.746  0.00  0.00    +0.000 A 
ATOM      6  C   UNL     1      27.303   4.252  49.119  0.00  0.00    +0.000 A 
ENDROOT
BRANCH   5   7
ATOM      7  C   UNL     1      28.274   6.257  47.959  0.00  0.00    +0.000 C 
ATOM      8  C   UNL     1      27.955   7.466  47.119  0.00  0.00    +0.000 C 
ATOM      9  C   UNL     1      29.530   5.763  48.038  0.00  0.00    +0.000 C 
BRANCH   9  10
ATOM     10  C   UNL     1      30.745   6.228  47.296  0.00  0.00    +0.000 C 
BRANCH  10  11
ATOM     11  N   UNL     1      31.446   7.188  48.132  0.00  0.00    +0.000 N 
ATOM     12  O   UNL     1      30.862   8.500  48.118  0.00  0.00    +0.000 OA
ATOM     13  C   UNL     1      30.961   9.000  49.389  0.00  0.00    +0.000 A 
ATOM     14  O   UNL     1      30.517  10.074  49.751  0.00  0.00    +0.000 OA
ATOM     15  N   UNL     1      31.563   8.091  50.170  0.00  0.00    +0.000 N 
ATOM     16  C   UNL     1      31.642   6.925  49.489  0.00  0.00    +0.000 A 
ATOM     17  O   UNL     1      31.781   5.824  50.004  0.00  0.00    +0.000 OA
ATOM     18  H   UNL     1      31.892   8.247  51.084  0.00  0.00    +0.000 HD
ENDBRANCH  10  11
ENDBRANCH   9  10
ENDBRANCH   5   7
BRANCH   1  19
ATOM     19  O   UNL     1      26.427   2.331  50.340  0.00  0.00    +0.000 OA
BRANCH  19  20
ATOM     20  C   UNL     1      26.555   2.150  51.760  0.00  0.00    +0.000 C 
BRANCH  20  29
ATOM     21  C   UNL     1      26.238  -0.219  52.763  0.00  0.00    +0.000 A 
ATOM     22  O   UNL     1      25.221  -0.960  53.290  0.00  0.00    +0.000 OA
ATOM     23  C   UNL     1      24.087  -0.224  53.187  0.00  0.00    +0.000 A 
ATOM     24  C   UNL     1      22.837  -0.603  53.671  0.00  0.00    +0.000 A 
ATOM     25  C   UNL     1      21.790   0.304  53.478  0.00  0.00    +0.000 A 
ATOM     26  C   UNL     1      22.003   1.516  52.813  0.00  0.00    +0.000 A 
ATOM     27  C   UNL     1      23.276   1.867  52.341  0.00  0.00    +0.000 A 
ATOM     28  C   UNL     1      24.353   0.980  52.546  0.00  0.00    +0.000 A 
ATOM     29  C   UNL     1      25.766   1.000  52.298  0.00  0.00    +0.000 A 
BRANCH  21  30
ATOM     30  C   UNL     1      27.586  -0.841  52.855  0.00  0.00    +0.000 C 
BRANCH  30  31
ATOM     31  C   UNL     1      28.369  -0.363  54.081  0.00  0.00    +0.000 C 
BRANCH  31  33
ATOM     32  C   UNL     1      29.273   1.987  54.216  0.00  0.00    +0.000 C 
ATOM     33  C   UNL     1      29.533   0.569  53.731  0.00  0.00    +0.000 C 
ENDBRANCH  31  33
ENDBRANCH  30  31
ENDBRANCH  21  30
ENDBRANCH  20  29
ENDBRANCH  19  20
ENDBRANCH   1  19
TORSDOF 9
ENDMDL
MODEL 2
REMARK VINA RESULT:    -9.351      4.360      9.671
REMARK INTER + INTRA:         -15.518
REMARK INTER:                 -13.455
REMARK INTRA:                  -2.062
REMARK UNBOUND:                -1.247
REMARK  Name = 
REMARK  11 active torsions:
REMARK  status: ('A' for Active; 'I' for Inactive)
REMARK    1  A    between atoms: C_1  and  C_2
REMARK    2  A    between atoms: C_2  and  C_3
REMARK    3  A    between atoms: C_3  and  C_4
REMARK    4  A    between atoms: C_4  and  C_5
REMARK    5  A    between atoms: C_13  and  C_14
REMARK    6  A    between atoms: C_14  and  O_15
REMARK    7  A    between atoms: O_15  and  C_16
REMARK    8  A    between atoms: C_20  and  C_21
REMARK    9  A    between atoms: C_21  and  C_22
REMARK   10  A    between atoms: C_23  and  C_24
REMARK   11  A    between atoms: C_24  and  N_25
REMARK                            x       y       z     vdW  Elec       q    Type
REMARK                         _______ _______ _______ _____ _____    ______ ____
ROOT
ATOM      1  C   UNL     1      25.848   1.700  52.005  0.00  0.00    +0.000 A 
ATOM      2  C   UNL     1      26.967   0.885  52.154  0.00  0.00    +0.000 A 
ATOM      3  C   UNL     1      26.834  -0.388  52.709  0.00  0.00    +0.000 A 
ATOM      4  C   UNL     1      25.587  -0.832  53.162  0.00  0.00    +0.000 A 
ATOM      5  C   UNL     1      24.457  -0.006  53.077  0.00  0.00    +0.000 A 
ATOM      6  C   UNL     1      24.611   1.256  52.467  0.00  0.00    +0.000 A 
ENDROOT
BRANCH   5   7
ATOM      7  C   UNL     1      23.130  -0.421  53.610  0.00  0.00    +0.000 C 
ATOM      8  C   UNL     1      23.054  -1.127  54.939  0.00  0.00    +0.000 C 
ATOM      9  C   UNL     1      22.017  -0.128  52.901  0.00  0.00    +0.000 C 
BRANCH   9  10
ATOM     10  C   UNL     1      20.602  -0.496  53.225  0.00  0.00    +0.000 C 
BRANCH  10  11
ATOM     11  N   UNL     1      19.770   0.676  53.013  0.00  0.00    +0.000 N 
ATOM     12  O   UNL     1      20.485   1.917  53.116  0.00  0.00    +0.000 OA
ATOM     13  C   UNL     1      19.974   2.758  52.163  0.00  0.00    +0.000 A 
ATOM     14  O   UNL     1      20.385   3.880  51.933  0.00  0.00    +0.000 OA
ATOM     15  N   UNL     1      19.004   2.120  51.493  0.00  0.00    +0.000 N 
ATOM     16  C   UNL     1      19.036   0.811  51.833  0.00  0.00    +0.000 A 
ATOM     17  O   UNL     1      18.564  -0.097  51.162  0.00  0.00    +0.000 OA
ATOM     18  H   UNL     1      18.373   2.534  50.861  0.00  0.00    +0.000 HD
ENDBRANCH  10  11
ENDBRANCH   9  10
ENDBRANCH   5   7
BRANCH   1  19
ATOM     19  O   UNL     1      26.063   2.938  51.462  0.00  0.00    +0.000 OA
BRANCH  19  20
ATOM     20  C   UNL     1      26.379   2.970  50.061  0.00  0.00    +0.000 C 
BRANCH  20  29
ATOM     21  C   UNL     1      24.785   4.881  49.330  0.00  0.00    +0.000 A 
ATOM     22  O   UNL     1      24.889   6.103  48.736  0.00  0.00    +0.000 OA
ATOM     23  C   UNL     1      26.194   6.292  48.419  0.00  0.00    +0.000 A 
ATOM     24  C   UNL     1      26.724   7.450  47.853  0.00  0.00    +0.000 A 
ATOM     25  C   UNL     1      28.101   7.454  47.613  0.00  0.00    +0.000 A 
ATOM     26  C   UNL     1      28.887   6.338  47.916  0.00  0.00    +0.000 A 
ATOM     27  C   UNL     1      28.321   5.189  48.488  0.00  0.00    +0.000 A 
ATOM     28  C   UNL     1      26.938   5.170  48.762  0.00  0.00    +0.000 A 
ATOM     29  C   UNL     1      26.025   4.259  49.389  0.00  0.00    +0.000 A 
BRANCH  21  30
ATOM     30  C   UNL     1      23.425   4.527  49.816  0.00  0.00    +0.000 C 
BRANCH  30  31
ATOM     31  C   UNL     1      22.776   3.417  48.985  0.00  0.00    +0.000 C 
BRANCH  31  33
ATOM     32  C   UNL     1      21.636   1.169  49.067  0.00  0.00    +0.000 C 
ATOM     33  C   UNL     1      22.637   2.093  49.743  0.00  0.00    +0.000 C 
ENDBRANCH  31  33
ENDBRANCH  30  31
ENDBRANCH  21  30
ENDBRANCH  20  29
ENDBRANCH  19  20
ENDBRANCH   1  19
TORSDOF 9
ENDMDL
MODEL 3
REMARK VINA RESULT:    -9.280      4.989      7.361
REMARK INTER + INTRA:         -15.409
REMARK INTER:                 -13.568
REMARK INTRA:                  -1.840
REMARK UNBOUND:                -1.247
REMARK  Name = 
REMARK  11 active torsions:
REMARK  status: ('A' for Active; 'I' for Inactive)
REMARK    1  A    between atoms: C_1  and  C_2
REMARK    2  A    between atoms: C_2  and  C_3
REMARK    3  A    between atoms: C_3  and  C_4
REMARK    4  A    between atoms: C_4  and  C_5
REMARK    5  A    between atoms: C_13  and  C_14
REMARK    6  A    between atoms: C_14  and  O_15
REMARK    7  A    between atoms: O_15  and  C_16
REMARK    8  A    between atoms: C_20  and  C_21
REMARK    9  A    between atoms: C_21  and  C_22
REMARK   10  A    between atoms: C_23  and  C_24
REMARK   11  A    between atoms: C_24  and  N_25
REMARK                            x       y       z     vdW  Elec       q    Type
REMARK                         _______ _______ _______ _____ _____    ______ ____
ROOT
ATOM      1  C   UNL     1      22.159   1.646  49.756  0.00  0.00    +0.000 A 
ATOM      2  C   UNL     1      22.283   2.599  48.749  0.00  0.00    +0.000 A 
ATOM      3  C   UNL     1      23.376   3.466  48.740  0.00  0.00    +0.000 A 
ATOM      4  C   UNL     1      24.326   3.413  49.766  0.00  0.00    +0.000 A 
ATOM      5  C   UNL     1      24.191   2.501  50.822  0.00  0.00    +0.000 A 
ATOM      6  C   UNL     1      23.104   1.605  50.781  0.00  0.00    +0.000 A 
ENDROOT
BRANCH   5   7
ATOM      7  C   UNL     1      25.147   2.464  51.964  0.00  0.00    +0.000 C 
ATOM      8  C   UNL     1      24.691   2.921  53.324  0.00  0.00    +0.000 C 
ATOM      9  C   UNL     1      26.396   1.991  51.759  0.00  0.00    +0.000 C 
BRANCH   9  10
ATOM     10  C   UNL     1      27.520   1.916  52.746  0.00  0.00    +0.000 C 
BRANCH  10  11
ATOM     11  N   UNL     1      27.464   0.618  53.397  0.00  0.00    +0.000 N 
ATOM     12  O   UNL     1      26.710  -0.362  52.666  0.00  0.00    +0.000 OA
ATOM     13  C   UNL     1      27.358  -1.560  52.810  0.00  0.00    +0.000 A 
ATOM     14  O   UNL     1      27.022  -2.601  52.277  0.00  0.00    +0.000 OA
ATOM     15  N   UNL     1      28.446  -1.379  53.573  0.00  0.00    +0.000 N 
ATOM     16  C   UNL     1      28.644  -0.050  53.731  0.00  0.00    +0.000 A 
ATOM     17  O   UNL     1      29.710   0.465  54.037  0.00  0.00    +0.000 OA
ATOM     18  H   UNL     1      29.005  -2.093  53.956  0.00  0.00    +0.000 HD
ENDBRANCH  10  11
ENDBRANCH   9  10
ENDBRANCH   5   7
BRANCH   1  19
ATOM     19  O   UNL     1      21.054   0.841  49.702  0.00  0.00    +0.000 OA
BRANCH  19  20
ATOM     20  C   UNL     1      19.865   1.353  50.325  0.00  0.00    +0.000 C 
BRANCH  20  29
ATOM     21  C   UNL     1      19.751   0.139  52.614  0.00  0.00    +0.000 A 
ATOM     22  O   UNL     1      18.865  -0.644  53.293  0.00  0.00    +0.000 OA
ATOM     23  C   UNL     1      17.799  -0.850  52.480  0.00  0.00    +0.000 A 
ATOM     24  C   UNL     1      16.645  -1.549  52.830  0.00  0.00    +0.000 A 
ATOM     25  C   UNL     1      15.649  -1.640  51.853  0.00  0.00    +0.000 A 
ATOM     26  C   UNL     1      15.827  -1.068  50.590  0.00  0.00    +0.000 A 
ATOM     27  C   UNL     1      17.001  -0.368  50.272  0.00  0.00    +0.000 A 
ATOM     28  C   UNL     1      18.009  -0.242  51.249  0.00  0.00    +0.000 A 
ATOM     29  C   UNL     1      19.271   0.434  51.345  0.00  0.00    +0.000 A 
BRANCH  21  30
ATOM     30  C   UNL     1      20.963   0.533  53.380  0.00  0.00    +0.000 C 
BRANCH  30  31
ATOM     31  C   UNL     1      21.112  -0.251  54.687  0.00  0.00    +0.000 C 
BRANCH  31  33
ATOM     32  C   UNL     1      23.451  -0.559  53.797  0.00  0.00    +0.000 C 
ATOM     33  C   UNL     1      22.389  -1.093  54.746  0.00  0.00    +0.000 C 
ENDBRANCH  31  33
ENDBRANCH  30  31
ENDBRANCH  21  30
ENDBRANCH  20  29
ENDBRANCH  19  20
ENDBRANCH   1  19
TORSDOF 9
ENDMDL
MODEL 4
REMARK VINA RESULT:    -9.238      1.931      2.756
REMARK INTER + INTRA:         -15.345
REMARK INTER:                 -13.993
REMARK INTRA:                  -1.353
REMARK UNBOUND:                -1.247
REMARK  Name = 
REMARK  11 active torsions:
REMARK  status: ('A' for Active; 'I' for Inactive)
REMARK    1  A    between atoms: C_1  and  C_2
REMARK    2  A    between atoms: C_2  and  C_3
REMARK    3  A    between atoms: C_3  and  C_4
REMARK    4  A    between atoms: C_4  and  C_5
REMARK    5  A    between atoms: C_13  and  C_14
REMARK    6  A    between atoms: C_14  and  O_15
REMARK    7  A    between atoms: O_15  and  C_16
REMARK    8  A    between atoms: C_20  and  C_21
REMARK    9  A    between atoms: C_21  and  C_22
REMARK   10  A    between atoms: C_23  and  C_24
REMARK   11  A    between atoms: C_24  and  N_25
REMARK                            x       y       z     vdW  Elec       q    Type
REMARK                         _______ _______ _______ _____ _____    ______ ____
ROOT
ATOM      1  C   UNL     1      24.445   3.122  51.084  0.00  0.00    +0.000 A 
ATOM      2  C   UNL     1      23.284   2.556  50.564  0.00  0.00    +0.000 A 
ATOM      3  C   UNL     1      22.736   3.052  49.381  0.00  0.00    +0.000 A 
ATOM      4  C   UNL     1      23.322   4.147  48.737  0.00  0.00    +0.000 A 
ATOM      5  C   UNL     1      24.458   4.771  49.274  0.00  0.00    +0.000 A 
ATOM      6  C   UNL     1      25.018   4.220  50.443  0.00  0.00    +0.000 A 
ENDROOT
BRANCH   5   7
ATOM      7  C   UNL     1      25.066   5.980  48.652  0.00  0.00    +0.000 C 
ATOM      8  C   UNL     1      24.180   6.981  47.959  0.00  0.00    +0.000 C 
ATOM      9  C   UNL     1      26.401   6.166  48.748  0.00  0.00    +0.000 C 
BRANCH   9  10
ATOM     10  C   UNL     1      27.216   7.274  48.156  0.00  0.00    +0.000 C 
BRANCH  10  11
ATOM     11  N   UNL     1      27.986   7.890  49.223  0.00  0.00    +0.000 N 
ATOM     12  O   UNL     1      29.311   8.279  48.829  0.00  0.00    +0.000 OA
ATOM     13  C   UNL     1      29.587   9.465  49.456  0.00  0.00    +0.000 A 
ATOM     14  O   UNL     1      30.608  10.110  49.305  0.00  0.00    +0.000 OA
ATOM     15  N   UNL     1      28.530   9.822  50.200  0.00  0.00    +0.000 N 
ATOM     16  C   UNL     1      27.491   9.016  49.885  0.00  0.00    +0.000 A 
ATOM     17  O   UNL     1      26.314   9.284  50.082  0.00  0.00    +0.000 OA
ATOM     18  H   UNL     1      28.514  10.547  50.865  0.00  0.00    +0.000 HD
ENDBRANCH  10  11
ENDBRANCH   9  10
ENDBRANCH   5   7
BRANCH   1  19
ATOM     19  O   UNL     1      24.915   2.588  52.253  0.00  0.00    +0.000 OA
BRANCH  19  20
ATOM     20  C   UNL     1      25.476   1.268  52.168  0.00  0.00    +0.000 C 
BRANCH  20  29
ATOM     21  C   UNL     1      25.741  -0.101  54.354  0.00  0.00    +0.000 A 
ATOM     22  O   UNL     1      24.944  -0.830  55.185  0.00  0.00    +0.000 OA
ATOM     23  C   UNL     1      23.702  -0.851  54.642  0.00  0.00    +0.000 A 
ATOM     24  C   UNL     1      22.581  -1.442  55.223  0.00  0.00    +0.000 A 
ATOM     25  C   UNL     1      21.383  -1.345  54.509  0.00  0.00    +0.000 A 
ATOM     26  C   UNL     1      21.335  -0.699  53.270  0.00  0.00    +0.000 A 
ATOM     27  C   UNL     1      22.482  -0.112  52.716  0.00  0.00    +0.000 A 
ATOM     28  C   UNL     1      23.697  -0.176  53.428  0.00  0.00    +0.000 A 
ATOM     29  C   UNL     1      25.022   0.345  53.253  0.00  0.00    +0.000 A 
BRANCH  21  30
ATOM     30  C   UNL     1      27.138   0.094  54.826  0.00  0.00    +0.000 C 
BRANCH  30  31
ATOM     31  C   UNL     1      28.174  -0.280  53.763  0.00  0.00    +0.000 C 
BRANCH  31  33
ATOM     32  C   UNL     1      28.764   2.168  53.634  0.00  0.00    +0.000 C 
ATOM     33  C   UNL     1      29.303   0.746  53.630  0.00  0.00    +0.000 C 
ENDBRANCH  31  33
ENDBRANCH  30  31
ENDBRANCH  21  30
ENDBRANCH  20  29
ENDBRANCH  19  20
ENDBRANCH   1  19
TORSDOF 9
ENDMDL
MODEL 5
REMARK VINA RESULT:    -9.212      0.817      3.370
REMARK INTER + INTRA:         -15.306
REMARK INTER:                 -14.319
REMARK INTRA:                  -0.987
REMARK UNBOUND:                -1.247
REMARK  Name = 
REMARK  11 active torsions:
REMARK  status: ('A' for Active; 'I' for Inactive)
REMARK    1  A    between atoms: C_1  and  C_2
REMARK    2  A    between atoms: C_2  and  C_3
REMARK    3  A    between atoms: C_3  and  C_4
REMARK    4  A    between atoms: C_4  and  C_5
REMARK    5  A    between atoms: C_13  and  C_14
REMARK    6  A    between atoms: C_14  and  O_15
REMARK    7  A    between atoms: O_15  and  C_16
REMARK    8  A    between atoms: C_20  and  C_21
REMARK    9  A    between atoms: C_21  and  C_22
REMARK   10  A    between atoms: C_23  and  C_24
REMARK   11  A    between atoms: C_24  and  N_25
REMARK                            x       y       z     vdW  Elec       q    Type
REMARK                         _______ _______ _______ _____ _____    ______ ____
ROOT
ATOM      1  C   UNL     1      26.071   3.957  49.893  0.00  0.00    +0.000 A 
ATOM      2  C   UNL     1      25.017   4.797  50.244  0.00  0.00    +0.000 A 
ATOM      3  C   UNL     1      24.990   6.113  49.782  0.00  0.00    +0.000 A 
ATOM      4  C   UNL     1      26.043   6.609  49.005  0.00  0.00    +0.000 A 
ATOM      5  C   UNL     1      27.144   5.800  48.688  0.00  0.00    +0.000 A 
ATOM      6  C   UNL     1      27.122   4.460  49.127  0.00  0.00    +0.000 A 
ENDROOT
BRANCH   5   7
ATOM      7  C   UNL     1      28.312   6.315  47.921  0.00  0.00    +0.000 C 
ATOM      8  C   UNL     1      28.129   7.487  46.994  0.00  0.00    +0.000 C 
ATOM      9  C   UNL     1      29.520   5.735  48.097  0.00  0.00    +0.000 C 
BRANCH   9  10
ATOM     10  C   UNL     1      30.802   6.059  47.395  0.00  0.00    +0.000 C 
BRANCH  10  11
ATOM     11  N   UNL     1      31.516   7.045  48.187  0.00  0.00    +0.000 N 
ATOM     12  O   UNL     1      30.977   8.372  48.080  0.00  0.00    +0.000 OA
ATOM     13  C   UNL     1      31.065   8.945  49.321  0.00  0.00    +0.000 A 
ATOM     14  O   UNL     1      30.650  10.054  49.605  0.00  0.00    +0.000 OA
ATOM     15  N   UNL     1      31.618   8.067  50.169  0.00  0.00    +0.000 N 
ATOM     16  C   UNL     1      31.672   6.859  49.563  0.00  0.00    +0.000 A 
ATOM     17  O   UNL     1      31.763   5.788  50.146  0.00  0.00    +0.000 OA
ATOM     18  H   UNL     1      31.932   8.268  51.080  0.00  0.00    +0.000 HD
ENDBRANCH  10  11
ENDBRANCH   9  10
ENDBRANCH   5   7
BRANCH   1  19
ATOM     19  O   UNL     1      26.031   2.685  50.395  0.00  0.00    +0.000 OA
BRANCH  19  20
ATOM     20  C   UNL     1      24.994   2.412  51.352  0.00  0.00    +0.000 C 
BRANCH  20  29
ATOM     21  C   UNL     1      24.747   0.464  53.044  0.00  0.00    +0.000 A 
ATOM     22  O   UNL     1      25.523  -0.167  53.971  0.00  0.00    +0.000 OA
ATOM     23  C   UNL     1      26.717   0.476  54.006  0.00  0.00    +0.000 A 
ATOM     24  C   UNL     1      27.810   0.097  54.782  0.00  0.00    +0.000 A 
ATOM     25  C   UNL     1      28.960   0.884  54.668  0.00  0.00    +0.000 A 
ATOM     26  C   UNL     1      28.986   2.001  53.828  0.00  0.00    +0.000 A 
ATOM     27  C   UNL     1      27.867   2.353  53.058  0.00  0.00    +0.000 A 
ATOM     28  C   UNL     1      26.704   1.560  53.138  0.00  0.00    +0.000 A 
ATOM     29  C   UNL     1      25.428   1.534  52.482  0.00  0.00    +0.000 A 
BRANCH  21  30
ATOM     30  C   UNL     1      23.413  -0.151  52.812  0.00  0.00    +0.000 C 
BRANCH  30  31
ATOM     31  C   UNL     1      22.272   0.686  53.396  0.00  0.00    +0.000 C 
BRANCH  31  33
ATOM     32  C   UNL     1      21.999  -1.410  54.772  0.00  0.00    +0.000 C 
ATOM     33  C   UNL     1      21.347  -0.111  54.322  0.00  0.00    +0.000 C 
ENDBRANCH  31  33
ENDBRANCH  30  31
ENDBRANCH  21  30
ENDBRANCH  20  29
ENDBRANCH  19  20
ENDBRANCH   1  19
TORSDOF 9
ENDMDL
MODEL 6
REMARK VINA RESULT:    -9.028      4.456      7.338
REMARK INTER + INTRA:         -15.025
REMARK INTER:                 -12.852
REMARK INTRA:                  -2.173
REMARK UNBOUND:                -1.247
REMARK  Name = 
REMARK  11 active torsions:
REMARK  status: ('A' for Active; 'I' for Inactive)
REMARK    1  A    between atoms: C_1  and  C_2
REMARK    2  A    between atoms: C_2  and  C_3
REMARK    3  A    between atoms: C_3  and  C_4
REMARK    4  A    between atoms: C_4  and  C_5
REMARK    5  A    between atoms: C_13  and  C_14
REMARK    6  A    between atoms: C_14  and  O_15
REMARK    7  A    between atoms: O_15  and  C_16
REMARK    8  A    between atoms: C_20  and  C_21
REMARK    9  A    between atoms: C_21  and  C_22
REMARK   10  A    between atoms: C_23  and  C_24
REMARK   11  A    between atoms: C_24  and  N_25
REMARK                            x       y       z     vdW  Elec       q    Type
REMARK                         _______ _______ _______ _____ _____    ______ ____
ROOT
ATOM      1  C   UNL     1      21.875   3.140  49.559  0.00  0.00    +0.000 A 
ATOM      2  C   UNL     1      21.679   4.272  48.771  0.00  0.00    +0.000 A 
ATOM      3  C   UNL     1      22.771   5.043  48.374  0.00  0.00    +0.000 A 
ATOM      4  C   UNL     1      24.061   4.711  48.802  0.00  0.00    +0.000 A 
ATOM      5  C   UNL     1      24.277   3.610  49.643  0.00  0.00    +0.000 A 
ATOM      6  C   UNL     1      23.162   2.821  49.990  0.00  0.00    +0.000 A 
ENDROOT
BRANCH   5   7
ATOM      7  C   UNL     1      25.626   3.269  50.172  0.00  0.00    +0.000 C 
ATOM      8  C   UNL     1      26.850   3.807  49.478  0.00  0.00    +0.000 C 
ATOM      9  C   UNL     1      25.722   2.506  51.283  0.00  0.00    +0.000 C 
BRANCH   9  10
ATOM     10  C   UNL     1      26.969   2.007  51.946  0.00  0.00    +0.000 C 
BRANCH  10  11
ATOM     11  N   UNL     1      26.625   0.833  52.730  0.00  0.00    +0.000 N 
ATOM     12  O   UNL     1      26.337  -0.328  51.936  0.00  0.00    +0.000 OA
ATOM     13  C   UNL     1      26.854  -1.410  52.600  0.00  0.00    +0.000 A 
ATOM     14  O   UNL     1      26.837  -2.554  52.184  0.00  0.00    +0.000 OA
ATOM     15  N   UNL     1      27.430  -0.991  53.735  0.00  0.00    +0.000 N 
ATOM     16  C   UNL     1      27.505   0.360  53.706  0.00  0.00    +0.000 A 
ATOM     17  O   UNL     1      28.279   1.031  54.374  0.00  0.00    +0.000 OA
ATOM     18  H   UNL     1      27.745  -1.568  54.467  0.00  0.00    +0.000 HD
ENDBRANCH  10  11
ENDBRANCH   9  10
ENDBRANCH   5   7
BRANCH   1  19
ATOM     19  O   UNL     1      20.753   2.444  49.916  0.00  0.00    +0.000 OA
BRANCH  19  20
ATOM     20  C   UNL     1      20.882   1.013  49.963  0.00  0.00    +0.000 C 
BRANCH  20  29
ATOM     21  C   UNL     1      19.283  -0.054  51.703  0.00  0.00    +0.000 A 
ATOM     22  O   UNL     1      19.381  -0.643  52.929  0.00  0.00    +0.000 OA
ATOM     23  C   UNL     1      20.681  -0.576  53.309  0.00  0.00    +0.000 A 
ATOM     24  C   UNL     1      21.205  -1.126  54.478  0.00  0.00    +0.000 A 
ATOM     25  C   UNL     1      22.578  -0.961  54.685  0.00  0.00    +0.000 A 
ATOM     26  C   UNL     1      23.365  -0.262  53.764  0.00  0.00    +0.000 A 
ATOM     27  C   UNL     1      22.804   0.276  52.596  0.00  0.00    +0.000 A 
ATOM     28  C   UNL     1      21.426   0.102  52.353  0.00  0.00    +0.000 A 
ATOM     29  C   UNL     1      20.521   0.415  51.285  0.00  0.00    +0.000 A 
BRANCH  21  30
ATOM     30  C   UNL     1      17.930  -0.097  51.087  0.00  0.00    +0.000 C 
BRANCH  30  31
ATOM     31  C   UNL     1      17.047   1.072  51.530  0.00  0.00    +0.000 C 
BRANCH  31  33
ATOM     32  C   UNL     1      17.940   3.430  51.563  0.00  0.00    +0.000 C 
ATOM     33  C   UNL     1      17.281   2.350  50.719  0.00  0.00    +0.000 C 
ENDBRANCH  31  33
ENDBRANCH  30  31
ENDBRANCH  21  30
ENDBRANCH  20  29
ENDBRANCH  19  20
ENDBRANCH   1  19
TORSDOF 9
ENDMDL
MODEL 7
REMARK VINA RESULT:    -8.973      4.151      8.149
REMARK INTER + INTRA:         -14.940
REMARK INTER:                 -13.100
REMARK INTRA:                  -1.840
REMARK UNBOUND:                -1.247
REMARK  Name = 
REMARK  11 active torsions:
REMARK  status: ('A' for Active; 'I' for Inactive)
REMARK    1  A    between atoms: C_1  and  C_2
REMARK    2  A    between atoms: C_2  and  C_3
REMARK    3  A    between atoms: C_3  and  C_4
REMARK    4  A    between atoms: C_4  and  C_5
REMARK    5  A    between atoms: C_13  and  C_14
REMARK    6  A    between atoms: C_14  and  O_15
REMARK    7  A    between atoms: O_15  and  C_16
REMARK    8  A    between atoms: C_20  and  C_21
REMARK    9  A    between atoms: C_21  and  C_22
REMARK   10  A    between atoms: C_23  and  C_24
REMARK   11  A    between atoms: C_24  and  N_25
REMARK                            x       y       z     vdW  Elec       q    Type
REMARK                         _______ _______ _______ _____ _____    ______ ____
ROOT
ATOM      1  C   UNL     1      20.760   0.904  50.856  0.00  0.00    +0.000 A 
ATOM      2  C   UNL     1      19.423   0.645  51.148  0.00  0.00    +0.000 A 
ATOM      3  C   UNL     1      19.081   0.004  52.338  0.00  0.00    +0.000 A 
ATOM      4  C   UNL     1      20.079  -0.425  53.220  0.00  0.00    +0.000 A 
ATOM      5  C   UNL     1      21.434  -0.228  52.920  0.00  0.00    +0.000 A 
ATOM      6  C   UNL     1      21.750   0.466  51.734  0.00  0.00    +0.000 A 
ENDROOT
BRANCH   5   7
ATOM      7  C   UNL     1      22.523  -0.730  53.804  0.00  0.00    +0.000 C 
ATOM      8  C   UNL     1      22.175  -1.596  54.986  0.00  0.00    +0.000 C 
ATOM      9  C   UNL     1      23.805  -0.421  53.506  0.00  0.00    +0.000 C 
BRANCH   9  10
ATOM     10  C   UNL     1      25.035  -0.776  54.282  0.00  0.00    +0.000 C 
BRANCH  10  11
ATOM     11  N   UNL     1      26.186  -0.240  53.576  0.00  0.00    +0.000 N 
ATOM     12  O   UNL     1      27.029   0.589  54.390  0.00  0.00    +0.000 OA
ATOM     13  C   UNL     1      28.324   0.333  54.023  0.00  0.00    +0.000 A 
ATOM     14  O   UNL     1      29.305   0.825  54.548  0.00  0.00    +0.000 OA
ATOM     15  N   UNL     1      28.327  -0.586  53.048  0.00  0.00    +0.000 N 
ATOM     16  C   UNL     1      27.081  -1.102  52.939  0.00  0.00    +0.000 A 
ATOM     17  O   UNL     1      26.815  -2.184  52.435  0.00  0.00    +0.000 OA
ATOM     18  H   UNL     1      29.105  -0.842  52.502  0.00  0.00    +0.000 HD
ENDBRANCH  10  11
ENDBRANCH   9  10
ENDBRANCH   5   7
BRANCH   1  19
ATOM     19  O   UNL     1      21.016   1.526  49.665  0.00  0.00    +0.000 OA
BRANCH  19  20
ATOM     20  C   UNL     1      22.380   1.908  49.428  0.00  0.00    +0.000 C 
BRANCH  20  29
ATOM     21  C   UNL     1      23.932   3.295  50.974  0.00  0.00    +0.000 A 
ATOM     22  O   UNL     1      24.043   4.590  51.387  0.00  0.00    +0.000 OA
ATOM     23  C   UNL     1      23.003   5.277  50.852  0.00  0.00    +0.000 A 
ATOM     24  C   UNL     1      22.793   6.648  50.984  0.00  0.00    +0.000 A 
ATOM     25  C   UNL     1      21.667   7.173  50.345  0.00  0.00    +0.000 A 
ATOM     26  C   UNL     1      20.796   6.345  49.628  0.00  0.00    +0.000 A 
ATOM     27  C   UNL     1      21.040   4.968  49.512  0.00  0.00    +0.000 A 
ATOM     28  C   UNL     1      22.183   4.420  50.129  0.00  0.00    +0.000 A 
ATOM     29  C   UNL     1      22.807   3.129  50.179  0.00  0.00    +0.000 A 
BRANCH  21  30
ATOM     30  C   UNL     1      25.036   2.397  51.407  0.00  0.00    +0.000 C 
BRANCH  30  31
ATOM     31  C   UNL     1      26.408   2.883  50.934  0.00  0.00    +0.000 C 
BRANCH  31  33
ATOM     32  C   UNL     1      27.132   4.459  49.103  0.00  0.00    +0.000 C 
ATOM     33  C   UNL     1      26.477   3.124  49.423  0.00  0.00    +0.000 C 
ENDBRANCH  31  33
ENDBRANCH  30  31
ENDBRANCH  21  30
ENDBRANCH  20  29
ENDBRANCH  19  20
ENDBRANCH   1  19
TORSDOF 9
ENDMDL
MODEL 8
REMARK VINA RESULT:    -8.884      5.051      8.231
REMARK INTER + INTRA:         -14.805
REMARK INTER:                 -12.636
REMARK INTRA:                  -2.169
REMARK UNBOUND:                -1.247
REMARK  Name = 
REMARK  11 active torsions:
REMARK  status: ('A' for Active; 'I' for Inactive)
REMARK    1  A    between atoms: C_1  and  C_2
REMARK    2  A    between atoms: C_2  and  C_3
REMARK    3  A    between atoms: C_3  and  C_4
REMARK    4  A    between atoms: C_4  and  C_5
REMARK    5  A    between atoms: C_13  and  C_14
REMARK    6  A    between atoms: C_14  and  O_15
REMARK    7  A    between atoms: O_15  and  C_16
REMARK    8  A    between atoms: C_20  and  C_21
REMARK    9  A    between atoms: C_21  and  C_22
REMARK   10  A    between atoms: C_23  and  C_24
REMARK   11  A    between atoms: C_24  and  N_25
REMARK                            x       y       z     vdW  Elec       q    Type
REMARK                         _______ _______ _______ _____ _____    ______ ____
ROOT
ATOM      1  C   UNL     1      22.518  -0.417  53.524  0.00  0.00    +0.000 A 
ATOM      2  C   UNL     1      21.512  -0.891  54.362  0.00  0.00    +0.000 A 
ATOM      3  C   UNL     1      20.175  -0.779  53.980  0.00  0.00    +0.000 A 
ATOM      4  C   UNL     1      19.836  -0.149  52.778  0.00  0.00    +0.000 A 
ATOM      5  C   UNL     1      20.828   0.388  51.945  0.00  0.00    +0.000 A 
ATOM      6  C   UNL     1      22.173   0.218  52.332  0.00  0.00    +0.000 A 
ENDROOT
BRANCH   5   7
ATOM      7  C   UNL     1      20.499   1.124  50.693  0.00  0.00    +0.000 C 
ATOM      8  C   UNL     1      21.303   0.861  49.447  0.00  0.00    +0.000 C 
ATOM      9  C   UNL     1      19.463   1.993  50.695  0.00  0.00    +0.000 C 
BRANCH   9  10
ATOM     10  C   UNL     1      18.999   2.866  49.571  0.00  0.00    +0.000 C 
BRANCH  10  11
ATOM     11  N   UNL     1      19.614   4.173  49.730  0.00  0.00    +0.000 N 
ATOM     12  O   UNL     1      20.031   4.455  51.075  0.00  0.00    +0.000 OA
ATOM     13  C   UNL     1      21.213   5.142  50.996  0.00  0.00    +0.000 A 
ATOM     14  O   UNL     1      21.877   5.495  51.953  0.00  0.00    +0.000 OA
ATOM     15  N   UNL     1      21.542   5.298  49.706  0.00  0.00    +0.000 N 
ATOM     16  C   UNL     1      20.722   4.525  48.957  0.00  0.00    +0.000 A 
ATOM     17  O   UNL     1      20.968   4.142  47.822  0.00  0.00    +0.000 OA
ATOM     18  H   UNL     1      22.258   5.878  49.361  0.00  0.00    +0.000 HD
ENDBRANCH  10  11
ENDBRANCH   9  10
ENDBRANCH   5   7
BRANCH   1  19
ATOM     19  O   UNL     1      23.802  -0.554  53.974  0.00  0.00    +0.000 OA
BRANCH  19  20
ATOM     20  C   UNL     1      24.817  -0.694  52.966  0.00  0.00    +0.000 C 
BRANCH  20  29
ATOM     21  C   UNL     1      26.021   1.550  53.453  0.00  0.00    +0.000 A 
ATOM     22  O   UNL     1      27.293   1.976  53.699  0.00  0.00    +0.000 OA
ATOM     23  C   UNL     1      28.108   0.897  53.598  0.00  0.00    +0.000 A 
ATOM     24  C   UNL     1      29.480   0.902  53.842  0.00  0.00    +0.000 A 
ATOM     25  C   UNL     1      30.145  -0.319  53.696  0.00  0.00    +0.000 A 
ATOM     26  C   UNL     1      29.455  -1.472  53.306  0.00  0.00    +0.000 A 
ATOM     27  C   UNL     1      28.072  -1.441  53.071  0.00  0.00    +0.000 A 
ATOM     28  C   UNL     1      27.376  -0.226  53.236  0.00  0.00    +0.000 A 
ATOM     29  C   UNL     1      26.004   0.191  53.173  0.00  0.00    +0.000 A 
BRANCH  21  30
ATOM     30  C   UNL     1      24.968   2.591  53.591  0.00  0.00    +0.000 C 
BRANCH  30  31
ATOM     31  C   UNL     1      24.231   2.859  52.276  0.00  0.00    +0.000 C 
BRANCH  31  33
ATOM     32  C   UNL     1      24.379   3.123  49.772  0.00  0.00    +0.000 C 
ATOM     33  C   UNL     1      25.159   2.892  51.058  0.00  0.00    +0.000 C 
ENDBRANCH  31  33
ENDBRANCH  30  31
ENDBRANCH  21  30
ENDBRANCH  20  29
ENDBRANCH  19  20
ENDBRANCH   1  19
TORSDOF 9
ENDMDL
MODEL 9
REMARK VINA RESULT:    -8.868      2.257      4.544
REMARK INTER + INTRA:         -14.780
REMARK INTER:                 -13.574
REMARK INTRA:                  -1.206
REMARK UNBOUND:                -1.247
REMARK  Name = 
REMARK  11 active torsions:
REMARK  status: ('A' for Active; 'I' for Inactive)
REMARK    1  A    between atoms: C_1  and  C_2
REMARK    2  A    between atoms: C_2  and  C_3
REMARK    3  A    between atoms: C_3  and  C_4
REMARK    4  A    between atoms: C_4  and  C_5
REMARK    5  A    between atoms: C_13  and  C_14
REMARK    6  A    between atoms: C_14  and  O_15
REMARK    7  A    between atoms: O_15  and  C_16
REMARK    8  A    between atoms: C_20  and  C_21
REMARK    9  A    between atoms: C_21  and  C_22
REMARK   10  A    between atoms: C_23  and  C_24
REMARK   11  A    between atoms: C_24  and  N_25
REMARK                            x       y       z     vdW  Elec       q    Type
REMARK                         _______ _______ _______ _____ _____    ______ ____
ROOT
ATOM      1  C   UNL     1      23.384   3.239  51.188  0.00  0.00    +0.000 A 
ATOM      2  C   UNL     1      22.739   2.311  50.375  0.00  0.00    +0.000 A 
ATOM      3  C   UNL     1      22.726   2.487  48.992  0.00  0.00    +0.000 A 
ATOM      4  C   UNL     1      23.319   3.617  48.419  0.00  0.00    +0.000 A 
ATOM      5  C   UNL     1      23.923   4.595  49.222  0.00  0.00    +0.000 A 
ATOM      6  C   UNL     1      23.964   4.369  50.612  0.00  0.00    +0.000 A 
ENDROOT
BRANCH   5   7
ATOM      7  C   UNL     1      24.503   5.842  48.650  0.00  0.00    +0.000 C 
ATOM      8  C   UNL     1      23.595   6.846  47.991  0.00  0.00    +0.000 C 
ATOM      9  C   UNL     1      25.833   6.058  48.763  0.00  0.00    +0.000 C 
BRANCH   9  10
ATOM     10  C   UNL     1      26.622   7.208  48.219  0.00  0.00    +0.000 C 
BRANCH  10  11
ATOM     11  N   UNL     1      27.400   7.778  49.305  0.00  0.00    +0.000 N 
ATOM     12  O   UNL     1      28.702   8.235  48.905  0.00  0.00    +0.000 OA
ATOM     13  C   UNL     1      28.957   9.386  49.603  0.00  0.00    +0.000 A 
ATOM     14  O   UNL     1      29.953  10.073  49.471  0.00  0.00    +0.000 OA
ATOM     15  N   UNL     1      27.910   9.657  50.396  0.00  0.00    +0.000 N 
ATOM     16  C   UNL     1      26.888   8.840  50.053  0.00  0.00    +0.000 A 
ATOM     17  O   UNL     1      25.710   9.056  50.297  0.00  0.00    +0.000 OA
ATOM     18  H   UNL     1      27.889  10.336  51.108  0.00  0.00    +0.000 HD
ENDBRANCH  10  11
ENDBRANCH   9  10
ENDBRANCH   5   7
BRANCH   1  19
ATOM     19  O   UNL     1      23.344   3.003  52.535  0.00  0.00    +0.000 OA
BRANCH  19  20
ATOM     20  C   UNL     1      24.602   3.050  53.227  0.00  0.00    +0.000 C 
BRANCH  20  29
ATOM     21  C   UNL     1      24.624   0.464  53.415  0.00  0.00    +0.000 A 
ATOM     22  O   UNL     1      25.554  -0.530  53.503  0.00  0.00    +0.000 OA
ATOM     23  C   UNL     1      26.775   0.060  53.552  0.00  0.00    +0.000 A 
ATOM     24  C   UNL     1      27.993  -0.616  53.581  0.00  0.00    +0.000 A 
ATOM     25  C   UNL     1      29.145   0.174  53.617  0.00  0.00    +0.000 A 
ATOM     26  C   UNL     1      29.060   1.569  53.641  0.00  0.00    +0.000 A 
ATOM     27  C   UNL     1      27.816   2.218  53.608  0.00  0.00    +0.000 A 
ATOM     28  C   UNL     1      26.640   1.443  53.547  0.00  0.00    +0.000 A 
ATOM     29  C   UNL     1      25.236   1.709  53.423  0.00  0.00    +0.000 A 
BRANCH  21  30
ATOM     30  C   UNL     1      23.217   0.002  53.278  0.00  0.00    +0.000 C 
BRANCH  30  31
ATOM     31  C   UNL     1      22.851  -1.075  54.302  0.00  0.00    +0.000 C 
BRANCH  31  33
ATOM     32  C   UNL     1      20.571  -0.065  53.925  0.00  0.00    +0.000 C 
ATOM     33  C   UNL     1      21.340  -1.255  54.479  0.00  0.00    +0.000 C 
ENDBRANCH  31  33
ENDBRANCH  30  31
ENDBRANCH  21  30
ENDBRANCH  20  29
ENDBRANCH  19  20
ENDBRANCH   1  19
TORSDOF 9
ENDMDL
