MODEL 1
REMARK VINA RESULT:    -8.036      0.000      0.000
REMARK INTER + INTRA:          -9.332
REMARK INTER:                  -9.210
REMARK INTRA:                  -0.122
REMARK UNBOUND:                -0.122
REMARK  Name = 
REMARK  7 active torsions:
REMARK  status: ('A' for Active; 'I' for Inactive)
REMARK    1  A    between atoms: C_1  and  C_2
REMARK    2  A    between atoms: C_10  and  C_11
REMARK    3  A    between atoms: C_14  and  N_15
REMARK    4  A    between atoms: C_20  and  C_22
REMARK    5  A    between atoms: C_22  and  C_23
REMARK    6  A    between atoms: C_22  and  C_24
REMARK    7  A    between atoms: C_22  and  C_25
REMARK                            x       y       z     vdW  Elec       q    Type
REMARK                         _______ _______ _______ _____ _____    ______ ____
ROOT
ATOM      1  C   UNL     1      21.557   6.005  51.381  0.00  0.00    +0.000 C 
ATOM      2  C   UNL     1      22.624   4.906  51.292  0.00  0.00    +0.000 C 
ATOM      3  C   UNL     1      23.059   4.464  52.708  0.00  0.00    +0.000 C 
ATOM      4  C   UNL     1      23.777   3.138  52.679  0.00  0.00    +0.000 A 
ATOM      5  C   UNL     1      25.147   3.044  52.958  0.00  0.00    +0.000 A 
ATOM      6  C   UNL     1      25.752   1.811  52.813  0.00  0.00    +0.000 A 
ATOM      7  C   UNL     1      25.046   0.694  52.423  0.00  0.00    +0.000 A 
ATOM      8  C   UNL     1      23.695   0.736  52.168  0.00  0.00    +0.000 A 
ATOM      9  C   UNL     1      23.058   1.978  52.296  0.00  0.00    +0.000 A 
ATOM     10  C   UNL     1      21.617   2.098  51.906  0.00  0.00    +0.000 C 
ATOM     11  N   UNL     1      21.194   2.950  51.010  0.00  0.00    +0.000 NA
ATOM     12  N   UNL     1      22.142   3.775  50.463  0.00  0.00    +0.000 N 
ATOM     13  C   UNL     1      22.533   3.659  49.122  0.00  0.00    +0.000 C 
ATOM     14  O   UNL     1      23.349   4.452  48.634  0.00  0.00    +0.000 OA
ATOM     15  O   UNL     1      25.837  -0.404  52.304  0.00  0.00    +0.000 OA
ATOM     16  C   UNL     1      27.136   0.172  52.555  0.00  0.00    +0.000 C 
ATOM     17  O   UNL     1      27.074   1.547  52.984  0.00  0.00    +0.000 OA
ENDROOT
BRANCH  10  18
ATOM     18  C   UNL     1      20.639   1.135  52.490  0.00  0.00    +0.000 A 
ATOM     19  C   UNL     1      20.852   0.575  53.750  0.00  0.00    +0.000 A 
ATOM     20  C   UNL     1      19.978  -0.399  54.231  0.00  0.00    +0.000 A 
ATOM     21  C   UNL     1      18.909  -0.857  53.452  0.00  0.00    +0.000 A 
ATOM     22  C   UNL     1      18.641  -0.214  52.240  0.00  0.00    +0.000 A 
ATOM     23  C   UNL     1      19.510   0.766  51.750  0.00  0.00    +0.000 A 
BRANCH  21  24
ATOM     24  N   UNL     1      17.997  -1.771  53.979  0.00  0.00    +0.000 N 
ATOM     25  H   UNL     1      17.409  -1.506  54.723  0.00  0.00    +0.000 HD
ATOM     26  H   UNL     1      17.941  -2.681  53.607  0.00  0.00    +0.000 HD
ENDBRANCH  21  24
ENDBRANCH  10  18
BRANCH  13  27
ATOM     27  C   UNL     1      21.920   2.534  48.233  0.00  0.00    +0.000 C 
ATOM     28  C   UNL     1      20.466   2.887  47.893  0.00  0.00    +0.000 C 
ATOM     29  C   UNL     1      22.710   2.454  46.905  0.00  0.00    +0.000 C 
ATOM     30  C   UNL     1      22.023   1.128  48.842  0.00  0.00    +0.000 C 
ENDBRANCH  13  27
TORSDOF 3
ENDMDL
MODEL 2
REMARK VINA RESULT:    -7.430      2.606      5.646
REMARK INTER + INTRA:          -8.637
REMARK INTER:                  -8.532
REMARK INTRA:                  -0.105
REMARK UNBOUND:                -0.122
REMARK  Name = 
REMARK  7 active torsions:
REMARK  status: ('A' for Active; 'I' for Inactive)
REMARK    1  A    between atoms: C_1  and  C_2
REMARK    2  A    between atoms: C_10  and  C_11
REMARK    3  A    between atoms: C_14  and  N_15
REMARK    4  A    between atoms: C_20  and  C_22
REMARK    5  A    between atoms: C_22  and  C_23
REMARK    6  A    between atoms: C_22  and  C_24
REMARK    7  A    between atoms: C_22  and  C_25
REMARK                            x       y       z     vdW  Elec       q    Type
REMARK                         _______ _______ _______ _____ _____    ______ ____
ROOT
ATOM      1  C   UNL     1      22.663   3.076  47.102  0.00  0.00    +0.000 C 
ATOM      2  C   UNL     1      21.911   2.759  48.401  0.00  0.00    +0.000 C 
ATOM      3  C   UNL     1      21.947   1.240  48.684  0.00  0.00    +0.000 C 
ATOM      4  C   UNL     1      21.592   0.934  50.118  0.00  0.00    +0.000 A 
ATOM      5  C   UNL     1      20.395   0.288  50.452  0.00  0.00    +0.000 A 
ATOM      6  C   UNL     1      20.096   0.135  51.792  0.00  0.00    +0.000 A 
ATOM      7  C   UNL     1      20.943   0.580  52.783  0.00  0.00    +0.000 A 
ATOM      8  C   UNL     1      22.142   1.192  52.499  0.00  0.00    +0.000 A 
ATOM      9  C   UNL     1      22.464   1.371  51.146  0.00  0.00    +0.000 A 
ATOM     10  C   UNL     1      23.696   2.145  50.791  0.00  0.00    +0.000 C 
ATOM     11  N   UNL     1      23.671   3.207  50.029  0.00  0.00    +0.000 NA
ATOM     12  N   UNL     1      22.447   3.563  49.525  0.00  0.00    +0.000 N 
ATOM     13  C   UNL     1      21.791   4.729  49.942  0.00  0.00    +0.000 C 
ATOM     14  O   UNL     1      20.713   5.061  49.432  0.00  0.00    +0.000 OA
ATOM     15  O   UNL     1      20.443   0.365  54.028  0.00  0.00    +0.000 OA
ATOM     16  C   UNL     1      19.140  -0.164  53.705  0.00  0.00    +0.000 C 
ATOM     17  O   UNL     1      18.959  -0.413  52.297  0.00  0.00    +0.000 OA
ENDROOT
BRANCH  10  18
ATOM     18  C   UNL     1      24.991   1.747  51.415  0.00  0.00    +0.000 A 
ATOM     19  C   UNL     1      25.119   0.529  52.083  0.00  0.00    +0.000 A 
ATOM     20  C   UNL     1      26.307   0.224  52.746  0.00  0.00    +0.000 A 
ATOM     21  C   UNL     1      27.365   1.141  52.788  0.00  0.00    +0.000 A 
ATOM     22  C   UNL     1      27.268   2.309  52.027  0.00  0.00    +0.000 A 
ATOM     23  C   UNL     1      26.081   2.623  51.356  0.00  0.00    +0.000 A 
BRANCH  21  24
ATOM     24  N   UNL     1      28.576   0.789  53.384  0.00  0.00    +0.000 N 
ATOM     25  H   UNL     1      28.644  -0.045  53.902  0.00  0.00    +0.000 HD
ATOM     26  H   UNL     1      29.361   1.375  53.287  0.00  0.00    +0.000 HD
ENDBRANCH  21  24
ENDBRANCH  10  18
BRANCH  13  27
ATOM     27  C   UNL     1      22.434   5.626  51.044  0.00  0.00    +0.000 C 
ATOM     28  C   UNL     1      23.878   5.963  50.649  0.00  0.00    +0.000 C 
ATOM     29  C   UNL     1      21.646   6.955  51.135  0.00  0.00    +0.000 C 
ATOM     30  C   UNL     1      22.369   5.028  52.457  0.00  0.00    +0.000 C 
ENDBRANCH  13  27
TORSDOF 3
ENDMDL
MODEL 3
REMARK VINA RESULT:    -7.224      3.086      4.705
REMARK INTER + INTRA:          -8.402
REMARK INTER:                  -8.674
REMARK INTRA:                   0.273
REMARK UNBOUND:                -0.122
REMARK  Name = 
REMARK  7 active torsions:
REMARK  status: ('A' for Active; 'I' for Inactive)
REMARK    1  A    between atoms: C_1  and  C_2
REMARK    2  A    between atoms: C_10  and  C_11
REMARK    3  A    between atoms: C_14  and  N_15
REMARK    4  A    between atoms: C_20  and  C_22
REMARK    5  A    between atoms: C_22  and  C_23
REMARK    6  A    between atoms: C_22  and  C_24
REMARK    7  A    between atoms: C_22  and  C_25
REMARK                            x       y       z     vdW  Elec       q    Type
REMARK                         _______ _______ _______ _____ _____    ______ ____
ROOT
ATOM      1  C   UNL     1      20.833   4.547  52.468  0.00  0.00    +0.000 C 
ATOM      2  C   UNL     1      21.913   4.850  51.422  0.00  0.00    +0.000 C 
ATOM      3  C   UNL     1      23.210   5.329  52.113  0.00  0.00    +0.000 C 
ATOM      4  C   UNL     1      24.397   5.243  51.185  0.00  0.00    +0.000 A 
ATOM      5  C   UNL     1      25.026   6.396  50.699  0.00  0.00    +0.000 A 
ATOM      6  C   UNL     1      26.041   6.236  49.776  0.00  0.00    +0.000 A 
ATOM      7  C   UNL     1      26.447   4.991  49.347  0.00  0.00    +0.000 A 
ATOM      8  C   UNL     1      25.876   3.833  49.821  0.00  0.00    +0.000 A 
ATOM      9  C   UNL     1      24.835   3.968  50.751  0.00  0.00    +0.000 A 
ATOM     10  C   UNL     1      24.099   2.742  51.197  0.00  0.00    +0.000 C 
ATOM     11  N   UNL     1      22.805   2.607  51.072  0.00  0.00    +0.000 NA
ATOM     12  N   UNL     1      22.133   3.677  50.542  0.00  0.00    +0.000 N 
ATOM     13  C   UNL     1      21.536   3.618  49.275  0.00  0.00    +0.000 C 
ATOM     14  O   UNL     1      20.885   4.576  48.840  0.00  0.00    +0.000 OA
ATOM     15  O   UNL     1      27.429   5.060  48.411  0.00  0.00    +0.000 OA
ATOM     16  C   UNL     1      27.519   6.487  48.220  0.00  0.00    +0.000 C 
ATOM     17  O   UNL     1      26.721   7.237  49.158  0.00  0.00    +0.000 OA
ENDROOT
BRANCH  10  18
ATOM     18  C   UNL     1      24.888   1.586  51.712  0.00  0.00    +0.000 A 
ATOM     19  C   UNL     1      24.278   0.584  52.469  0.00  0.00    +0.000 A 
ATOM     20  C   UNL     1      25.054  -0.431  53.026  0.00  0.00    +0.000 A 
ATOM     21  C   UNL     1      26.446  -0.441  52.874  0.00  0.00    +0.000 A 
ATOM     22  C   UNL     1      27.034   0.502  52.027  0.00  0.00    +0.000 A 
ATOM     23  C   UNL     1      26.264   1.524  51.461  0.00  0.00    +0.000 A 
BRANCH  21  24
ATOM     24  N   UNL     1      27.199  -1.507  53.367  0.00  0.00    +0.000 N 
ATOM     25  H   UNL     1      27.683  -1.414  54.220  0.00  0.00    +0.000 HD
ATOM     26  H   UNL     1      27.246  -2.351  52.863  0.00  0.00    +0.000 HD
ENDBRANCH  21  24
ENDBRANCH  10  18
BRANCH  13  27
ATOM     27  C   UNL     1      21.679   2.325  48.414  0.00  0.00    +0.000 C 
ATOM     28  C   UNL     1      21.294   1.104  49.260  0.00  0.00    +0.000 C 
ATOM     29  C   UNL     1      20.697   2.403  47.221  0.00  0.00    +0.000 C 
ATOM     30  C   UNL     1      23.065   2.146  47.777  0.00  0.00    +0.000 C 
ENDBRANCH  13  27
TORSDOF 3
ENDMDL
MODEL 4
REMARK VINA RESULT:    -7.192      2.817      5.685
REMARK INTER + INTRA:          -8.365
REMARK INTER:                  -8.242
REMARK INTRA:                  -0.124
REMARK UNBOUND:                -0.122
REMARK  Name = 
REMARK  7 active torsions:
REMARK  status: ('A' for Active; 'I' for Inactive)
REMARK    1  A    between atoms: C_1  and  C_2
REMARK    2  A    between atoms: C_10  and  C_11
REMARK    3  A    between atoms: C_14  and  N_15
REMARK    4  A    between atoms: C_20  and  C_22
REMARK    5  A    between atoms: C_22  and  C_23
REMARK    6  A    between atoms: C_22  and  C_24
REMARK    7  A    between atoms: C_22  and  C_25
REMARK                            x       y       z     vdW  Elec       q    Type
REMARK                         _______ _______ _______ _____ _____    ______ ____
ROOT
ATOM      1  C   UNL     1      22.723   2.292  47.307  0.00  0.00    +0.000 C 
ATOM      2  C   UNL     1      21.589   2.935  48.116  0.00  0.00    +0.000 C 
ATOM      3  C   UNL     1      20.388   1.968  48.219  0.00  0.00    +0.000 C 
ATOM      4  C   UNL     1      19.441   2.375  49.321  0.00  0.00    +0.000 A 
ATOM      5  C   UNL     1      18.160   2.867  49.036  0.00  0.00    +0.000 A 
ATOM      6  C   UNL     1      17.391   3.312  50.094  0.00  0.00    +0.000 A 
ATOM      7  C   UNL     1      17.843   3.267  51.394  0.00  0.00    +0.000 A 
ATOM      8  C   UNL     1      19.082   2.764  51.720  0.00  0.00    +0.000 A 
ATOM      9  C   UNL     1      19.888   2.316  50.664  0.00  0.00    +0.000 A 
ATOM     10  C   UNL     1      21.290   1.880  50.957  0.00  0.00    +0.000 C 
ATOM     11  N   UNL     1      22.334   2.413  50.379  0.00  0.00    +0.000 NA
ATOM     12  N   UNL     1      22.080   3.380  49.442  0.00  0.00    +0.000 N 
ATOM     13  C   UNL     1      22.414   4.724  49.663  0.00  0.00    +0.000 C 
ATOM     14  O   UNL     1      22.227   5.571  48.780  0.00  0.00    +0.000 OA
ATOM     15  O   UNL     1      16.949   3.789  52.273  0.00  0.00    +0.000 OA
ATOM     16  C   UNL     1      15.932   4.267  51.368  0.00  0.00    +0.000 C 
ATOM     17  O   UNL     1      16.156   3.871  50.001  0.00  0.00    +0.000 OA
ENDROOT
BRANCH  10  18
ATOM     18  C   UNL     1      21.511   0.864  52.028  0.00  0.00    +0.000 A 
ATOM     19  C   UNL     1      20.449   0.110  52.528  0.00  0.00    +0.000 A 
ATOM     20  C   UNL     1      20.661  -0.758  53.598  0.00  0.00    +0.000 A 
ATOM     21  C   UNL     1      21.917  -0.856  54.209  0.00  0.00    +0.000 A 
ATOM     22  C   UNL     1      22.996  -0.180  53.634  0.00  0.00    +0.000 A 
ATOM     23  C   UNL     1      22.795   0.692  52.558  0.00  0.00    +0.000 A 
BRANCH  21  24
ATOM     24  N   UNL     1      22.133  -1.789  55.224  0.00  0.00    +0.000 N 
ATOM     25  H   UNL     1      21.483  -1.874  55.960  0.00  0.00    +0.000 HD
ATOM     26  H   UNL     1      22.933  -2.360  55.205  0.00  0.00    +0.000 HD
ENDBRANCH  21  24
ENDBRANCH  10  18
BRANCH  13  27
ATOM     27  C   UNL     1      23.043   5.151  51.025  0.00  0.00    +0.000 C 
ATOM     28  C   UNL     1      24.352   4.381  51.246  0.00  0.00    +0.000 C 
ATOM     29  C   UNL     1      23.384   6.659  50.971  0.00  0.00    +0.000 C 
ATOM     30  C   UNL     1      22.098   4.999  52.226  0.00  0.00    +0.000 C 
ENDBRANCH  13  27
TORSDOF 3
ENDMDL
MODEL 5
REMARK VINA RESULT:    -6.478      5.873      9.331
REMARK INTER + INTRA:          -7.546
REMARK INTER:                  -7.037
REMARK INTRA:                  -0.509
REMARK UNBOUND:                -0.122
REMARK  Name = 
REMARK  7 active torsions:
REMARK  status: ('A' for Active; 'I' for Inactive)
REMARK    1  A    between atoms: C_1  and  C_2
REMARK    2  A    between atoms: C_10  and  C_11
REMARK    3  A    between atoms: C_14  and  N_15
REMARK    4  A    between atoms: C_20  and  C_22
REMARK    5  A    between atoms: C_22  and  C_23
REMARK    6  A    between atoms: C_22  and  C_24
REMARK    7  A    between atoms: C_22  and  C_25
REMARK                            x       y       z     vdW  Elec       q    Type
REMARK                         _______ _______ _______ _____ _____    ______ ____
ROOT
ATOM      1  C   UNL     1      13.153  -3.539  51.475  0.00  0.00    +0.000 C 
ATOM      2  C   UNL     1      13.077  -2.009  51.561  0.00  0.00    +0.000 C 
ATOM      3  C   UNL     1      13.321  -1.540  53.012  0.00  0.00    +0.000 C 
ATOM      4  C   UNL     1      13.660  -0.070  53.071  0.00  0.00    +0.000 A 
ATOM      5  C   UNL     1      12.775   0.860  53.631  0.00  0.00    +0.000 A 
ATOM      6  C   UNL     1      13.113   2.197  53.556  0.00  0.00    +0.000 A 
ATOM      7  C   UNL     1      14.286   2.621  52.970  0.00  0.00    +0.000 A 
ATOM      8  C   UNL     1      15.196   1.739  52.435  0.00  0.00    +0.000 A 
ATOM      9  C   UNL     1      14.872   0.376  52.487  0.00  0.00    +0.000 A 
ATOM     10  C   UNL     1      15.770  -0.609  51.805  0.00  0.00    +0.000 C 
ATOM     11  N   UNL     1      15.348  -1.434  50.883  0.00  0.00    +0.000 NA
ATOM     12  N   UNL     1      14.010  -1.384  50.593  0.00  0.00    +0.000 N 
ATOM     13  C   UNL     1      13.541  -0.905  49.361  0.00  0.00    +0.000 C 
ATOM     14  O   UNL     1      12.332  -0.922  49.098  0.00  0.00    +0.000 OA
ATOM     15  O   UNL     1      14.404   3.975  52.967  0.00  0.00    +0.000 OA
ATOM     16  C   UNL     1      13.127   4.357  53.518  0.00  0.00    +0.000 C 
ATOM     17  O   UNL     1      12.353   3.236  53.992  0.00  0.00    +0.000 OA
ENDROOT
BRANCH  10  18
ATOM     18  C   UNL     1      17.229  -0.579  52.119  0.00  0.00    +0.000 A 
ATOM     19  C   UNL     1      17.725  -1.191  53.271  0.00  0.00    +0.000 A 
ATOM     20  C   UNL     1      19.075  -1.061  53.596  0.00  0.00    +0.000 A 
ATOM     21  C   UNL     1      19.936  -0.290  52.806  0.00  0.00    +0.000 A 
ATOM     22  C   UNL     1      19.455   0.227  51.600  0.00  0.00    +0.000 A 
ATOM     23  C   UNL     1      18.102   0.101  51.263  0.00  0.00    +0.000 A 
BRANCH  21  24
ATOM     24  N   UNL     1      21.299  -0.238  53.098  0.00  0.00    +0.000 N 
ATOM     25  H   UNL     1      21.925  -0.838  52.632  0.00  0.00    +0.000 HD
ATOM     26  H   UNL     1      21.634   0.398  53.771  0.00  0.00    +0.000 HD
ENDBRANCH  21  24
ENDBRANCH  10  18
BRANCH  13  27
ATOM     27  C   UNL     1      14.555  -0.362  48.307  0.00  0.00    +0.000 C 
ATOM     28  C   UNL     1      15.599  -1.444  48.000  0.00  0.00    +0.000 C 
ATOM     29  C   UNL     1      13.798  -0.050  46.995  0.00  0.00    +0.000 C 
ATOM     30  C   UNL     1      15.225   0.961  48.705  0.00  0.00    +0.000 C 
ENDBRANCH  13  27
TORSDOF 3
ENDMDL
MODEL 6
REMARK VINA RESULT:    -6.122      3.130      6.313
REMARK INTER + INTRA:          -7.139
REMARK INTER:                  -6.547
REMARK INTRA:                  -0.593
REMARK UNBOUND:                -0.122
REMARK  Name = 
REMARK  7 active torsions:
REMARK  status: ('A' for Active; 'I' for Inactive)
REMARK    1  A    between atoms: C_1  and  C_2
REMARK    2  A    between atoms: C_10  and  C_11
REMARK    3  A    between atoms: C_14  and  N_15
REMARK    4  A    between atoms: C_20  and  C_22
REMARK    5  A    between atoms: C_22  and  C_23
REMARK    6  A    between atoms: C_22  and  C_24
REMARK    7  A    between atoms: C_22  and  C_25
REMARK                            x       y       z     vdW  Elec       q    Type
REMARK                         _______ _______ _______ _____ _____    ______ ____
ROOT
ATOM      1  C   UNL     1      22.541   1.567  47.653  0.00  0.00    +0.000 C 
ATOM      2  C   UNL     1      22.635   3.035  48.090  0.00  0.00    +0.000 C 
ATOM      3  C   UNL     1      21.777   3.926  47.164  0.00  0.00    +0.000 C 
ATOM      4  C   UNL     1      21.513   5.277  47.783  0.00  0.00    +0.000 A 
ATOM      5  C   UNL     1      22.085   6.443  47.261  0.00  0.00    +0.000 A 
ATOM      6  C   UNL     1      21.876   7.626  47.943  0.00  0.00    +0.000 A 
ATOM      7  C   UNL     1      21.118   7.680  49.093  0.00  0.00    +0.000 A 
ATOM      8  C   UNL     1      20.514   6.564  49.623  0.00  0.00    +0.000 A 
ATOM      9  C   UNL     1      20.720   5.348  48.956  0.00  0.00    +0.000 A 
ATOM     10  C   UNL     1      20.189   4.088  49.566  0.00  0.00    +0.000 C 
ATOM     11  N   UNL     1      20.948   3.063  49.851  0.00  0.00    +0.000 NA
ATOM     12  N   UNL     1      22.273   3.180  49.520  0.00  0.00    +0.000 N 
ATOM     13  C   UNL     1      23.271   3.276  50.500  0.00  0.00    +0.000 C 
ATOM     14  O   UNL     1      24.465   3.324  50.179  0.00  0.00    +0.000 OA
ATOM     15  O   UNL     1      21.072   8.929  49.625  0.00  0.00    +0.000 OA
ATOM     16  C   UNL     1      21.974   9.630  48.743  0.00  0.00    +0.000 C 
ATOM     17  O   UNL     1      22.398   8.837  47.616  0.00  0.00    +0.000 OA
ENDROOT
BRANCH  10  18
ATOM     18  C   UNL     1      18.750   4.038  49.959  0.00  0.00    +0.000 A 
ATOM     19  C   UNL     1      17.743   4.222  49.011  0.00  0.00    +0.000 A 
ATOM     20  C   UNL     1      16.411   4.274  49.418  0.00  0.00    +0.000 A 
ATOM     21  C   UNL     1      16.067   4.186  50.772  0.00  0.00    +0.000 A 
ATOM     22  C   UNL     1      17.070   3.894  51.700  0.00  0.00    +0.000 A 
ATOM     23  C   UNL     1      18.410   3.837  51.302  0.00  0.00    +0.000 A 
BRANCH  21  24
ATOM     24  N   UNL     1      14.726   4.157  51.155  0.00  0.00    +0.000 N 
ATOM     25  H   UNL     1      14.457   3.669  51.968  0.00  0.00    +0.000 HD
ATOM     26  H   UNL     1      14.049   4.624  50.615  0.00  0.00    +0.000 HD
ENDBRANCH  21  24
ENDBRANCH  10  18
BRANCH  13  27
ATOM     27  C   UNL     1      22.872   3.305  52.008  0.00  0.00    +0.000 C 
ATOM     28  C   UNL     1      21.978   2.098  52.323  0.00  0.00    +0.000 C 
ATOM     29  C   UNL     1      24.152   3.184  52.869  0.00  0.00    +0.000 C 
ATOM     30  C   UNL     1      22.213   4.618  52.457  0.00  0.00    +0.000 C 
ENDBRANCH  13  27
TORSDOF 3
ENDMDL
MODEL 7
REMARK VINA RESULT:    -6.083      3.368      7.396
REMARK INTER + INTRA:          -7.094
REMARK INTER:                  -6.651
REMARK INTRA:                  -0.443
REMARK UNBOUND:                -0.122
REMARK  Name = 
REMARK  7 active torsions:
REMARK  status: ('A' for Active; 'I' for Inactive)
REMARK    1  A    between atoms: C_1  and  C_2
REMARK    2  A    between atoms: C_10  and  C_11
REMARK    3  A    between atoms: C_14  and  N_15
REMARK    4  A    between atoms: C_20  and  C_22
REMARK    5  A    between atoms: C_22  and  C_23
REMARK    6  A    between atoms: C_22  and  C_24
REMARK    7  A    between atoms: C_22  and  C_25
REMARK                            x       y       z     vdW  Elec       q    Type
REMARK                         _______ _______ _______ _____ _____    ______ ____
ROOT
ATOM      1  C   UNL     1      23.795   5.430  53.991  0.00  0.00    +0.000 C 
ATOM      2  C   UNL     1      23.254   4.622  52.804  0.00  0.00    +0.000 C 
ATOM      3  C   UNL     1      22.646   5.567  51.744  0.00  0.00    +0.000 C 
ATOM      4  C   UNL     1      22.481   4.875  50.413  0.00  0.00    +0.000 A 
ATOM      5  C   UNL     1      21.213   4.576  49.900  0.00  0.00    +0.000 A 
ATOM      6  C   UNL     1      21.148   3.853  48.724  0.00  0.00    +0.000 A 
ATOM      7  C   UNL     1      22.281   3.445  48.055  0.00  0.00    +0.000 A 
ATOM      8  C   UNL     1      23.545   3.743  48.509  0.00  0.00    +0.000 A 
ATOM      9  C   UNL     1      23.639   4.467  49.707  0.00  0.00    +0.000 A 
ATOM     10  C   UNL     1      24.992   4.704  50.305  0.00  0.00    +0.000 C 
ATOM     11  N   UNL     1      25.306   4.332  51.518  0.00  0.00    +0.000 NA
ATOM     12  N   UNL     1      24.308   3.740  52.247  0.00  0.00    +0.000 N 
ATOM     13  C   UNL     1      24.354   2.382  52.592  0.00  0.00    +0.000 C 
ATOM     14  O   UNL     1      23.471   1.882  53.300  0.00  0.00    +0.000 OA
ATOM     15  O   UNL     1      21.994   2.715  46.946  0.00  0.00    +0.000 OA
ATOM     16  C   UNL     1      20.558   2.617  47.054  0.00  0.00    +0.000 C 
ATOM     17  O   UNL     1      20.011   3.425  48.114  0.00  0.00    +0.000 OA
ENDROOT
BRANCH  10  18
ATOM     18  C   UNL     1      26.056   5.299  49.445  0.00  0.00    +0.000 A 
ATOM     19  C   UNL     1      27.203   4.573  49.122  0.00  0.00    +0.000 A 
ATOM     20  C   UNL     1      28.229   5.185  48.404  0.00  0.00    +0.000 A 
ATOM     21  C   UNL     1      28.147   6.534  48.036  0.00  0.00    +0.000 A 
ATOM     22  C   UNL     1      26.952   7.220  48.269  0.00  0.00    +0.000 A 
ATOM     23  C   UNL     1      25.915   6.614  48.987  0.00  0.00    +0.000 A 
BRANCH  21  24
ATOM     24  N   UNL     1      29.145   7.108  47.248  0.00  0.00    +0.000 N 
ATOM     25  H   UNL     1      29.875   7.616  47.671  0.00  0.00    +0.000 HD
ATOM     26  H   UNL     1      29.118   7.007  46.269  0.00  0.00    +0.000 HD
ENDBRANCH  21  24
ENDBRANCH  10  18
BRANCH  13  27
ATOM     27  C   UNL     1      25.540   1.499  52.094  0.00  0.00    +0.000 C 
ATOM     28  C   UNL     1      26.830   1.929  52.804  0.00  0.00    +0.000 C 
ATOM     29  C   UNL     1      25.262   0.024  52.471  0.00  0.00    +0.000 C 
ATOM     30  C   UNL     1      25.719   1.492  50.569  0.00  0.00    +0.000 C 
ENDBRANCH  13  27
TORSDOF 3
ENDMDL
MODEL 8
REMARK VINA RESULT:    -5.978      4.360      7.509
REMARK INTER + INTRA:          -6.973
REMARK INTER:                  -6.378
REMARK INTRA:                  -0.595
REMARK UNBOUND:                -0.122
REMARK  Name = 
REMARK  7 active torsions:
REMARK  status: ('A' for Active; 'I' for Inactive)
REMARK    1  A    between atoms: C_1  and  C_2
REMARK    2  A    between atoms: C_10  and  C_11
REMARK    3  A    between atoms: C_14  and  N_15
REMARK    4  A    between atoms: C_20  and  C_22
REMARK    5  A    between atoms: C_22  and  C_23
REMARK    6  A    between atoms: C_22  and  C_24
REMARK    7  A    between atoms: C_22  and  C_25
REMARK                            x       y       z     vdW  Elec       q    Type
REMARK                         _______ _______ _______ _____ _____    ______ ____
ROOT
ATOM      1  C   UNL     1      14.420   0.068  49.025  0.00  0.00    +0.000 C 
ATOM      2  C   UNL     1      15.377   0.258  50.209  0.00  0.00    +0.000 C 
ATOM      3  C   UNL     1      16.765  -0.335  49.879  0.00  0.00    +0.000 C 
ATOM      4  C   UNL     1      17.826   0.180  50.820  0.00  0.00    +0.000 A 
ATOM      5  C   UNL     1      18.436  -0.660  51.760  0.00  0.00    +0.000 A 
ATOM      6  C   UNL     1      19.325  -0.092  52.652  0.00  0.00    +0.000 A 
ATOM      7  C   UNL     1      19.628   1.252  52.623  0.00  0.00    +0.000 A 
ATOM      8  C   UNL     1      19.075   2.106  51.697  0.00  0.00    +0.000 A 
ATOM      9  C   UNL     1      18.160   1.556  50.787  0.00  0.00    +0.000 A 
ATOM     10  C   UNL     1      17.438   2.470  49.845  0.00  0.00    +0.000 C 
ATOM     11  N   UNL     1      16.134   2.536  49.782  0.00  0.00    +0.000 NA
ATOM     12  N   UNL     1      15.443   1.685  50.605  0.00  0.00    +0.000 N 
ATOM     13  C   UNL     1      14.696   2.158  51.693  0.00  0.00    +0.000 C 
ATOM     14  O   UNL     1      14.034   1.376  52.388  0.00  0.00    +0.000 OA
ATOM     15  O   UNL     1      20.491   1.610  53.609  0.00  0.00    +0.000 OA
ATOM     16  C   UNL     1      20.611   0.364  54.327  0.00  0.00    +0.000 C 
ATOM     17  O   UNL     1      19.962  -0.739  53.663  0.00  0.00    +0.000 OA
ENDROOT
BRANCH  10  18
ATOM     18  C   UNL     1      18.239   3.416  49.015  0.00  0.00    +0.000 A 
ATOM     19  C   UNL     1      19.141   2.942  48.062  0.00  0.00    +0.000 A 
ATOM     20  C   UNL     1      19.953   3.842  47.371  0.00  0.00    +0.000 A 
ATOM     21  C   UNL     1      19.908   5.213  47.649  0.00  0.00    +0.000 A 
ATOM     22  C   UNL     1      18.929   5.687  48.525  0.00  0.00    +0.000 A 
ATOM     23  C   UNL     1      18.107   4.793  49.221  0.00  0.00    +0.000 A 
BRANCH  21  24
ATOM     24  N   UNL     1      20.667   6.108  46.893  0.00  0.00    +0.000 N 
ATOM     25  H   UNL     1      21.646   6.132  46.997  0.00  0.00    +0.000 HD
ATOM     26  H   UNL     1      20.224   6.714  46.257  0.00  0.00    +0.000 HD
ENDBRANCH  21  24
ENDBRANCH  10  18
BRANCH  13  27
ATOM     27  C   UNL     1      14.684   3.683  52.018  0.00  0.00    +0.000 C 
ATOM     28  C   UNL     1      14.183   4.462  50.794  0.00  0.00    +0.000 C 
ATOM     29  C   UNL     1      13.697   3.942  53.181  0.00  0.00    +0.000 C 
ATOM     30  C   UNL     1      16.032   4.229  52.511  0.00  0.00    +0.000 C 
ENDBRANCH  13  27
TORSDOF 3
ENDMDL
MODEL 9
REMARK VINA RESULT:    -5.840      4.042      7.980
REMARK INTER + INTRA:          -6.815
REMARK INTER:                  -7.046
REMARK INTRA:                   0.231
REMARK UNBOUND:                -0.122
REMARK  Name = 
REMARK  7 active torsions:
REMARK  status: ('A' for Active; 'I' for Inactive)
REMARK    1  A    between atoms: C_1  and  C_2
REMARK    2  A    between atoms: C_10  and  C_11
REMARK    3  A    between atoms: C_14  and  N_15
REMARK    4  A    between atoms: C_20  and  C_22
REMARK    5  A    between atoms: C_22  and  C_23
REMARK    6  A    between atoms: C_22  and  C_24
REMARK    7  A    between atoms: C_22  and  C_25
REMARK                            x       y       z     vdW  Elec       q    Type
REMARK                         _______ _______ _______ _____ _____    ______ ____
ROOT
ATOM      1  C   UNL     1      23.417   4.263  52.952  0.00  0.00    +0.000 C 
ATOM      2  C   UNL     1      22.810   5.054  51.786  0.00  0.00    +0.000 C 
ATOM      3  C   UNL     1      23.263   6.530  51.846  0.00  0.00    +0.000 C 
ATOM      4  C   UNL     1      23.037   7.233  50.530  0.00  0.00    +0.000 A 
ATOM      5  C   UNL     1      22.068   8.236  50.396  0.00  0.00    +0.000 A 
ATOM      6  C   UNL     1      21.852   8.760  49.137  0.00  0.00    +0.000 A 
ATOM      7  C   UNL     1      22.568   8.337  48.038  0.00  0.00    +0.000 A 
ATOM      8  C   UNL     1      23.548   7.377  48.131  0.00  0.00    +0.000 A 
ATOM      9  C   UNL     1      23.779   6.819  49.397  0.00  0.00    +0.000 A 
ATOM     10  C   UNL     1      24.746   5.682  49.522  0.00  0.00    +0.000 C 
ATOM     11  N   UNL     1      24.417   4.524  50.031  0.00  0.00    +0.000 NA
ATOM     12  N   UNL     1      23.132   4.408  50.492  0.00  0.00    +0.000 N 
ATOM     13  C   UNL     1      22.192   3.586  49.854  0.00  0.00    +0.000 C 
ATOM     14  O   UNL     1      21.054   3.453  50.321  0.00  0.00    +0.000 OA
ATOM     15  O   UNL     1      22.172   8.952  46.893  0.00  0.00    +0.000 OA
ATOM     16  C   UNL     1      21.056   9.727  47.377  0.00  0.00    +0.000 C 
ATOM     17  O   UNL     1      20.919   9.693  48.811  0.00  0.00    +0.000 OA
ENDROOT
BRANCH  10  18
ATOM     18  C   UNL     1      26.115   5.845  48.951  0.00  0.00    +0.000 A 
ATOM     19  C   UNL     1      26.975   4.753  48.834  0.00  0.00    +0.000 A 
ATOM     20  C   UNL     1      28.284   4.947  48.393  0.00  0.00    +0.000 A 
ATOM     21  C   UNL     1      28.764   6.230  48.104  0.00  0.00    +0.000 A 
ATOM     22  C   UNL     1      27.866   7.300  48.120  0.00  0.00    +0.000 A 
ATOM     23  C   UNL     1      26.550   7.116  48.558  0.00  0.00    +0.000 A 
BRANCH  21  24
ATOM     24  N   UNL     1      30.049   6.399  47.586  0.00  0.00    +0.000 N 
ATOM     25  H   UNL     1      30.421   7.304  47.480  0.00  0.00    +0.000 HD
ATOM     26  H   UNL     1      30.581   5.613  47.327  0.00  0.00    +0.000 HD
ENDBRANCH  21  24
ENDBRANCH  10  18
BRANCH  13  27
ATOM     27  C   UNL     1      22.591   2.819  48.556  0.00  0.00    +0.000 C 
ATOM     28  C   UNL     1      24.043   2.336  48.675  0.00  0.00    +0.000 C 
ATOM     29  C   UNL     1      21.688   1.572  48.410  0.00  0.00    +0.000 C 
ATOM     30  C   UNL     1      22.376   3.620  47.263  0.00  0.00    +0.000 C 
ENDBRANCH  13  27
TORSDOF 3
ENDMDL
