MODEL 1
REMARK VINA RESULT:    -9.392      0.000      0.000
REMARK INTER + INTRA:         -13.972
REMARK INTER:                 -12.686
REMARK INTRA:                  -1.286
REMARK UNBOUND:                -1.286
REMARK  Name = 
REMARK  9 active torsions:
REMARK  status: ('A' for Active; 'I' for Inactive)
REMARK    1  A    between atoms: C_1  and  N_2
REMARK    2  A    between atoms: N_2  and  C_3
REMARK    3  A    between atoms: N_2  and  C_4
REMARK    4  A    between atoms: C_4  and  C_5
REMARK    5  A    between atoms: C_5  and  C_6
REMARK    6  A    between atoms: C_6  and  N_7
REMARK    7  A    between atoms: C_9  and  C_10
REMARK    8  A    between atoms: C_11  and  C_12
REMARK    9  A    between atoms: N_14  and  C_15
REMARK                            x       y       z     vdW  Elec       q    Type
REMARK                         _______ _______ _______ _____ _____    ______ ____
ROOT
ATOM      1  C   UNL     1      22.797   0.969  52.908  0.00  0.00    +0.000 C 
ATOM      2  C   UNL     1      23.580   0.095  53.563  0.00  0.00    +0.000 C 
ATOM      3  C   UNL     1      22.740  -0.556  54.596  0.00  0.00    +0.000 C 
ATOM      4  O   UNL     1      23.077  -1.423  55.373  0.00  0.00    +0.000 OA
ATOM      5  N   UNL     1      21.506  -0.013  54.508  0.00  0.00    +0.000 N 
ATOM      6  C   UNL     1      21.447   0.898  53.521  0.00  0.00    +0.000 C 
ATOM      7  O   UNL     1      20.461   1.540  53.201  0.00  0.00    +0.000 OA
ATOM      8  H   UNL     1      20.749  -0.252  55.091  0.00  0.00    +0.000 HD
ENDROOT
BRANCH   2   9
ATOM      9  C   UNL     1      24.940  -0.233  53.349  0.00  0.00    +0.000 A 
ATOM     10  C   UNL     1      25.370  -1.478  52.947  0.00  0.00    +0.000 A 
ATOM     11  N   UNL     1      26.739  -1.451  52.905  0.00  0.00    +0.000 N 
ATOM     12  C   UNL     1      27.571  -2.589  52.587  0.00  0.00    +0.000 C 
ATOM     13  C   UNL     1      27.207  -0.197  53.248  0.00  0.00    +0.000 A 
ATOM     14  C   UNL     1      28.518   0.295  53.353  0.00  0.00    +0.000 A 
ATOM     15  C   UNL     1      28.692   1.628  53.737  0.00  0.00    +0.000 A 
ATOM     16  C   UNL     1      27.595   2.443  53.999  0.00  0.00    +0.000 A 
ATOM     17  C   UNL     1      26.292   1.943  53.894  0.00  0.00    +0.000 A 
ATOM     18  C   UNL     1      26.086   0.596  53.521  0.00  0.00    +0.000 A 
ENDBRANCH   2   9
BRANCH   1  21
ATOM     19  N   UNL     1      23.953   3.583  50.754  0.00  0.00    +0.000 N 
ATOM     20  C   UNL     1      23.955   2.920  51.953  0.00  0.00    +0.000 A 
ATOM     21  C   UNL     1      23.115   1.836  51.839  0.00  0.00    +0.000 A 
ATOM     22  C   UNL     1      22.649   1.780  50.494  0.00  0.00    +0.000 A 
ATOM     23  C   UNL     1      21.801   0.906  49.777  0.00  0.00    +0.000 A 
ATOM     24  C   UNL     1      21.548   1.144  48.421  0.00  0.00    +0.000 A 
ATOM     25  C   UNL     1      22.132   2.225  47.771  0.00  0.00    +0.000 A 
ATOM     26  C   UNL     1      22.973   3.106  48.457  0.00  0.00    +0.000 A 
ATOM     27  C   UNL     1      23.211   2.875  49.824  0.00  0.00    +0.000 A 
BRANCH  19  28
ATOM     28  C   UNL     1      24.692   4.810  50.499  0.00  0.00    +0.000 C 
BRANCH  28  29
ATOM     29  C   UNL     1      25.988   4.652  49.694  0.00  0.00    +0.000 C 
BRANCH  29  30
ATOM     30  C   UNL     1      26.438   5.830  48.813  0.00  0.00    +0.000 C 
BRANCH  30  32
ATOM     31  C   UNL     1      28.835   5.571  48.271  0.00  0.00    +0.000 C 
ATOM     32  N   UNL     1      27.813   6.328  48.997  0.00  0.00    +0.000 N 
ATOM     33  C   UNL     1      27.877   7.732  48.558  0.00  0.00    +0.000 C 
ATOM     34  H   UNL     1      28.021   6.221  49.990  0.00  0.00    +0.000 HD
ENDBRANCH  30  32
ENDBRANCH  29  30
ENDBRANCH  28  29
ENDBRANCH  19  28
ENDBRANCH   1  21
TORSDOF 6
ENDMDL
MODEL 2
REMARK VINA RESULT:    -9.111      1.477      2.246
REMARK INTER + INTRA:         -13.592
REMARK INTER:                 -12.286
REMARK INTRA:                  -1.306
REMARK UNBOUND:                -1.286
REMARK  Name = 
REMARK  9 active torsions:
REMARK  status: ('A' for Active; 'I' for Inactive)
REMARK    1  A    between atoms: C_1  and  N_2
REMARK    2  A    between atoms: N_2  and  C_3
REMARK    3  A    between atoms: N_2  and  C_4
REMARK    4  A    between atoms: C_4  and  C_5
REMARK    5  A    between atoms: C_5  and  C_6
REMARK    6  A    between atoms: C_6  and  N_7
REMARK    7  A    between atoms: C_9  and  C_10
REMARK    8  A    between atoms: C_11  and  C_12
REMARK    9  A    between atoms: N_14  and  C_15
REMARK                            x       y       z     vdW  Elec       q    Type
REMARK                         _______ _______ _______ _____ _____    ______ ____
ROOT
ATOM      1  C   UNL     1      23.093   0.851  52.870  0.00  0.00    +0.000 C 
ATOM      2  C   UNL     1      23.889   0.020  53.562  0.00  0.00    +0.000 C 
ATOM      3  C   UNL     1      23.063  -0.592  54.629  0.00  0.00    +0.000 C 
ATOM      4  O   UNL     1      23.415  -1.417  55.445  0.00  0.00    +0.000 OA
ATOM      5  N   UNL     1      21.821  -0.070  54.521  0.00  0.00    +0.000 N 
ATOM      6  C   UNL     1      21.746   0.792  53.492  0.00  0.00    +0.000 C 
ATOM      7  O   UNL     1      20.751   1.405  53.146  0.00  0.00    +0.000 OA
ATOM      8  H   UNL     1      21.070  -0.291  55.118  0.00  0.00    +0.000 HD
ENDROOT
BRANCH   2   9
ATOM      9  C   UNL     1      25.253  -0.300  53.358  0.00  0.00    +0.000 A 
ATOM     10  C   UNL     1      25.694  -1.544  52.963  0.00  0.00    +0.000 A 
ATOM     11  N   UNL     1      27.063  -1.508  52.930  0.00  0.00    +0.000 N 
ATOM     12  C   UNL     1      27.905  -2.641  52.621  0.00  0.00    +0.000 C 
ATOM     13  C   UNL     1      27.521  -0.250  53.270  0.00  0.00    +0.000 A 
ATOM     14  C   UNL     1      28.827   0.252  53.381  0.00  0.00    +0.000 A 
ATOM     15  C   UNL     1      28.991   1.587  53.761  0.00  0.00    +0.000 A 
ATOM     16  C   UNL     1      27.887   2.396  54.013  0.00  0.00    +0.000 A 
ATOM     17  C   UNL     1      26.587   1.887  53.902  0.00  0.00    +0.000 A 
ATOM     18  C   UNL     1      26.392   0.538  53.534  0.00  0.00    +0.000 A 
ENDBRANCH   2   9
BRANCH   1  21
ATOM     19  N   UNL     1      24.316   3.299  50.562  0.00  0.00    +0.000 N 
ATOM     20  C   UNL     1      24.369   2.642  51.764  0.00  0.00    +0.000 A 
ATOM     21  C   UNL     1      23.395   1.671  51.760  0.00  0.00    +0.000 A 
ATOM     22  C   UNL     1      22.779   1.670  50.475  0.00  0.00    +0.000 A 
ATOM     23  C   UNL     1      21.757   0.907  49.868  0.00  0.00    +0.000 A 
ATOM     24  C   UNL     1      21.386   1.172  48.544  0.00  0.00    +0.000 A 
ATOM     25  C   UNL     1      22.023   2.172  47.818  0.00  0.00    +0.000 A 
ATOM     26  C   UNL     1      23.037   2.943  48.394  0.00  0.00    +0.000 A 
ATOM     27  C   UNL     1      23.395   2.687  49.730  0.00  0.00    +0.000 A 
BRANCH  19  28
ATOM     28  C   UNL     1      25.167   4.424  50.209  0.00  0.00    +0.000 C 
BRANCH  28  29
ATOM     29  C   UNL     1      24.473   5.790  50.144  0.00  0.00    +0.000 C 
BRANCH  29  30
ATOM     30  C   UNL     1      23.877   6.360  51.443  0.00  0.00    +0.000 C 
BRANCH  30  32
ATOM     31  C   UNL     1      22.059   7.557  50.273  0.00  0.00    +0.000 C 
ATOM     32  N   UNL     1      22.454   6.743  51.425  0.00  0.00    +0.000 N 
ATOM     33  C   UNL     1      21.631   5.523  51.434  0.00  0.00    +0.000 C 
ATOM     34  H   UNL     1      22.307   7.318  52.254  0.00  0.00    +0.000 HD
ENDBRANCH  30  32
ENDBRANCH  29  30
ENDBRANCH  28  29
ENDBRANCH  19  28
ENDBRANCH   1  21
TORSDOF 6
ENDMDL
MODEL 3
REMARK VINA RESULT:    -8.882      1.914      3.480
REMARK INTER + INTRA:         -13.283
REMARK INTER:                 -13.126
REMARK INTRA:                  -0.158
REMARK UNBOUND:                -1.286
REMARK  Name = 
REMARK  9 active torsions:
REMARK  status: ('A' for Active; 'I' for Inactive)
REMARK    1  A    between atoms: C_1  and  N_2
REMARK    2  A    between atoms: N_2  and  C_3
REMARK    3  A    between atoms: N_2  and  C_4
REMARK    4  A    between atoms: C_4  and  C_5
REMARK    5  A    between atoms: C_5  and  C_6
REMARK    6  A    between atoms: C_6  and  N_7
REMARK    7  A    between atoms: C_9  and  C_10
REMARK    8  A    between atoms: C_11  and  C_12
REMARK    9  A    between atoms: N_14  and  C_15
REMARK                            x       y       z     vdW  Elec       q    Type
REMARK                         _______ _______ _______ _____ _____    ______ ____
ROOT
ATOM      1  C   UNL     1      24.204   2.118  51.364  0.00  0.00    +0.000 C 
ATOM      2  C   UNL     1      24.675   1.199  52.223  0.00  0.00    +0.000 C 
ATOM      3  C   UNL     1      23.547   0.301  52.566  0.00  0.00    +0.000 C 
ATOM      4  O   UNL     1      23.579  -0.669  53.292  0.00  0.00    +0.000 OA
ATOM      5  N   UNL     1      22.461   0.754  51.903  0.00  0.00    +0.000 N 
ATOM      6  C   UNL     1      22.763   1.829  51.153  0.00  0.00    +0.000 C 
ATOM      7  O   UNL     1      21.988   2.442  50.439  0.00  0.00    +0.000 OA
ATOM      8  H   UNL     1      21.564   0.351  51.961  0.00  0.00    +0.000 HD
ENDROOT
BRANCH   2   9
ATOM      9  C   UNL     1      25.987   1.023  52.725  0.00  0.00    +0.000 A 
ATOM     10  C   UNL     1      26.743   2.042  53.261  0.00  0.00    +0.000 A 
ATOM     11  N   UNL     1      27.970   1.525  53.581  0.00  0.00    +0.000 N 
ATOM     12  C   UNL     1      29.070   2.296  54.112  0.00  0.00    +0.000 C 
ATOM     13  C   UNL     1      28.016   0.176  53.287  0.00  0.00    +0.000 A 
ATOM     14  C   UNL     1      29.053  -0.759  53.432  0.00  0.00    +0.000 A 
ATOM     15  C   UNL     1      28.813  -2.078  53.034  0.00  0.00    +0.000 A 
ATOM     16  C   UNL     1      27.576  -2.451  52.518  0.00  0.00    +0.000 A 
ATOM     17  C   UNL     1      26.547  -1.512  52.375  0.00  0.00    +0.000 A 
ATOM     18  C   UNL     1      26.767  -0.169  52.756  0.00  0.00    +0.000 A 
ENDBRANCH   2   9
BRANCH   1  21
ATOM     19  N   UNL     1      26.417   4.298  49.585  0.00  0.00    +0.000 N 
ATOM     20  C   UNL     1      25.977   3.047  49.931  0.00  0.00    +0.000 A 
ATOM     21  C   UNL     1      24.874   3.194  50.740  0.00  0.00    +0.000 A 
ATOM     22  C   UNL     1      24.571   4.584  50.822  0.00  0.00    +0.000 A 
ATOM     23  C   UNL     1      23.567   5.340  51.468  0.00  0.00    +0.000 A 
ATOM     24  C   UNL     1      23.555   6.734  51.334  0.00  0.00    +0.000 A 
ATOM     25  C   UNL     1      24.516   7.378  50.563  0.00  0.00    +0.000 A 
ATOM     26  C   UNL     1      25.520   6.654  49.915  0.00  0.00    +0.000 A 
ATOM     27  C   UNL     1      25.541   5.256  50.066  0.00  0.00    +0.000 A 
BRANCH  19  28
ATOM     28  C   UNL     1      27.593   4.553  48.768  0.00  0.00    +0.000 C 
BRANCH  28  29
ATOM     29  C   UNL     1      27.836   6.019  48.388  0.00  0.00    +0.000 C 
BRANCH  29  30
ATOM     30  C   UNL     1      29.268   6.441  48.019  0.00  0.00    +0.000 C 
BRANCH  30  32
ATOM     31  C   UNL     1      31.437   5.859  49.051  0.00  0.00    +0.000 C 
ATOM     32  N   UNL     1      30.216   6.665  49.125  0.00  0.00    +0.000 N 
ATOM     33  C   UNL     1      30.599   8.087  49.146  0.00  0.00    +0.000 C 
ATOM     34  H   UNL     1      29.729   6.381  49.975  0.00  0.00    +0.000 HD
ENDBRANCH  30  32
ENDBRANCH  29  30
ENDBRANCH  28  29
ENDBRANCH  19  28
ENDBRANCH   1  21
TORSDOF 6
ENDMDL
MODEL 4
REMARK VINA RESULT:    -8.853      2.529      6.812
REMARK INTER + INTRA:         -13.244
REMARK INTER:                 -11.658
REMARK INTRA:                  -1.587
REMARK UNBOUND:                -1.286
REMARK  Name = 
REMARK  9 active torsions:
REMARK  status: ('A' for Active; 'I' for Inactive)
REMARK    1  A    between atoms: C_1  and  N_2
REMARK    2  A    between atoms: N_2  and  C_3
REMARK    3  A    between atoms: N_2  and  C_4
REMARK    4  A    between atoms: C_4  and  C_5
REMARK    5  A    between atoms: C_5  and  C_6
REMARK    6  A    between atoms: C_6  and  N_7
REMARK    7  A    between atoms: C_9  and  C_10
REMARK    8  A    between atoms: C_11  and  C_12
REMARK    9  A    between atoms: N_14  and  C_15
REMARK                            x       y       z     vdW  Elec       q    Type
REMARK                         _______ _______ _______ _____ _____    ______ ____
ROOT
ATOM      1  C   UNL     1      23.327   1.474  52.308  0.00  0.00    +0.000 C 
ATOM      2  C   UNL     1      24.313   2.384  52.374  0.00  0.00    +0.000 C 
ATOM      3  C   UNL     1      25.379   1.814  53.231  0.00  0.00    +0.000 C 
ATOM      4  O   UNL     1      26.444   2.321  53.508  0.00  0.00    +0.000 OA
ATOM      5  N   UNL     1      24.951   0.600  53.645  0.00  0.00    +0.000 N 
ATOM      6  C   UNL     1      23.742   0.313  53.134  0.00  0.00    +0.000 C 
ATOM      7  O   UNL     1      23.113  -0.715  53.323  0.00  0.00    +0.000 OA
ATOM      8  H   UNL     1      25.459   0.005  54.243  0.00  0.00    +0.000 HD
ENDROOT
BRANCH   2   9
ATOM      9  C   UNL     1      24.417   3.648  51.745  0.00  0.00    +0.000 A 
ATOM     10  C   UNL     1      23.583   4.708  52.020  0.00  0.00    +0.000 A 
ATOM     11  N   UNL     1      23.931   5.739  51.187  0.00  0.00    +0.000 N 
ATOM     12  C   UNL     1      23.247   7.010  51.126  0.00  0.00    +0.000 C 
ATOM     13  C   UNL     1      25.001   5.375  50.392  0.00  0.00    +0.000 A 
ATOM     14  C   UNL     1      25.686   6.087  49.395  0.00  0.00    +0.000 A 
ATOM     15  C   UNL     1      26.741   5.449  48.737  0.00  0.00    +0.000 A 
ATOM     16  C   UNL     1      27.106   4.148  49.069  0.00  0.00    +0.000 A 
ATOM     17  C   UNL     1      26.415   3.444  50.063  0.00  0.00    +0.000 A 
ATOM     18  C   UNL     1      25.336   4.058  50.735  0.00  0.00    +0.000 A 
ENDBRANCH   2   9
BRANCH   1  21
ATOM     19  N   UNL     1      19.914   1.343  51.235  0.00  0.00    +0.000 N 
ATOM     20  C   UNL     1      20.873   1.300  52.214  0.00  0.00    +0.000 A 
ATOM     21  C   UNL     1      22.094   1.532  51.622  0.00  0.00    +0.000 A 
ATOM     22  C   UNL     1      21.868   1.817  50.244  0.00  0.00    +0.000 A 
ATOM     23  C   UNL     1      22.702   2.149  49.153  0.00  0.00    +0.000 A 
ATOM     24  C   UNL     1      22.137   2.378  47.893  0.00  0.00    +0.000 A 
ATOM     25  C   UNL     1      20.762   2.293  47.708  0.00  0.00    +0.000 A 
ATOM     26  C   UNL     1      19.914   1.965  48.770  0.00  0.00    +0.000 A 
ATOM     27  C   UNL     1      20.486   1.718  50.031  0.00  0.00    +0.000 A 
BRANCH  19  28
ATOM     28  C   UNL     1      18.499   1.101  51.468  0.00  0.00    +0.000 C 
BRANCH  28  29
ATOM     29  C   UNL     1      18.090  -0.370  51.612  0.00  0.00    +0.000 C 
BRANCH  29  30
ATOM     30  C   UNL     1      17.230  -0.765  52.825  0.00  0.00    +0.000 C 
BRANCH  30  32
ATOM     31  C   UNL     1      17.469  -3.089  53.629  0.00  0.00    +0.000 C 
ATOM     32  N   UNL     1      17.829  -1.681  53.812  0.00  0.00    +0.000 N 
ATOM     33  C   UNL     1      19.295  -1.565  53.743  0.00  0.00    +0.000 C 
ATOM     34  H   UNL     1      17.458  -1.400  54.719  0.00  0.00    +0.000 HD
ENDBRANCH  30  32
ENDBRANCH  29  30
ENDBRANCH  28  29
ENDBRANCH  19  28
ENDBRANCH   1  21
TORSDOF 6
ENDMDL
MODEL 5
REMARK VINA RESULT:    -8.708      2.392      5.689
REMARK INTER + INTRA:         -13.047
REMARK INTER:                 -11.491
REMARK INTRA:                  -1.557
REMARK UNBOUND:                -1.286
REMARK  Name = 
REMARK  9 active torsions:
REMARK  status: ('A' for Active; 'I' for Inactive)
REMARK    1  A    between atoms: C_1  and  N_2
REMARK    2  A    between atoms: N_2  and  C_3
REMARK    3  A    between atoms: N_2  and  C_4
REMARK    4  A    between atoms: C_4  and  C_5
REMARK    5  A    between atoms: C_5  and  C_6
REMARK    6  A    between atoms: C_6  and  N_7
REMARK    7  A    between atoms: C_9  and  C_10
REMARK    8  A    between atoms: C_11  and  C_12
REMARK    9  A    between atoms: N_14  and  C_15
REMARK                            x       y       z     vdW  Elec       q    Type
REMARK                         _______ _______ _______ _____ _____    ______ ____
ROOT
ATOM      1  C   UNL     1      24.931   2.012  52.915  0.00  0.00    +0.000 C 
ATOM      2  C   UNL     1      24.122   0.962  53.132  0.00  0.00    +0.000 C 
ATOM      3  C   UNL     1      24.883  -0.017  53.944  0.00  0.00    +0.000 C 
ATOM      4  O   UNL     1      24.487  -1.081  54.368  0.00  0.00    +0.000 OA
ATOM      5  N   UNL     1      26.113   0.504  54.146  0.00  0.00    +0.000 N 
ATOM      6  C   UNL     1      26.226   1.716  53.576  0.00  0.00    +0.000 C 
ATOM      7  O   UNL     1      27.216   2.428  53.604  0.00  0.00    +0.000 OA
ATOM      8  H   UNL     1      26.833   0.054  54.645  0.00  0.00    +0.000 HD
ENDROOT
BRANCH   2   9
ATOM      9  C   UNL     1      22.778   0.761  52.734  0.00  0.00    +0.000 A 
ATOM     10  C   UNL     1      21.807   0.242  53.561  0.00  0.00    +0.000 A 
ATOM     11  N   UNL     1      20.655   0.130  52.829  0.00  0.00    +0.000 N 
ATOM     12  C   UNL     1      19.420  -0.434  53.326  0.00  0.00    +0.000 C 
ATOM     13  C   UNL     1      20.853   0.595  51.543  0.00  0.00    +0.000 A 
ATOM     14  C   UNL     1      19.976   0.667  50.449  0.00  0.00    +0.000 A 
ATOM     15  C   UNL     1      20.466   1.183  49.246  0.00  0.00    +0.000 A 
ATOM     16  C   UNL     1      21.783   1.620  49.141  0.00  0.00    +0.000 A 
ATOM     17  C   UNL     1      22.651   1.542  50.237  0.00  0.00    +0.000 A 
ATOM     18  C   UNL     1      22.188   1.012  51.462  0.00  0.00    +0.000 A 
ENDBRANCH   2   9
BRANCH   1  21
ATOM     19  N   UNL     1      23.682   5.081  51.559  0.00  0.00    +0.000 N 
ATOM     20  C   UNL     1      23.691   4.102  52.519  0.00  0.00    +0.000 A 
ATOM     21  C   UNL     1      24.685   3.205  52.199  0.00  0.00    +0.000 A 
ATOM     22  C   UNL     1      25.369   3.697  51.051  0.00  0.00    +0.000 A 
ATOM     23  C   UNL     1      26.467   3.244  50.284  0.00  0.00    +0.000 A 
ATOM     24  C   UNL     1      26.902   3.995  49.186  0.00  0.00    +0.000 A 
ATOM     25  C   UNL     1      26.272   5.188  48.850  0.00  0.00    +0.000 A 
ATOM     26  C   UNL     1      25.183   5.658  49.591  0.00  0.00    +0.000 A 
ATOM     27  C   UNL     1      24.737   4.892  50.682  0.00  0.00    +0.000 A 
BRANCH  19  28
ATOM     28  C   UNL     1      22.738   6.187  51.532  0.00  0.00    +0.000 C 
BRANCH  28  29
ATOM     29  C   UNL     1      21.496   5.982  50.656  0.00  0.00    +0.000 C 
BRANCH  29  30
ATOM     30  C   UNL     1      20.628   4.738  50.914  0.00  0.00    +0.000 C 
BRANCH  30  32
ATOM     31  C   UNL     1      18.247   4.093  50.778  0.00  0.00    +0.000 C 
ATOM     32  N   UNL     1      19.440   4.551  50.062  0.00  0.00    +0.000 N 
ATOM     33  C   UNL     1      19.122   5.827  49.400  0.00  0.00    +0.000 C 
ATOM     34  H   UNL     1      19.682   3.818  49.397  0.00  0.00    +0.000 HD
ENDBRANCH  30  32
ENDBRANCH  29  30
ENDBRANCH  28  29
ENDBRANCH  19  28
ENDBRANCH   1  21
TORSDOF 6
ENDMDL
MODEL 6
REMARK VINA RESULT:    -8.533      2.592      6.008
REMARK INTER + INTRA:         -12.812
REMARK INTER:                 -11.508
REMARK INTRA:                  -1.304
REMARK UNBOUND:                -1.286
REMARK  Name = 
REMARK  9 active torsions:
REMARK  status: ('A' for Active; 'I' for Inactive)
REMARK    1  A    between atoms: C_1  and  N_2
REMARK    2  A    between atoms: N_2  and  C_3
REMARK    3  A    between atoms: N_2  and  C_4
REMARK    4  A    between atoms: C_4  and  C_5
REMARK    5  A    between atoms: C_5  and  C_6
REMARK    6  A    between atoms: C_6  and  N_7
REMARK    7  A    between atoms: C_9  and  C_10
REMARK    8  A    between atoms: C_11  and  C_12
REMARK    9  A    between atoms: N_14  and  C_15
REMARK                            x       y       z     vdW  Elec       q    Type
REMARK                         _______ _______ _______ _____ _____    ______ ____
ROOT
ATOM      1  C   UNL     1      21.757   0.057  53.506  0.00  0.00    +0.000 C 
ATOM      2  C   UNL     1      20.528   0.036  52.965  0.00  0.00    +0.000 C 
ATOM      3  C   UNL     1      19.776  -1.056  53.627  0.00  0.00    +0.000 C 
ATOM      4  O   UNL     1      18.623  -1.373  53.433  0.00  0.00    +0.000 OA
ATOM      5  N   UNL     1      20.614  -1.636  54.514  0.00  0.00    +0.000 N 
ATOM      6  C   UNL     1      21.814  -1.030  54.516  0.00  0.00    +0.000 C 
ATOM      7  O   UNL     1      22.764  -1.328  55.220  0.00  0.00    +0.000 OA
ATOM      8  H   UNL     1      20.378  -2.404  55.084  0.00  0.00    +0.000 HD
ENDROOT
BRANCH   2   9
ATOM      9  C   UNL     1      19.962   0.879  51.979  0.00  0.00    +0.000 A 
ATOM     10  C   UNL     1      18.773   1.554  52.143  0.00  0.00    +0.000 A 
ATOM     11  N   UNL     1      18.505   2.214  50.973  0.00  0.00    +0.000 N 
ATOM     12  C   UNL     1      17.310   2.988  50.724  0.00  0.00    +0.000 C 
ATOM     13  C   UNL     1      19.517   2.002  50.057  0.00  0.00    +0.000 A 
ATOM     14  C   UNL     1      19.672   2.460  48.739  0.00  0.00    +0.000 A 
ATOM     15  C   UNL     1      20.814   2.068  48.035  0.00  0.00    +0.000 A 
ATOM     16  C   UNL     1      21.774   1.255  48.630  0.00  0.00    +0.000 A 
ATOM     17  C   UNL     1      21.610   0.801  49.945  0.00  0.00    +0.000 A 
ATOM     18  C   UNL     1      20.459   1.169  50.675  0.00  0.00    +0.000 A 
ENDBRANCH   2   9
BRANCH   1  21
ATOM     19  N   UNL     1      23.982   2.760  52.761  0.00  0.00    +0.000 N 
ATOM     20  C   UNL     1      22.760   2.277  53.148  0.00  0.00    +0.000 A 
ATOM     21  C   UNL     1      22.850   0.906  53.223  0.00  0.00    +0.000 A 
ATOM     22  C   UNL     1      24.202   0.539  52.960  0.00  0.00    +0.000 A 
ATOM     23  C   UNL     1      24.903  -0.687  52.916  0.00  0.00    +0.000 A 
ATOM     24  C   UNL     1      26.272  -0.693  52.622  0.00  0.00    +0.000 A 
ATOM     25  C   UNL     1      26.949   0.498  52.384  0.00  0.00    +0.000 A 
ATOM     26  C   UNL     1      26.279   1.725  52.420  0.00  0.00    +0.000 A 
ATOM     27  C   UNL     1      24.900   1.726  52.697  0.00  0.00    +0.000 A 
BRANCH  19  28
ATOM     28  C   UNL     1      24.267   4.168  52.530  0.00  0.00    +0.000 C 
BRANCH  28  29
ATOM     29  C   UNL     1      23.919   4.698  51.134  0.00  0.00    +0.000 C 
BRANCH  29  30
ATOM     30  C   UNL     1      23.413   6.146  51.017  0.00  0.00    +0.000 C 
BRANCH  30  32
ATOM     31  C   UNL     1      21.407   7.551  50.684  0.00  0.00    +0.000 C 
ATOM     32  N   UNL     1      22.006   6.403  51.370  0.00  0.00    +0.000 N 
ATOM     33  C   UNL     1      21.207   5.207  51.054  0.00  0.00    +0.000 C 
ATOM     34  H   UNL     1      22.000   6.622  52.366  0.00  0.00    +0.000 HD
ENDBRANCH  30  32
ENDBRANCH  29  30
ENDBRANCH  28  29
ENDBRANCH  19  28
ENDBRANCH   1  21
TORSDOF 6
ENDMDL
MODEL 7
REMARK VINA RESULT:    -8.476      2.859      6.658
REMARK INTER + INTRA:         -12.734
REMARK INTER:                 -11.983
REMARK INTRA:                  -0.751
REMARK UNBOUND:                -1.286
REMARK  Name = 
REMARK  9 active torsions:
REMARK  status: ('A' for Active; 'I' for Inactive)
REMARK    1  A    between atoms: C_1  and  N_2
REMARK    2  A    between atoms: N_2  and  C_3
REMARK    3  A    between atoms: N_2  and  C_4
REMARK    4  A    between atoms: C_4  and  C_5
REMARK    5  A    between atoms: C_5  and  C_6
REMARK    6  A    between atoms: C_6  and  N_7
REMARK    7  A    between atoms: C_9  and  C_10
REMARK    8  A    between atoms: C_11  and  C_12
REMARK    9  A    between atoms: N_14  and  C_15
REMARK                            x       y       z     vdW  Elec       q    Type
REMARK                         _______ _______ _______ _____ _____    ______ ____
ROOT
ATOM      1  C   UNL     1      20.836   0.051  52.992  0.00  0.00    +0.000 C 
ATOM      2  C   UNL     1      19.658   0.187  52.362  0.00  0.00    +0.000 C 
ATOM      3  C   UNL     1      18.716  -0.777  52.979  0.00  0.00    +0.000 C 
ATOM      4  O   UNL     1      17.547  -0.936  52.704  0.00  0.00    +0.000 OA
ATOM      5  N   UNL     1      19.401  -1.449  53.931  0.00  0.00    +0.000 N 
ATOM      6  C   UNL     1      20.670  -1.013  54.014  0.00  0.00    +0.000 C 
ATOM      7  O   UNL     1      21.516  -1.424  54.790  0.00  0.00    +0.000 OA
ATOM      8  H   UNL     1      19.020  -2.165  54.490  0.00  0.00    +0.000 HD
ENDROOT
BRANCH   2   9
ATOM      9  C   UNL     1      19.286   1.080  51.329  0.00  0.00    +0.000 A 
ATOM     10  C   UNL     1      18.114   1.805  51.330  0.00  0.00    +0.000 A 
ATOM     11  N   UNL     1      18.058   2.505  50.154  0.00  0.00    +0.000 N 
ATOM     12  C   UNL     1      16.949   3.339  49.751  0.00  0.00    +0.000 C 
ATOM     13  C   UNL     1      19.189   2.270  49.398  0.00  0.00    +0.000 A 
ATOM     14  C   UNL     1      19.564   2.754  48.135  0.00  0.00    +0.000 A 
ATOM     15  C   UNL     1      20.785   2.328  47.602  0.00  0.00    +0.000 A 
ATOM     16  C   UNL     1      21.607   1.457  48.311  0.00  0.00    +0.000 A 
ATOM     17  C   UNL     1      21.224   0.978  49.570  0.00  0.00    +0.000 A 
ATOM     18  C   UNL     1      19.989   1.380  50.126  0.00  0.00    +0.000 A 
ENDBRANCH   2   9
BRANCH   1  21
ATOM     19  N   UNL     1      24.238   1.083  52.574  0.00  0.00    +0.000 N 
ATOM     20  C   UNL     1      23.276   0.111  52.674  0.00  0.00    +0.000 A 
ATOM     21  C   UNL     1      22.054   0.734  52.781  0.00  0.00    +0.000 A 
ATOM     22  C   UNL     1      22.263   2.138  52.652  0.00  0.00    +0.000 A 
ATOM     23  C   UNL     1      21.415   3.268  52.653  0.00  0.00    +0.000 A 
ATOM     24  C   UNL     1      21.962   4.546  52.493  0.00  0.00    +0.000 A 
ATOM     25  C   UNL     1      23.332   4.712  52.321  0.00  0.00    +0.000 A 
ATOM     26  C   UNL     1      24.194   3.611  52.316  0.00  0.00    +0.000 A 
ATOM     27  C   UNL     1      23.642   2.330  52.496  0.00  0.00    +0.000 A 
BRANCH  19  28
ATOM     28  C   UNL     1      25.665   0.813  52.487  0.00  0.00    +0.000 C 
BRANCH  28  29
ATOM     29  C   UNL     1      26.148  -0.455  53.203  0.00  0.00    +0.000 C 
BRANCH  29  30
ATOM     30  C   UNL     1      27.582  -0.938  52.927  0.00  0.00    +0.000 C 
BRANCH  30  32
ATOM     31  C   UNL     1      29.921  -1.163  53.691  0.00  0.00    +0.000 C 
ATOM     32  N   UNL     1      28.518  -0.969  54.065  0.00  0.00    +0.000 N 
ATOM     33  C   UNL     1      28.407   0.297  54.809  0.00  0.00    +0.000 C 
ATOM     34  H   UNL     1      28.251  -1.775  54.628  0.00  0.00    +0.000 HD
ENDBRANCH  30  32
ENDBRANCH  29  30
ENDBRANCH  28  29
ENDBRANCH  19  28
ENDBRANCH   1  21
TORSDOF 6
ENDMDL
MODEL 8
REMARK VINA RESULT:    -8.405      2.516      5.827
REMARK INTER + INTRA:         -12.639
REMARK INTER:                 -11.444
REMARK INTRA:                  -1.196
REMARK UNBOUND:                -1.286
REMARK  Name = 
REMARK  9 active torsions:
REMARK  status: ('A' for Active; 'I' for Inactive)
REMARK    1  A    between atoms: C_1  and  N_2
REMARK    2  A    between atoms: N_2  and  C_3
REMARK    3  A    between atoms: N_2  and  C_4
REMARK    4  A    between atoms: C_4  and  C_5
REMARK    5  A    between atoms: C_5  and  C_6
REMARK    6  A    between atoms: C_6  and  N_7
REMARK    7  A    between atoms: C_9  and  C_10
REMARK    8  A    between atoms: C_11  and  C_12
REMARK    9  A    between atoms: N_14  and  C_15
REMARK                            x       y       z     vdW  Elec       q    Type
REMARK                         _______ _______ _______ _____ _____    ______ ____
ROOT
ATOM      1  C   UNL     1      24.400   2.163  52.297  0.00  0.00    +0.000 C 
ATOM      2  C   UNL     1      23.506   1.172  52.147  0.00  0.00    +0.000 C 
ATOM      3  C   UNL     1      23.924   0.066  53.041  0.00  0.00    +0.000 C 
ATOM      4  O   UNL     1      23.358  -0.992  53.210  0.00  0.00    +0.000 OA
ATOM      5  N   UNL     1      25.061   0.460  53.657  0.00  0.00    +0.000 N 
ATOM      6  C   UNL     1      25.411   1.702  53.280  0.00  0.00    +0.000 C 
ATOM      7  O   UNL     1      26.383   2.321  53.680  0.00  0.00    +0.000 OA
ATOM      8  H   UNL     1      25.567  -0.091  54.298  0.00  0.00    +0.000 HD
ENDROOT
BRANCH   2   9
ATOM      9  C   UNL     1      22.340   1.122  51.346  0.00  0.00    +0.000 A 
ATOM     10  C   UNL     1      22.281   1.595  50.054  0.00  0.00    +0.000 A 
ATOM     11  N   UNL     1      20.992   1.443  49.615  0.00  0.00    +0.000 N 
ATOM     12  C   UNL     1      20.510   1.881  48.325  0.00  0.00    +0.000 C 
ATOM     13  C   UNL     1      20.216   0.851  50.592  0.00  0.00    +0.000 A 
ATOM     14  C   UNL     1      18.854   0.512  50.601  0.00  0.00    +0.000 A 
ATOM     15  C   UNL     1      18.329  -0.078  51.755  0.00  0.00    +0.000 A 
ATOM     16  C   UNL     1      19.139  -0.328  52.858  0.00  0.00    +0.000 A 
ATOM     17  C   UNL     1      20.496   0.016  52.842  0.00  0.00    +0.000 A 
ATOM     18  C   UNL     1      21.050   0.626  51.695  0.00  0.00    +0.000 A 
ENDBRANCH   2   9
BRANCH   1  21
ATOM     19  N   UNL     1      23.862   5.487  51.082  0.00  0.00    +0.000 N 
ATOM     20  C   UNL     1      23.574   4.454  51.935  0.00  0.00    +0.000 A 
ATOM     21  C   UNL     1      24.453   3.429  51.671  0.00  0.00    +0.000 A 
ATOM     22  C   UNL     1      25.373   3.881  50.681  0.00  0.00    +0.000 A 
ATOM     23  C   UNL     1      26.490   3.308  50.033  0.00  0.00    +0.000 A 
ATOM     24  C   UNL     1      27.198   4.053  49.083  0.00  0.00    +0.000 A 
ATOM     25  C   UNL     1      26.818   5.355  48.779  0.00  0.00    +0.000 A 
ATOM     26  C   UNL     1      25.716   5.946  49.404  0.00  0.00    +0.000 A 
ATOM     27  C   UNL     1      24.996   5.189  50.345  0.00  0.00    +0.000 A 
BRANCH  19  28
ATOM     28  C   UNL     1      23.117   6.735  51.031  0.00  0.00    +0.000 C 
BRANCH  28  29
ATOM     29  C   UNL     1      22.452   7.059  49.687  0.00  0.00    +0.000 C 
BRANCH  29  30
ATOM     30  C   UNL     1      21.717   5.925  48.953  0.00  0.00    +0.000 C 
BRANCH  30  32
ATOM     31  C   UNL     1      20.115   4.887  50.523  0.00  0.00    +0.000 C 
ATOM     32  N   UNL     1      20.307   5.687  49.311  0.00  0.00    +0.000 N 
ATOM     33  C   UNL     1      19.637   6.985  49.503  0.00  0.00    +0.000 C 
ATOM     34  H   UNL     1      19.906   5.153  48.541  0.00  0.00    +0.000 HD
ENDBRANCH  30  32
ENDBRANCH  29  30
ENDBRANCH  28  29
ENDBRANCH  19  28
ENDBRANCH   1  21
TORSDOF 6
ENDMDL
MODEL 9
REMARK VINA RESULT:    -8.184      2.945      6.930
REMARK INTER + INTRA:         -12.340
REMARK INTER:                 -10.976
REMARK INTRA:                  -1.364
REMARK UNBOUND:                -1.286
REMARK  Name = 
REMARK  9 active torsions:
REMARK  status: ('A' for Active; 'I' for Inactive)
REMARK    1  A    between atoms: C_1  and  N_2
REMARK    2  A    between atoms: N_2  and  C_3
REMARK    3  A    between atoms: N_2  and  C_4
REMARK    4  A    between atoms: C_4  and  C_5
REMARK    5  A    between atoms: C_5  and  C_6
REMARK    6  A    between atoms: C_6  and  N_7
REMARK    7  A    between atoms: C_9  and  C_10
REMARK    8  A    between atoms: C_11  and  C_12
REMARK    9  A    between atoms: N_14  and  C_15
REMARK                            x       y       z     vdW  Elec       q    Type
REMARK                         _______ _______ _______ _____ _____    ______ ____
ROOT
ATOM      1  C   UNL     1      20.778   0.302  52.765  0.00  0.00    +0.000 C 
ATOM      2  C   UNL     1      19.652   0.441  52.047  0.00  0.00    +0.000 C 
ATOM      3  C   UNL     1      18.643  -0.473  52.632  0.00  0.00    +0.000 C 
ATOM      4  O   UNL     1      17.492  -0.614  52.280  0.00  0.00    +0.000 OA
ATOM      5  N   UNL     1      19.239  -1.120  53.658  0.00  0.00    +0.000 N 
ATOM      6  C   UNL     1      20.510  -0.713  53.815  0.00  0.00    +0.000 C 
ATOM      7  O   UNL     1      21.288  -1.112  54.665  0.00  0.00    +0.000 OA
ATOM      8  H   UNL     1      18.800  -1.802  54.216  0.00  0.00    +0.000 HD
ENDROOT
BRANCH   2   9
ATOM      9  C   UNL     1      19.379   1.298  50.953  0.00  0.00    +0.000 A 
ATOM     10  C   UNL     1      20.062   1.253  49.759  0.00  0.00    +0.000 A 
ATOM     11  N   UNL     1      19.580   2.260  48.965  0.00  0.00    +0.000 N 
ATOM     12  C   UNL     1      20.087   2.581  47.651  0.00  0.00    +0.000 C 
ATOM     13  C   UNL     1      18.571   2.944  49.615  0.00  0.00    +0.000 A 
ATOM     14  C   UNL     1      17.798   4.042  49.207  0.00  0.00    +0.000 A 
ATOM     15  C   UNL     1      16.839   4.539  50.095  0.00  0.00    +0.000 A 
ATOM     16  C   UNL     1      16.653   3.954  51.344  0.00  0.00    +0.000 A 
ATOM     17  C   UNL     1      17.430   2.860  51.743  0.00  0.00    +0.000 A 
ATOM     18  C   UNL     1      18.416   2.346  50.872  0.00  0.00    +0.000 A 
ENDBRANCH   2   9
BRANCH   1  21
ATOM     19  N   UNL     1      24.228   1.222  52.510  0.00  0.00    +0.000 N 
ATOM     20  C   UNL     1      23.231   0.283  52.559  0.00  0.00    +0.000 A 
ATOM     21  C   UNL     1      22.026   0.946  52.615  0.00  0.00    +0.000 A 
ATOM     22  C   UNL     1      22.287   2.342  52.506  0.00  0.00    +0.000 A 
ATOM     23  C   UNL     1      21.478   3.500  52.477  0.00  0.00    +0.000 A 
ATOM     24  C   UNL     1      22.074   4.760  52.351  0.00  0.00    +0.000 A 
ATOM     25  C   UNL     1      23.455   4.881  52.243  0.00  0.00    +0.000 A 
ATOM     26  C   UNL     1      24.279   3.752  52.270  0.00  0.00    +0.000 A 
ATOM     27  C   UNL     1      23.678   2.489  52.415  0.00  0.00    +0.000 A 
BRANCH  19  28
ATOM     28  C   UNL     1      25.647   0.905  52.487  0.00  0.00    +0.000 C 
BRANCH  28  29
ATOM     29  C   UNL     1      26.082  -0.270  53.371  0.00  0.00    +0.000 C 
BRANCH  29  30
ATOM     30  C   UNL     1      26.912   0.040  54.628  0.00  0.00    +0.000 C 
BRANCH  30  32
ATOM     31  C   UNL     1      28.765  -1.127  53.483  0.00  0.00    +0.000 C 
ATOM     32  N   UNL     1      28.359  -0.232  54.569  0.00  0.00    +0.000 N 
ATOM     33  C   UNL     1      29.080   1.042  54.413  0.00  0.00    +0.000 C 
ATOM     34  H   UNL     1      28.593  -0.706  55.441  0.00  0.00    +0.000 HD
ENDBRANCH  30  32
ENDBRANCH  29  30
ENDBRANCH  28  29
ENDBRANCH  19  28
ENDBRANCH   1  21
TORSDOF 6
ENDMDL
