MODEL 1
REMARK VINA RESULT:    -8.109      0.000      0.000
REMARK INTER + INTRA:         -10.082
REMARK INTER:                  -9.769
REMARK INTRA:                  -0.314
REMARK UNBOUND:                -0.314
REMARK  Name = 
REMARK  6 active torsions:
REMARK  status: ('A' for Active; 'I' for Inactive)
REMARK    1  A    between atoms: C_1  and  N_2
REMARK    2  A    between atoms: N_2  and  C_3
REMARK    3  A    between atoms: N_2  and  C_4
REMARK    4  A    between atoms: C_9  and  S_10
REMARK    5  A    between atoms: S_10  and  N_13
REMARK    6  A    between atoms: C_20  and  O_21
REMARK                            x       y       z     vdW  Elec       q    Type
REMARK                         _______ _______ _______ _____ _____    ______ ____
ROOT
ATOM      1  S   UNL     1      24.120   2.736  52.027  0.00  0.00    +0.000 S 
ATOM      2  O   UNL     1      22.817   2.615  52.652  0.00  0.00    +0.000 OA
ATOM      3  O   UNL     1      24.562   1.696  51.123  0.00  0.00    +0.000 OA
ENDROOT
BRANCH   1   9
ATOM      4  C   UNL     1      26.430   6.488  49.044  0.00  0.00    +0.000 A 
ATOM      5  C   UNL     1      27.385   5.503  48.719  0.00  0.00    +0.000 A 
ATOM      6  C   UNL     1      27.186   4.163  49.008  0.00  0.00    +0.000 A 
ATOM      7  C   UNL     1      26.094   3.786  49.760  0.00  0.00    +0.000 A 
ATOM      8  C   UNL     1      25.201   4.725  50.307  0.00  0.00    +0.000 A 
ATOM      9  C   UNL     1      24.187   4.360  51.239  0.00  0.00    +0.000 A 
ATOM     10  C   UNL     1      23.173   5.270  51.566  0.00  0.00    +0.000 A 
ATOM     11  C   UNL     1      23.172   6.542  51.005  0.00  0.00    +0.000 A 
ATOM     12  C   UNL     1      24.231   6.937  50.176  0.00  0.00    +0.000 A 
ATOM     13  C   UNL     1      25.306   6.079  49.853  0.00  0.00    +0.000 A 
BRANCH   4  15
ATOM     14  C   UNL     1      26.376   7.908  47.044  0.00  0.00    +0.000 C 
ATOM     15  N   UNL     1      26.571   7.788  48.494  0.00  0.00    +0.000 N 
ATOM     16  C   UNL     1      27.606   8.669  49.041  0.00  0.00    +0.000 C 
ENDBRANCH   4  15
ENDBRANCH   1   9
BRANCH   1  17
ATOM     17  N   UNL     1      25.189   2.766  53.317  0.00  0.00    +0.000 N 
ATOM     18  C   UNL     1      26.232   1.812  53.378  0.00  0.00    +0.000 A 
ATOM     19  N   UNL     1      27.441   2.345  53.128  0.00  0.00    +0.000 NA
ATOM     20  C   UNL     1      28.482   1.480  53.230  0.00  0.00    +0.000 A 
ATOM     21  C   UNL     1      28.332   0.148  53.585  0.00  0.00    +0.000 A 
ATOM     22 BR   UNL     1      29.854  -0.978  53.687  0.00  0.00    +0.000 Br
ATOM     23  N   UNL     1      27.118  -0.388  53.858  0.00  0.00    +0.000 NA
ATOM     24  C   UNL     1      26.078   0.472  53.742  0.00  0.00    +0.000 A 
ATOM     25  H   UNL     1      25.091   3.442  54.027  0.00  0.00    +0.000 HD
BRANCH  24  26
ATOM     26  O   UNL     1      24.863  -0.073  54.052  0.00  0.00    +0.000 OA
ATOM     27  H   UNL     1      24.597  -0.880  53.659  0.00  0.00    +0.000 HD
ENDBRANCH  24  26
ENDBRANCH   1  17
TORSDOF 4
ENDMDL
MODEL 2
REMARK VINA RESULT:    -8.072      4.117      7.978
REMARK INTER + INTRA:         -10.037
REMARK INTER:                  -9.617
REMARK INTRA:                  -0.420
REMARK UNBOUND:                -0.314
REMARK  Name = 
REMARK  6 active torsions:
REMARK  status: ('A' for Active; 'I' for Inactive)
REMARK    1  A    between atoms: C_1  and  N_2
REMARK    2  A    between atoms: N_2  and  C_3
REMARK    3  A    between atoms: N_2  and  C_4
REMARK    4  A    between atoms: C_9  and  S_10
REMARK    5  A    between atoms: S_10  and  N_13
REMARK    6  A    between atoms: C_20  and  O_21
REMARK                            x       y       z     vdW  Elec       q    Type
REMARK                         _______ _______ _______ _____ _____    ______ ____
ROOT
ATOM      1  S   UNL     1      25.454   3.252  50.683  0.00  0.00    +0.000 S 
ATOM      2  O   UNL     1      26.871   3.557  50.681  0.00  0.00    +0.000 OA
ATOM      3  O   UNL     1      24.746   3.208  49.421  0.00  0.00    +0.000 OA
ENDROOT
BRANCH   1   9
ATOM      4  C   UNL     1      22.603  -0.237  53.512  0.00  0.00    +0.000 A 
ATOM      5  C   UNL     1      21.483   0.544  53.163  0.00  0.00    +0.000 A 
ATOM      6  C   UNL     1      21.542   1.515  52.178  0.00  0.00    +0.000 A 
ATOM      7  C   UNL     1      22.759   1.835  51.614  0.00  0.00    +0.000 A 
ATOM      8  C   UNL     1      23.963   1.255  52.050  0.00  0.00    +0.000 A 
ATOM      9  C   UNL     1      25.237   1.717  51.609  0.00  0.00    +0.000 A 
ATOM     10  C   UNL     1      26.387   0.962  51.871  0.00  0.00    +0.000 A 
ATOM     11  C   UNL     1      26.293  -0.224  52.590  0.00  0.00    +0.000 A 
ATOM     12  C   UNL     1      25.056  -0.620  53.120  0.00  0.00    +0.000 A 
ATOM     13  C   UNL     1      23.873   0.128  52.930  0.00  0.00    +0.000 A 
BRANCH   4  15
ATOM     14  C   UNL     1      21.068  -1.963  54.339  0.00  0.00    +0.000 C 
ATOM     15  N   UNL     1      22.414  -1.379  54.333  0.00  0.00    +0.000 N 
ATOM     16  C   UNL     1      23.103  -1.431  55.625  0.00  0.00    +0.000 C 
ENDBRANCH   4  15
ENDBRANCH   1   9
BRANCH   1  17
ATOM     17  N   UNL     1      24.774   4.482  51.595  0.00  0.00    +0.000 N 
ATOM     18  C   UNL     1      24.174   5.583  50.941  0.00  0.00    +0.000 A 
ATOM     19  N   UNL     1      22.833   5.576  51.032  0.00  0.00    +0.000 NA
ATOM     20  C   UNL     1      22.213   6.644  50.468  0.00  0.00    +0.000 A 
ATOM     21  C   UNL     1      22.897   7.685  49.857  0.00  0.00    +0.000 A 
ATOM     22 BR   UNL     1      21.932   9.125  49.089  0.00  0.00    +0.000 Br
ATOM     23  N   UNL     1      24.250   7.706  49.782  0.00  0.00    +0.000 NA
ATOM     24  C   UNL     1      24.867   6.634  50.332  0.00  0.00    +0.000 A 
ATOM     25  H   UNL     1      24.792   4.438  52.580  0.00  0.00    +0.000 HD
BRANCH  24  26
ATOM     26  O   UNL     1      26.231   6.684  50.279  0.00  0.00    +0.000 OA
ATOM     27  H   UNL     1      26.739   5.953  50.570  0.00  0.00    +0.000 HD
ENDBRANCH  24  26
ENDBRANCH   1  17
TORSDOF 4
ENDMDL
MODEL 3
REMARK VINA RESULT:    -8.059      5.270      8.141
REMARK INTER + INTRA:         -10.022
REMARK INTER:                  -9.347
REMARK INTRA:                  -0.674
REMARK UNBOUND:                -0.314
REMARK  Name = 
REMARK  6 active torsions:
REMARK  status: ('A' for Active; 'I' for Inactive)
REMARK    1  A    between atoms: C_1  and  N_2
REMARK    2  A    between atoms: N_2  and  C_3
REMARK    3  A    between atoms: N_2  and  C_4
REMARK    4  A    between atoms: C_9  and  S_10
REMARK    5  A    between atoms: S_10  and  N_13
REMARK    6  A    between atoms: C_20  and  O_21
REMARK                            x       y       z     vdW  Elec       q    Type
REMARK                         _______ _______ _______ _____ _____    ______ ____
ROOT
ATOM      1  S   UNL     1      21.788   1.303  51.901  0.00  0.00    +0.000 S 
ATOM      2  O   UNL     1      21.831   2.728  52.160  0.00  0.00    +0.000 OA
ATOM      3  O   UNL     1      21.854   0.837  50.533  0.00  0.00    +0.000 OA
ENDROOT
BRANCH   1   9
ATOM      4  C   UNL     1      26.837   0.201  53.164  0.00  0.00    +0.000 A 
ATOM      5  C   UNL     1      27.187   1.144  52.176  0.00  0.00    +0.000 A 
ATOM      6  C   UNL     1      26.258   2.008  51.624  0.00  0.00    +0.000 A 
ATOM      7  C   UNL     1      24.923   1.858  51.935  0.00  0.00    +0.000 A 
ATOM      8  C   UNL     1      24.456   0.810  52.748  0.00  0.00    +0.000 A 
ATOM      9  C   UNL     1      23.068   0.535  52.917  0.00  0.00    +0.000 A 
ATOM     10  C   UNL     1      22.644  -0.349  53.917  0.00  0.00    +0.000 A 
ATOM     11  C   UNL     1      23.579  -0.984  54.727  0.00  0.00    +0.000 A 
ATOM     12  C   UNL     1      24.948  -0.799  54.486  0.00  0.00    +0.000 A 
ATOM     13  C   UNL     1      25.433   0.040  53.459  0.00  0.00    +0.000 A 
BRANCH   4  15
ATOM     14  C   UNL     1      28.680   0.357  54.777  0.00  0.00    +0.000 C 
ATOM     15  N   UNL     1      27.870  -0.468  53.871  0.00  0.00    +0.000 N 
ATOM     16  C   UNL     1      28.616  -1.525  53.184  0.00  0.00    +0.000 C 
ENDBRANCH   4  15
ENDBRANCH   1   9
BRANCH   1  17
ATOM     17  N   UNL     1      20.307   0.821  52.522  0.00  0.00    +0.000 N 
ATOM     18  C   UNL     1      19.133   1.035  51.764  0.00  0.00    +0.000 A 
ATOM     19  N   UNL     1      18.625  -0.103  51.259  0.00  0.00    +0.000 NA
ATOM     20  C   UNL     1      17.464   0.042  50.569  0.00  0.00    +0.000 A 
ATOM     21  C   UNL     1      16.824   1.262  50.406  0.00  0.00    +0.000 A 
ATOM     22 BR   UNL     1      15.212   1.356  49.414  0.00  0.00    +0.000 Br
ATOM     23  N   UNL     1      17.322   2.408  50.932  0.00  0.00    +0.000 NA
ATOM     24  C   UNL     1      18.488   2.265  51.607  0.00  0.00    +0.000 A 
ATOM     25  H   UNL     1      20.256   0.393  53.408  0.00  0.00    +0.000 HD
BRANCH  24  26
ATOM     26  O   UNL     1      18.960   3.421  52.160  0.00  0.00    +0.000 OA
ATOM     27  H   UNL     1      19.214   4.135  51.609  0.00  0.00    +0.000 HD
ENDBRANCH  24  26
ENDBRANCH   1  17
TORSDOF 4
ENDMDL
MODEL 4
REMARK VINA RESULT:    -8.052      4.225      6.807
REMARK INTER + INTRA:         -10.014
REMARK INTER:                  -9.951
REMARK INTRA:                  -0.063
REMARK UNBOUND:                -0.314
REMARK  Name = 
REMARK  6 active torsions:
REMARK  status: ('A' for Active; 'I' for Inactive)
REMARK    1  A    between atoms: C_1  and  N_2
REMARK    2  A    between atoms: N_2  and  C_3
REMARK    3  A    between atoms: N_2  and  C_4
REMARK    4  A    between atoms: C_9  and  S_10
REMARK    5  A    between atoms: S_10  and  N_13
REMARK    6  A    between atoms: C_20  and  O_21
REMARK                            x       y       z     vdW  Elec       q    Type
REMARK                         _______ _______ _______ _____ _____    ______ ____
ROOT
ATOM      1  S   UNL     1      23.771   2.975  52.280  0.00  0.00    +0.000 S 
ATOM      2  O   UNL     1      23.957   4.095  51.379  0.00  0.00    +0.000 OA
ATOM      3  O   UNL     1      24.266   3.078  53.636  0.00  0.00    +0.000 OA
ENDROOT
BRANCH   1   9
ATOM      4  C   UNL     1      19.655  -0.314  53.020  0.00  0.00    +0.000 A 
ATOM      5  C   UNL     1      20.582  -1.177  53.640  0.00  0.00    +0.000 A 
ATOM      6  C   UNL     1      21.852  -0.756  53.998  0.00  0.00    +0.000 A 
ATOM      7  C   UNL     1      22.284   0.496  53.615  0.00  0.00    +0.000 A 
ATOM      8  C   UNL     1      21.503   1.346  52.812  0.00  0.00    +0.000 A 
ATOM      9  C   UNL     1      22.016   2.553  52.255  0.00  0.00    +0.000 A 
ATOM     10  C   UNL     1      21.144   3.483  51.673  0.00  0.00    +0.000 A 
ATOM     11  C   UNL     1      19.781   3.216  51.609  0.00  0.00    +0.000 A 
ATOM     12  C   UNL     1      19.294   1.979  52.056  0.00  0.00    +0.000 A 
ATOM     13  C   UNL     1      20.133   0.984  52.604  0.00  0.00    +0.000 A 
BRANCH   4  15
ATOM     14  C   UNL     1      17.927  -1.935  53.656  0.00  0.00    +0.000 C 
ATOM     15  N   UNL     1      18.300  -0.722  52.918  0.00  0.00    +0.000 N 
ATOM     16  C   UNL     1      17.617  -0.562  51.632  0.00  0.00    +0.000 C 
ENDBRANCH   4  15
ENDBRANCH   1   9
BRANCH   1  17
ATOM     17  N   UNL     1      24.594   1.717  51.541  0.00  0.00    +0.000 N 
ATOM     18  C   UNL     1      25.781   1.221  52.130  0.00  0.00    +0.000 A 
ATOM     19  N   UNL     1      25.621   0.007  52.684  0.00  0.00    +0.000 NA
ATOM     20  C   UNL     1      26.747  -0.536  53.214  0.00  0.00    +0.000 A 
ATOM     21  C   UNL     1      27.984   0.090  53.176  0.00  0.00    +0.000 A 
ATOM     22 BR   UNL     1      29.492  -0.753  53.956  0.00  0.00    +0.000 Br
ATOM     23  N   UNL     1      28.154   1.305  52.599  0.00  0.00    +0.000 NA
ATOM     24  C   UNL     1      27.027   1.853  52.085  0.00  0.00    +0.000 A 
ATOM     25  H   UNL     1      24.254   1.326  50.703  0.00  0.00    +0.000 HD
BRANCH  24  26
ATOM     26  O   UNL     1      27.220   3.062  51.477  0.00  0.00    +0.000 OA
ATOM     27  H   UNL     1      26.522   3.686  51.443  0.00  0.00    +0.000 HD
ENDBRANCH  24  26
ENDBRANCH   1  17
TORSDOF 4
ENDMDL
MODEL 5
REMARK VINA RESULT:    -7.868      5.207      7.937
REMARK INTER + INTRA:          -9.792
REMARK INTER:                  -9.152
REMARK INTRA:                  -0.640
REMARK UNBOUND:                -0.314
REMARK  Name = 
REMARK  6 active torsions:
REMARK  status: ('A' for Active; 'I' for Inactive)
REMARK    1  A    between atoms: C_1  and  N_2
REMARK    2  A    between atoms: N_2  and  C_3
REMARK    3  A    between atoms: N_2  and  C_4
REMARK    4  A    between atoms: C_9  and  S_10
REMARK    5  A    between atoms: S_10  and  N_13
REMARK    6  A    between atoms: C_20  and  O_21
REMARK                            x       y       z     vdW  Elec       q    Type
REMARK                         _______ _______ _______ _____ _____    ______ ____
ROOT
ATOM      1  S   UNL     1      20.805   0.572  52.932  0.00  0.00    +0.000 S 
ATOM      2  O   UNL     1      19.709  -0.244  53.417  0.00  0.00    +0.000 OA
ATOM      3  O   UNL     1      20.697   2.012  53.018  0.00  0.00    +0.000 OA
ENDROOT
BRANCH   1   9
ATOM      4  C   UNL     1      26.080   0.003  53.333  0.00  0.00    +0.000 A 
ATOM      5  C   UNL     1      26.161   0.918  52.264  0.00  0.00    +0.000 A 
ATOM      6  C   UNL     1      25.071   1.663  51.850  0.00  0.00    +0.000 A 
ATOM      7  C   UNL     1      23.830   1.410  52.395  0.00  0.00    +0.000 A 
ATOM      8  C   UNL     1      23.614   0.370  53.317  0.00  0.00    +0.000 A 
ATOM      9  C   UNL     1      22.310  -0.020  53.736  0.00  0.00    +0.000 A 
ATOM     10  C   UNL     1      22.152  -0.883  54.828  0.00  0.00    +0.000 A 
ATOM     11  C   UNL     1      23.269  -1.386  55.486  0.00  0.00    +0.000 A 
ATOM     12  C   UNL     1      24.552  -1.091  55.002  0.00  0.00    +0.000 A 
ATOM     13  C   UNL     1      24.769  -0.268  53.875  0.00  0.00    +0.000 A 
BRANCH   4  15
ATOM     14  C   UNL     1      28.088   0.383  54.691  0.00  0.00    +0.000 C 
ATOM     15  N   UNL     1      27.279  -0.529  53.873  0.00  0.00    +0.000 N 
ATOM     16  C   UNL     1      28.058  -1.464  53.057  0.00  0.00    +0.000 C 
ENDBRANCH   4  15
ENDBRANCH   1   9
BRANCH   1  17
ATOM     17  N   UNL     1      20.922   0.175  51.308  0.00  0.00    +0.000 N 
ATOM     18  C   UNL     1      20.418   1.070  50.336  0.00  0.00    +0.000 A 
ATOM     19  N   UNL     1      21.391   1.691  49.646  0.00  0.00    +0.000 NA
ATOM     20  C   UNL     1      20.958   2.519  48.661  0.00  0.00    +0.000 A 
ATOM     21  C   UNL     1      19.617   2.707  48.361  0.00  0.00    +0.000 A 
ATOM     22 BR   UNL     1      19.119   3.897  46.971  0.00  0.00    +0.000 Br
ATOM     23  N   UNL     1      18.634   2.066  49.040  0.00  0.00    +0.000 NA
ATOM     24  C   UNL     1      19.066   1.251  50.031  0.00  0.00    +0.000 A 
ATOM     25  H   UNL     1      21.337  -0.675  51.034  0.00  0.00    +0.000 HD
BRANCH  24  26
ATOM     26  O   UNL     1      18.067   0.586  50.685  0.00  0.00    +0.000 OA
ATOM     27  H   UNL     1      17.979   0.668  51.614  0.00  0.00    +0.000 HD
ENDBRANCH  24  26
ENDBRANCH   1  17
TORSDOF 4
ENDMDL
MODEL 6
REMARK VINA RESULT:    -7.836      6.003      8.554
REMARK INTER + INTRA:          -9.753
REMARK INTER:                  -9.489
REMARK INTRA:                  -0.264
REMARK UNBOUND:                -0.314
REMARK  Name = 
REMARK  6 active torsions:
REMARK  status: ('A' for Active; 'I' for Inactive)
REMARK    1  A    between atoms: C_1  and  N_2
REMARK    2  A    between atoms: N_2  and  C_3
REMARK    3  A    between atoms: N_2  and  C_4
REMARK    4  A    between atoms: C_9  and  S_10
REMARK    5  A    between atoms: S_10  and  N_13
REMARK    6  A    between atoms: C_20  and  O_21
REMARK                            x       y       z     vdW  Elec       q    Type
REMARK                         _______ _______ _______ _____ _____    ______ ____
ROOT
ATOM      1  S   UNL     1      20.478   1.089  52.847  0.00  0.00    +0.000 S 
ATOM      2  O   UNL     1      20.306   0.652  54.218  0.00  0.00    +0.000 OA
ATOM      3  O   UNL     1      19.846   2.319  52.420  0.00  0.00    +0.000 OA
ENDROOT
BRANCH   1   9
ATOM      4  C   UNL     1      25.545  -0.127  53.925  0.00  0.00    +0.000 A 
ATOM      5  C   UNL     1      25.026  -0.964  54.934  0.00  0.00    +0.000 A 
ATOM      6  C   UNL     1      23.682  -1.288  55.002  0.00  0.00    +0.000 A 
ATOM      7  C   UNL     1      22.791  -0.669  54.151  0.00  0.00    +0.000 A 
ATOM      8  C   UNL     1      23.189   0.337  53.252  0.00  0.00    +0.000 A 
ATOM      9  C   UNL     1      22.252   1.113  52.511  0.00  0.00    +0.000 A 
ATOM     10  C   UNL     1      22.690   1.925  51.456  0.00  0.00    +0.000 A 
ATOM     11  C   UNL     1      24.044   1.999  51.151  0.00  0.00    +0.000 A 
ATOM     12  C   UNL     1      24.976   1.324  51.953  0.00  0.00    +0.000 A 
ATOM     13  C   UNL     1      24.595   0.532  53.059  0.00  0.00    +0.000 A 
BRANCH   4  15
ATOM     14  C   UNL     1      27.571  -1.094  52.938  0.00  0.00    +0.000 C 
ATOM     15  N   UNL     1      26.951  -0.045  53.756  0.00  0.00    +0.000 N 
ATOM     16  C   UNL     1      27.766   0.401  54.889  0.00  0.00    +0.000 C 
ENDBRANCH   4  15
ENDBRANCH   1   9
BRANCH   1  17
ATOM     17  N   UNL     1      19.818  -0.154  51.938  0.00  0.00    +0.000 N 
ATOM     18  C   UNL     1      18.412  -0.266  51.829  0.00  0.00    +0.000 A 
ATOM     19  N   UNL     1      17.954   0.074  50.612  0.00  0.00    +0.000 NA
ATOM     20  C   UNL     1      16.615  -0.071  50.440  0.00  0.00    +0.000 A 
ATOM     21  C   UNL     1      15.770  -0.552  51.428  0.00  0.00    +0.000 A 
ATOM     22 BR   UNL     1      13.911  -0.704  51.087  0.00  0.00    +0.000 Br
ATOM     23  N   UNL     1      16.230  -0.916  52.650  0.00  0.00    +0.000 NA
ATOM     24  C   UNL     1      17.563  -0.757  52.826  0.00  0.00    +0.000 A 
ATOM     25  H   UNL     1      20.405  -0.802  51.483  0.00  0.00    +0.000 HD
BRANCH  24  26
ATOM     26  O   UNL     1      18.019  -1.160  54.050  0.00  0.00    +0.000 OA
ATOM     27  H   UNL     1      18.854  -1.578  54.125  0.00  0.00    +0.000 HD
ENDBRANCH  24  26
ENDBRANCH   1  17
TORSDOF 4
ENDMDL
MODEL 7
REMARK VINA RESULT:    -7.669      4.329      7.875
REMARK INTER + INTRA:          -9.552
REMARK INTER:                  -8.869
REMARK INTRA:                  -0.683
REMARK UNBOUND:                -0.314
REMARK  Name = 
REMARK  6 active torsions:
REMARK  status: ('A' for Active; 'I' for Inactive)
REMARK    1  A    between atoms: C_1  and  N_2
REMARK    2  A    between atoms: N_2  and  C_3
REMARK    3  A    between atoms: N_2  and  C_4
REMARK    4  A    between atoms: C_9  and  S_10
REMARK    5  A    between atoms: S_10  and  N_13
REMARK    6  A    between atoms: C_20  and  O_21
REMARK                            x       y       z     vdW  Elec       q    Type
REMARK                         _______ _______ _______ _____ _____    ______ ____
ROOT
ATOM      1  S   UNL     1      22.455   3.417  50.942  0.00  0.00    +0.000 S 
ATOM      2  O   UNL     1      21.590   2.409  50.361  0.00  0.00    +0.000 OA
ATOM      3  O   UNL     1      22.050   4.063  52.172  0.00  0.00    +0.000 OA
ENDROOT
BRANCH   1   9
ATOM      4  C   UNL     1      26.024   0.150  53.156  0.00  0.00    +0.000 A 
ATOM      5  C   UNL     1      24.936  -0.398  53.866  0.00  0.00    +0.000 A 
ATOM      6  C   UNL     1      23.623  -0.120  53.528  0.00  0.00    +0.000 A 
ATOM      7  C   UNL     1      23.357   0.829  52.563  0.00  0.00    +0.000 A 
ATOM      8  C   UNL     1      24.376   1.579  51.949  0.00  0.00    +0.000 A 
ATOM      9  C   UNL     1      24.100   2.687  51.097  0.00  0.00    +0.000 A 
ATOM     10  C   UNL     1      25.121   3.246  50.319  0.00  0.00    +0.000 A 
ATOM     11  C   UNL     1      26.414   2.741  50.399  0.00  0.00    +0.000 A 
ATOM     12  C   UNL     1      26.707   1.725  51.320  0.00  0.00    +0.000 A 
ATOM     13  C   UNL     1      25.728   1.159  52.166  0.00  0.00    +0.000 A 
BRANCH   4  15
ATOM     14  C   UNL     1      27.570  -1.737  52.897  0.00  0.00    +0.000 C 
ATOM     15  N   UNL     1      27.323  -0.373  53.381  0.00  0.00    +0.000 N 
ATOM     16  C   UNL     1      28.001  -0.044  54.637  0.00  0.00    +0.000 C 
ENDBRANCH   4  15
ENDBRANCH   1   9
BRANCH   1  17
ATOM     17  N   UNL     1      22.548   4.603  49.762  0.00  0.00    +0.000 N 
ATOM     18  C   UNL     1      21.695   5.729  49.839  0.00  0.00    +0.000 A 
ATOM     19  N   UNL     1      22.347   6.853  50.184  0.00  0.00    +0.000 NA
ATOM     20  C   UNL     1      21.581   7.974  50.216  0.00  0.00    +0.000 A 
ATOM     21  C   UNL     1      20.231   7.982  49.900  0.00  0.00    +0.000 A 
ATOM     22 BR   UNL     1      19.250   9.602  49.988  0.00  0.00    +0.000 Br
ATOM     23  N   UNL     1      19.575   6.854  49.530  0.00  0.00    +0.000 NA
ATOM     24  C   UNL     1      20.336   5.734  49.513  0.00  0.00    +0.000 A 
ATOM     25  H   UNL     1      23.191   4.516  49.020  0.00  0.00    +0.000 HD
BRANCH  24  26
ATOM     26  O   UNL     1      19.671   4.611  49.106  0.00  0.00    +0.000 OA
ATOM     27  H   UNL     1      20.143   3.817  48.952  0.00  0.00    +0.000 HD
ENDBRANCH  24  26
ENDBRANCH   1  17
TORSDOF 4
ENDMDL
MODEL 8
REMARK VINA RESULT:    -7.614      4.745      7.359
REMARK INTER + INTRA:          -9.486
REMARK INTER:                  -9.195
REMARK INTRA:                  -0.291
REMARK UNBOUND:                -0.314
REMARK  Name = 
REMARK  6 active torsions:
REMARK  status: ('A' for Active; 'I' for Inactive)
REMARK    1  A    between atoms: C_1  and  N_2
REMARK    2  A    between atoms: N_2  and  C_3
REMARK    3  A    between atoms: N_2  and  C_4
REMARK    4  A    between atoms: C_9  and  S_10
REMARK    5  A    between atoms: S_10  and  N_13
REMARK    6  A    between atoms: C_20  and  O_21
REMARK                            x       y       z     vdW  Elec       q    Type
REMARK                         _______ _______ _______ _____ _____    ______ ____
ROOT
ATOM      1  S   UNL     1      22.259   2.314  51.483  0.00  0.00    +0.000 S 
ATOM      2  O   UNL     1      21.828   2.270  52.865  0.00  0.00    +0.000 OA
ATOM      3  O   UNL     1      21.857   3.434  50.659  0.00  0.00    +0.000 OA
ENDROOT
BRANCH   1   9
ATOM      4  C   UNL     1      26.831   0.345  53.360  0.00  0.00    +0.000 A 
ATOM      5  C   UNL     1      26.028  -0.460  54.195  0.00  0.00    +0.000 A 
ATOM      6  C   UNL     1      24.665  -0.594  53.995  0.00  0.00    +0.000 A 
ATOM      7  C   UNL     1      24.039   0.186  53.046  0.00  0.00    +0.000 A 
ATOM      8  C   UNL     1      24.725   1.169  52.311  0.00  0.00    +0.000 A 
ATOM      9  C   UNL     1      24.053   2.105  51.473  0.00  0.00    +0.000 A 
ATOM     10  C   UNL     1      24.783   2.897  50.579  0.00  0.00    +0.000 A 
ATOM     11  C   UNL     1      26.168   2.796  50.529  0.00  0.00    +0.000 A 
ATOM     12  C   UNL     1      26.837   1.957  51.432  0.00  0.00    +0.000 A 
ATOM     13  C   UNL     1      26.156   1.173  52.389  0.00  0.00    +0.000 A 
BRANCH   4  15
ATOM     14  C   UNL     1      28.803  -1.115  53.322  0.00  0.00    +0.000 C 
ATOM     15  N   UNL     1      28.243   0.236  53.454  0.00  0.00    +0.000 N 
ATOM     16  C   UNL     1      28.948   1.093  54.410  0.00  0.00    +0.000 C 
ENDBRANCH   4  15
ENDBRANCH   1   9
BRANCH   1  17
ATOM     17  N   UNL     1      21.595   0.933  50.804  0.00  0.00    +0.000 N 
ATOM     18  C   UNL     1      20.248   0.601  51.079  0.00  0.00    +0.000 A 
ATOM     19  N   UNL     1      19.438   0.794  50.024  0.00  0.00    +0.000 NA
ATOM     20  C   UNL     1      18.143   0.436  50.221  0.00  0.00    +0.000 A 
ATOM     21  C   UNL     1      17.677  -0.109  51.408  0.00  0.00    +0.000 A 
ATOM     22 BR   UNL     1      15.845  -0.564  51.581  0.00  0.00    +0.000 Br
ATOM     23  N   UNL     1      18.495  -0.325  52.467  0.00  0.00    +0.000 NA
ATOM     24  C   UNL     1      19.783   0.046  52.275  0.00  0.00    +0.000 A 
ATOM     25  H   UNL     1      22.140   0.356  50.219  0.00  0.00    +0.000 HD
BRANCH  24  26
ATOM     26  O   UNL     1      20.603  -0.209  53.338  0.00  0.00    +0.000 OA
ATOM     27  H   UNL     1      21.526  -0.069  53.262  0.00  0.00    +0.000 HD
ENDBRANCH  24  26
ENDBRANCH   1  17
TORSDOF 4
ENDMDL
MODEL 9
REMARK VINA RESULT:    -7.580      3.489      6.904
REMARK INTER + INTRA:          -9.445
REMARK INTER:                  -9.035
REMARK INTRA:                  -0.410
REMARK UNBOUND:                -0.314
REMARK  Name = 
REMARK  6 active torsions:
REMARK  status: ('A' for Active; 'I' for Inactive)
REMARK    1  A    between atoms: C_1  and  N_2
REMARK    2  A    between atoms: N_2  and  C_3
REMARK    3  A    between atoms: N_2  and  C_4
REMARK    4  A    between atoms: C_9  and  S_10
REMARK    5  A    between atoms: S_10  and  N_13
REMARK    6  A    between atoms: C_20  and  O_21
REMARK                            x       y       z     vdW  Elec       q    Type
REMARK                         _______ _______ _______ _____ _____    ______ ____
ROOT
ATOM      1  S   UNL     1      20.648   2.530  51.861  0.00  0.00    +0.000 S 
ATOM      2  O   UNL     1      19.336   1.930  51.721  0.00  0.00    +0.000 OA
ATOM      3  O   UNL     1      20.776   3.771  52.594  0.00  0.00    +0.000 OA
ENDROOT
BRANCH   1   9
ATOM      4  C   UNL     1      25.381   0.696  53.455  0.00  0.00    +0.000 A 
ATOM      5  C   UNL     1      25.832   2.025  53.318  0.00  0.00    +0.000 A 
ATOM      6  C   UNL     1      24.957   3.085  53.158  0.00  0.00    +0.000 A 
ATOM      7  C   UNL     1      23.612   2.834  52.983  0.00  0.00    +0.000 A 
ATOM      8  C   UNL     1      23.099   1.528  52.895  0.00  0.00    +0.000 A 
ATOM      9  C   UNL     1      21.749   1.262  52.524  0.00  0.00    +0.000 A 
ATOM     10  C   UNL     1      21.217  -0.024  52.686  0.00  0.00    +0.000 A 
ATOM     11  C   UNL     1      22.014  -1.050  53.180  0.00  0.00    +0.000 A 
ATOM     12  C   UNL     1      23.372  -0.814  53.438  0.00  0.00    +0.000 A 
ATOM     13  C   UNL     1      23.974   0.449  53.244  0.00  0.00    +0.000 A 
BRANCH   4  15
ATOM     14  C   UNL     1      27.249   0.087  54.925  0.00  0.00    +0.000 C 
ATOM     15  N   UNL     1      26.299  -0.301  53.874  0.00  0.00    +0.000 N 
ATOM     16  C   UNL     1      26.850  -1.212  52.867  0.00  0.00    +0.000 C 
ENDBRANCH   4  15
ENDBRANCH   1   9
BRANCH   1  17
ATOM     17  N   UNL     1      21.129   2.829  50.284  0.00  0.00    +0.000 N 
ATOM     18  C   UNL     1      22.286   3.607  50.045  0.00  0.00    +0.000 A 
ATOM     19  N   UNL     1      23.322   2.875  49.597  0.00  0.00    +0.000 NA
ATOM     20  C   UNL     1      24.440   3.585  49.299  0.00  0.00    +0.000 A 
ATOM     21  C   UNL     1      24.521   4.964  49.422  0.00  0.00    +0.000 A 
ATOM     22 BR   UNL     1      26.136   5.857  48.990  0.00  0.00    +0.000 Br
ATOM     23  N   UNL     1      23.473   5.707  49.854  0.00  0.00    +0.000 NA
ATOM     24  C   UNL     1      22.362   4.997  50.165  0.00  0.00    +0.000 A 
ATOM     25  H   UNL     1      20.609   2.468  49.529  0.00  0.00    +0.000 HD
BRANCH  24  26
ATOM     26  O   UNL     1      21.303   5.762  50.567  0.00  0.00    +0.000 OA
ATOM     27  H   UNL     1      21.434   6.659  50.801  0.00  0.00    +0.000 HD
ENDBRANCH  24  26
ENDBRANCH   1  17
TORSDOF 4
ENDMDL
