MODEL 1
REMARK VINA RESULT:    -8.825      0.000      0.000
REMARK INTER + INTRA:         -10.472
REMARK INTER:                 -10.115
REMARK INTRA:                  -0.357
REMARK UNBOUND:                -0.357
REMARK  Name = 
REMARK  7 active torsions:
REMARK  status: ('A' for Active; 'I' for Inactive)
REMARK    1  A    between atoms: C_1  and  C_2
REMARK    2  A    between atoms: C_2  and  C_3
REMARK    3  A    between atoms: C_3  and  C_4
REMARK    4  A    between atoms: C_16  and  C_17
REMARK    5  A    between atoms: C_16  and  C_18
REMARK    6  A    between atoms: C_23  and  C_24
REMARK    7  A    between atoms: C_25  and  O_26
REMARK                            x       y       z     vdW  Elec       q    Type
REMARK                         _______ _______ _______ _____ _____    ______ ____
ROOT
ATOM      1  C   UNL     1      22.348   0.724  53.055  0.00  0.00    +0.000 A 
ATOM      2  C   UNL     1      21.100   1.193  52.824  0.00  0.00    +0.000 A 
ATOM      3  C   UNL     1      20.788   2.577  52.493  0.00  0.00    +0.000 A 
ATOM      4  O   UNL     1      19.638   2.989  52.390  0.00  0.00    +0.000 OA
ATOM      5  O   UNL     1      21.869   3.378  52.277  0.00  0.00    +0.000 OA
ATOM      6  C   UNL     1      23.086   2.729  52.074  0.00  0.00    +0.000 A 
ATOM      7  C   UNL     1      23.834   3.243  51.048  0.00  0.00    +0.000 A 
ATOM      8  C   UNL     1      25.207   3.133  51.117  0.00  0.00    +0.000 A 
ATOM      9  C   UNL     1      25.762   2.304  52.100  0.00  0.00    +0.000 A 
ATOM     10  C   UNL     1      24.917   1.442  52.860  0.00  0.00    +0.000 A 
ATOM     11  C   UNL     1      23.508   1.622  52.793  0.00  0.00    +0.000 A 
ATOM     12  O   UNL     1      25.456   0.482  53.696  0.00  0.00    +0.000 OA
ATOM     13  C   UNL     1      26.898   0.240  53.646  0.00  0.00    +0.000 C 
ATOM     14  C   UNL     1      27.403  -0.013  55.075  0.00  0.00    +0.000 C 
ATOM     15  C   UNL     1      27.154  -1.004  52.788  0.00  0.00    +0.000 C 
ATOM     16  C   UNL     1      27.727   1.355  53.073  0.00  0.00    +0.000 C 
ATOM     17  C   UNL     1      27.202   2.321  52.321  0.00  0.00    +0.000 C 
ATOM     18  O   UNL     1      26.001   3.870  50.276  0.00  0.00    +0.000 OA
ATOM     19  C   UNL     1      25.368   4.440  49.116  0.00  0.00    +0.000 C 
ATOM     20  C   UNL     1      23.901   4.874  49.268  0.00  0.00    +0.000 C 
ATOM     21  C   UNL     1      23.701   6.079  50.191  0.00  0.00    +0.000 C 
ATOM     22  C   UNL     1      23.138   3.706  49.822  0.00  0.00    +0.000 C 
ENDROOT
BRANCH  22  23
ATOM     23  O   UNL     1      23.148   2.596  48.919  0.00  0.00    +0.000 OA
ATOM     24  H   UNL     1      23.655   2.828  48.126  0.00  0.00    +0.000 HD
ENDBRANCH  22  23
BRANCH   1  25
ATOM     25  C   UNL     1      22.476  -0.765  53.176  0.00  0.00    +0.000 C 
BRANCH  25  27
ATOM     26  C   UNL     1      23.155  -1.434  55.498  0.00  0.00    +0.000 C 
ATOM     27  C   UNL     1      21.992  -1.291  54.522  0.00  0.00    +0.000 C 
ENDBRANCH  25  27
ENDBRANCH   1  25
TORSDOF 3
ENDMDL
MODEL 2
REMARK VINA RESULT:    -8.532      1.644      4.983
REMARK INTER + INTRA:         -10.136
REMARK INTER:                  -9.856
REMARK INTRA:                  -0.281
REMARK UNBOUND:                -0.357
REMARK  Name = 
REMARK  7 active torsions:
REMARK  status: ('A' for Active; 'I' for Inactive)
REMARK    1  A    between atoms: C_1  and  C_2
REMARK    2  A    between atoms: C_2  and  C_3
REMARK    3  A    between atoms: C_3  and  C_4
REMARK    4  A    between atoms: C_16  and  C_17
REMARK    5  A    between atoms: C_16  and  C_18
REMARK    6  A    between atoms: C_23  and  C_24
REMARK    7  A    between atoms: C_25  and  O_26
REMARK                            x       y       z     vdW  Elec       q    Type
REMARK                         _______ _______ _______ _____ _____    ______ ____
ROOT
ATOM      1  C   UNL     1      24.292   3.187  49.891  0.00  0.00    +0.000 A 
ATOM      2  C   UNL     1      23.419   3.671  48.978  0.00  0.00    +0.000 A 
ATOM      3  C   UNL     1      22.144   3.048  48.648  0.00  0.00    +0.000 A 
ATOM      4  O   UNL     1      21.423   3.456  47.743  0.00  0.00    +0.000 OA
ATOM      5  O   UNL     1      21.794   1.993  49.435  0.00  0.00    +0.000 OA
ATOM      6  C   UNL     1      22.503   1.852  50.627  0.00  0.00    +0.000 A 
ATOM      7  C   UNL     1      21.724   1.556  51.715  0.00  0.00    +0.000 A 
ATOM      8  C   UNL     1      22.284   0.831  52.746  0.00  0.00    +0.000 A 
ATOM      9  C   UNL     1      23.671   0.635  52.747  0.00  0.00    +0.000 A 
ATOM     10  C   UNL     1      24.489   1.347  51.821  0.00  0.00    +0.000 A 
ATOM     11  C   UNL     1      23.870   2.043  50.748  0.00  0.00    +0.000 A 
ATOM     12  O   UNL     1      25.866   1.317  51.929  0.00  0.00    +0.000 OA
ATOM     13  C   UNL     1      26.464   0.700  53.114  0.00  0.00    +0.000 C 
ATOM     14  C   UNL     1      27.721  -0.073  52.684  0.00  0.00    +0.000 C 
ATOM     15  C   UNL     1      26.857   1.809  54.095  0.00  0.00    +0.000 C 
ATOM     16  C   UNL     1      25.584  -0.265  53.860  0.00  0.00    +0.000 C 
ATOM     17  C   UNL     1      24.261  -0.286  53.711  0.00  0.00    +0.000 C 
ATOM     18  O   UNL     1      21.483   0.271  53.708  0.00  0.00    +0.000 OA
ATOM     19  C   UNL     1      20.138   0.772  53.809  0.00  0.00    +0.000 C 
ATOM     20  C   UNL     1      19.466   1.224  52.503  0.00  0.00    +0.000 C 
ATOM     21  C   UNL     1      19.158   0.081  51.533  0.00  0.00    +0.000 C 
ATOM     22  C   UNL     1      20.391   2.196  51.830  0.00  0.00    +0.000 C 
ENDROOT
BRANCH  22  23
ATOM     23  O   UNL     1      20.584   3.372  52.623  0.00  0.00    +0.000 OA
ATOM     24  H   UNL     1      21.532   3.514  52.767  0.00  0.00    +0.000 HD
ENDBRANCH  22  23
BRANCH   1  25
ATOM     25  C   UNL     1      25.446   4.082  50.231  0.00  0.00    +0.000 C 
BRANCH  25  27
ATOM     26  C   UNL     1      27.286   4.906  48.735  0.00  0.00    +0.000 C 
ATOM     27  C   UNL     1      26.723   3.706  49.488  0.00  0.00    +0.000 C 
ENDBRANCH  25  27
ENDBRANCH   1  25
TORSDOF 3
ENDMDL
MODEL 3
REMARK VINA RESULT:    -8.478      1.451      5.229
REMARK INTER + INTRA:         -10.074
REMARK INTER:                  -9.678
REMARK INTRA:                  -0.396
REMARK UNBOUND:                -0.357
REMARK  Name = 
REMARK  7 active torsions:
REMARK  status: ('A' for Active; 'I' for Inactive)
REMARK    1  A    between atoms: C_1  and  C_2
REMARK    2  A    between atoms: C_2  and  C_3
REMARK    3  A    between atoms: C_3  and  C_4
REMARK    4  A    between atoms: C_16  and  C_17
REMARK    5  A    between atoms: C_16  and  C_18
REMARK    6  A    between atoms: C_23  and  C_24
REMARK    7  A    between atoms: C_25  and  O_26
REMARK                            x       y       z     vdW  Elec       q    Type
REMARK                         _______ _______ _______ _____ _____    ______ ____
ROOT
ATOM      1  C   UNL     1      22.097   1.304  52.915  0.00  0.00    +0.000 A 
ATOM      2  C   UNL     1      21.851   0.282  53.767  0.00  0.00    +0.000 A 
ATOM      3  C   UNL     1      22.719  -0.876  53.936  0.00  0.00    +0.000 A 
ATOM      4  O   UNL     1      22.416  -1.832  54.642  0.00  0.00    +0.000 OA
ATOM      5  O   UNL     1      23.908  -0.810  53.275  0.00  0.00    +0.000 OA
ATOM      6  C   UNL     1      24.284   0.449  52.808  0.00  0.00    +0.000 A 
ATOM      7  C   UNL     1      25.601   0.760  53.025  0.00  0.00    +0.000 A 
ATOM      8  C   UNL     1      26.225   1.621  52.148  0.00  0.00    +0.000 A 
ATOM      9  C   UNL     1      25.438   2.318  51.222  0.00  0.00    +0.000 A 
ATOM     10  C   UNL     1      24.017   2.289  51.336  0.00  0.00    +0.000 A 
ATOM     11  C   UNL     1      23.414   1.354  52.220  0.00  0.00    +0.000 A 
ATOM     12  O   UNL     1      23.231   3.118  50.558  0.00  0.00    +0.000 OA
ATOM     13  C   UNL     1      23.882   4.153  49.755  0.00  0.00    +0.000 C 
ATOM     14  C   UNL     1      23.155   4.257  48.405  0.00  0.00    +0.000 C 
ATOM     15  C   UNL     1      23.772   5.488  50.498  0.00  0.00    +0.000 C 
ATOM     16  C   UNL     1      25.339   3.926  49.458  0.00  0.00    +0.000 C 
ATOM     17  C   UNL     1      26.087   3.079  50.162  0.00  0.00    +0.000 C 
ATOM     18  O   UNL     1      27.592   1.738  52.152  0.00  0.00    +0.000 OA
ATOM     19  C   UNL     1      28.284   1.243  53.313  0.00  0.00    +0.000 C 
ATOM     20  C   UNL     1      27.674   0.019  54.015  0.00  0.00    +0.000 C 
ATOM     21  C   UNL     1      27.753  -1.272  53.196  0.00  0.00    +0.000 C 
ATOM     22  C   UNL     1      26.233   0.329  54.296  0.00  0.00    +0.000 C 
ENDROOT
BRANCH  22  23
ATOM     23  O   UNL     1      26.099   1.431  55.199  0.00  0.00    +0.000 OA
ATOM     24  H   UNL     1      25.737   1.118  56.042  0.00  0.00    +0.000 HD
ENDBRANCH  22  23
BRANCH   1  25
ATOM     25  C   UNL     1      21.192   2.493  53.040  0.00  0.00    +0.000 C 
BRANCH  25  27
ATOM     26  C   UNL     1      19.917   3.828  51.339  0.00  0.00    +0.000 C 
ATOM     27  C   UNL     1      20.052   2.475  52.028  0.00  0.00    +0.000 C 
ENDBRANCH  25  27
ENDBRANCH   1  25
TORSDOF 3
ENDMDL
MODEL 4
REMARK VINA RESULT:    -7.937      2.019      5.239
REMARK INTER + INTRA:          -9.454
REMARK INTER:                  -9.233
REMARK INTRA:                  -0.220
REMARK UNBOUND:                -0.357
REMARK  Name = 
REMARK  7 active torsions:
REMARK  status: ('A' for Active; 'I' for Inactive)
REMARK    1  A    between atoms: C_1  and  C_2
REMARK    2  A    between atoms: C_2  and  C_3
REMARK    3  A    between atoms: C_3  and  C_4
REMARK    4  A    between atoms: C_16  and  C_17
REMARK    5  A    between atoms: C_16  and  C_18
REMARK    6  A    between atoms: C_23  and  C_24
REMARK    7  A    between atoms: C_25  and  O_26
REMARK                            x       y       z     vdW  Elec       q    Type
REMARK                         _______ _______ _______ _____ _____    ______ ____
ROOT
ATOM      1  C   UNL     1      25.157   2.350  51.006  0.00  0.00    +0.000 A 
ATOM      2  C   UNL     1      26.295   2.869  50.491  0.00  0.00    +0.000 A 
ATOM      3  C   UNL     1      26.340   3.951  49.517  0.00  0.00    +0.000 A 
ATOM      4  O   UNL     1      27.383   4.329  48.995  0.00  0.00    +0.000 OA
ATOM      5  O   UNL     1      25.139   4.535  49.245  0.00  0.00    +0.000 OA
ATOM      6  C   UNL     1      24.107   4.267  50.144  0.00  0.00    +0.000 A 
ATOM      7  C   UNL     1      23.361   5.364  50.488  0.00  0.00    +0.000 A 
ATOM      8  C   UNL     1      22.041   5.177  50.840  0.00  0.00    +0.000 A 
ATOM      9  C   UNL     1      21.587   3.870  51.057  0.00  0.00    +0.000 A 
ATOM     10  C   UNL     1      22.523   2.795  51.117  0.00  0.00    +0.000 A 
ATOM     11  C   UNL     1      23.863   3.023  50.703  0.00  0.00    +0.000 A 
ATOM     12  O   UNL     1      22.123   1.534  51.519  0.00  0.00    +0.000 OA
ATOM     13  C   UNL     1      20.774   1.364  52.058  0.00  0.00    +0.000 C 
ATOM     14  C   UNL     1      20.209   0.027  51.554  0.00  0.00    +0.000 C 
ATOM     15  C   UNL     1      20.861   1.337  53.588  0.00  0.00    +0.000 C 
ATOM     16  C   UNL     1      19.785   2.434  51.687  0.00  0.00    +0.000 C 
ATOM     17  C   UNL     1      20.161   3.629  51.236  0.00  0.00    +0.000 C 
ATOM     18  O   UNL     1      21.188   6.249  50.912  0.00  0.00    +0.000 OA
ATOM     19  C   UNL     1      21.789   7.554  50.983  0.00  0.00    +0.000 C 
ATOM     20  C   UNL     1      23.114   7.752  50.229  0.00  0.00    +0.000 C 
ATOM     21  C   UNL     1      22.975   7.702  48.706  0.00  0.00    +0.000 C 
ATOM     22  C   UNL     1      24.051   6.665  50.668  0.00  0.00    +0.000 C 
ENDROOT
BRANCH  22  23
ATOM     23  O   UNL     1      24.353   6.763  52.064  0.00  0.00    +0.000 OA
ATOM     24  H   UNL     1      23.604   6.431  52.582  0.00  0.00    +0.000 HD
ENDBRANCH  22  23
BRANCH   1  25
ATOM     25  C   UNL     1      25.333   1.387  52.143  0.00  0.00    +0.000 C 
BRANCH  25  27
ATOM     26  C   UNL     1      26.590  -0.754  52.515  0.00  0.00    +0.000 C 
ATOM     27  C   UNL     1      26.703   0.721  52.146  0.00  0.00    +0.000 C 
ENDBRANCH  25  27
ENDBRANCH   1  25
TORSDOF 3
ENDMDL
MODEL 5
REMARK VINA RESULT:    -7.749      1.535      4.633
REMARK INTER + INTRA:          -9.239
REMARK INTER:                  -8.873
REMARK INTRA:                  -0.366
REMARK UNBOUND:                -0.357
REMARK  Name = 
REMARK  7 active torsions:
REMARK  status: ('A' for Active; 'I' for Inactive)
REMARK    1  A    between atoms: C_1  and  C_2
REMARK    2  A    between atoms: C_2  and  C_3
REMARK    3  A    between atoms: C_3  and  C_4
REMARK    4  A    between atoms: C_16  and  C_17
REMARK    5  A    between atoms: C_16  and  C_18
REMARK    6  A    between atoms: C_23  and  C_24
REMARK    7  A    between atoms: C_25  and  O_26
REMARK                            x       y       z     vdW  Elec       q    Type
REMARK                         _______ _______ _______ _____ _____    ______ ____
ROOT
ATOM      1  C   UNL     1      25.798   1.783  51.842  0.00  0.00    +0.000 A 
ATOM      2  C   UNL     1      26.665   2.559  51.151  0.00  0.00    +0.000 A 
ATOM      3  C   UNL     1      26.315   3.333  49.968  0.00  0.00    +0.000 A 
ATOM      4  O   UNL     1      27.147   3.945  49.307  0.00  0.00    +0.000 OA
ATOM      5  O   UNL     1      24.988   3.353  49.661  0.00  0.00    +0.000 OA
ATOM      6  C   UNL     1      24.117   2.929  50.665  0.00  0.00    +0.000 A 
ATOM      7  C   UNL     1      23.007   3.718  50.818  0.00  0.00    +0.000 A 
ATOM      8  C   UNL     1      21.849   3.137  51.291  0.00  0.00    +0.000 A 
ATOM      9  C   UNL     1      21.918   1.839  51.813  0.00  0.00    +0.000 A 
ATOM     10  C   UNL     1      23.189   1.232  52.037  0.00  0.00    +0.000 A 
ATOM     11  C   UNL     1      24.351   1.842  51.492  0.00  0.00    +0.000 A 
ATOM     12  O   UNL     1      23.288   0.037  52.725  0.00  0.00    +0.000 OA
ATOM     13  C   UNL     1      22.093  -0.497  53.379  0.00  0.00    +0.000 C 
ATOM     14  C   UNL     1      22.083  -2.024  53.211  0.00  0.00    +0.000 C 
ATOM     15  C   UNL     1      22.158  -0.148  54.870  0.00  0.00    +0.000 C 
ATOM     16  C   UNL     1      20.780   0.017  52.857  0.00  0.00    +0.000 C 
ATOM     17  C   UNL     1      20.686   1.133  52.137  0.00  0.00    +0.000 C 
ATOM     18  O   UNL     1      20.654   3.803  51.192  0.00  0.00    +0.000 OA
ATOM     19  C   UNL     1      20.717   5.219  50.942  0.00  0.00    +0.000 C 
ATOM     20  C   UNL     1      21.882   5.720  50.074  0.00  0.00    +0.000 C 
ATOM     21  C   UNL     1      21.799   5.283  48.609  0.00  0.00    +0.000 C 
ATOM     22  C   UNL     1      23.152   5.187  50.669  0.00  0.00    +0.000 C 
ENDROOT
BRANCH  22  23
ATOM     23  O   UNL     1      23.371   5.699  51.987  0.00  0.00    +0.000 OA
ATOM     24  H   UNL     1      23.330   4.972  52.628  0.00  0.00    +0.000 HD
ENDBRANCH  22  23
BRANCH   1  25
ATOM     25  C   UNL     1      26.304   1.235  53.143  0.00  0.00    +0.000 C 
BRANCH  25  27
ATOM     26  C   UNL     1      26.603  -1.190  52.569  0.00  0.00    +0.000 C 
ATOM     27  C   UNL     1      27.309   0.104  52.956  0.00  0.00    +0.000 C 
ENDBRANCH  25  27
ENDBRANCH   1  25
TORSDOF 3
ENDMDL
MODEL 6
REMARK VINA RESULT:    -7.716      1.771      6.295
REMARK INTER + INTRA:          -9.201
REMARK INTER:                  -8.818
REMARK INTRA:                  -0.383
REMARK UNBOUND:                -0.357
REMARK  Name = 
REMARK  7 active torsions:
REMARK  status: ('A' for Active; 'I' for Inactive)
REMARK    1  A    between atoms: C_1  and  C_2
REMARK    2  A    between atoms: C_2  and  C_3
REMARK    3  A    between atoms: C_3  and  C_4
REMARK    4  A    between atoms: C_16  and  C_17
REMARK    5  A    between atoms: C_16  and  C_18
REMARK    6  A    between atoms: C_23  and  C_24
REMARK    7  A    between atoms: C_25  and  O_26
REMARK                            x       y       z     vdW  Elec       q    Type
REMARK                         _______ _______ _______ _____ _____    ______ ____
ROOT
ATOM      1  C   UNL     1      25.607   2.530  50.925  0.00  0.00    +0.000 A 
ATOM      2  C   UNL     1      26.148   1.370  51.364  0.00  0.00    +0.000 A 
ATOM      3  C   UNL     1      25.660   0.615  52.509  0.00  0.00    +0.000 A 
ATOM      4  O   UNL     1      26.235  -0.378  52.941  0.00  0.00    +0.000 OA
ATOM      5  O   UNL     1      24.499   1.075  53.053  0.00  0.00    +0.000 OA
ATOM      6  C   UNL     1      23.765   1.970  52.275  0.00  0.00    +0.000 A 
ATOM      7  C   UNL     1      22.417   1.726  52.254  0.00  0.00    +0.000 A 
ATOM      8  C   UNL     1      21.561   2.789  52.063  0.00  0.00    +0.000 A 
ATOM      9  C   UNL     1      22.101   4.020  51.668  0.00  0.00    +0.000 A 
ATOM     10  C   UNL     1      23.469   4.099  51.273  0.00  0.00    +0.000 A 
ATOM     11  C   UNL     1      24.327   2.996  51.530  0.00  0.00    +0.000 A 
ATOM     12  O   UNL     1      23.972   5.252  50.700  0.00  0.00    +0.000 OA
ATOM     13  C   UNL     1      23.039   6.318  50.334  0.00  0.00    +0.000 C 
ATOM     14  C   UNL     1      23.693   7.673  50.650  0.00  0.00    +0.000 C 
ATOM     15  C   UNL     1      22.759   6.226  48.830  0.00  0.00    +0.000 C 
ATOM     16  C   UNL     1      21.711   6.291  51.038  0.00  0.00    +0.000 C 
ATOM     17  C   UNL     1      21.249   5.202  51.650  0.00  0.00    +0.000 C 
ATOM     18  O   UNL     1      20.220   2.648  52.316  0.00  0.00    +0.000 OA
ATOM     19  C   UNL     1      19.713   1.305  52.410  0.00  0.00    +0.000 C 
ATOM     20  C   UNL     1      20.660   0.244  52.993  0.00  0.00    +0.000 C 
ATOM     21  C   UNL     1      20.957   0.428  54.484  0.00  0.00    +0.000 C 
ATOM     22  C   UNL     1      21.950   0.318  52.229  0.00  0.00    +0.000 C 
ENDROOT
BRANCH  22  23
ATOM     23  O   UNL     1      21.762  -0.011  50.849  0.00  0.00    +0.000 OA
ATOM     24  H   UNL     1      20.822  -0.180  50.681  0.00  0.00    +0.000 HD
ENDBRANCH  22  23
BRANCH   1  25
ATOM     25  C   UNL     1      26.125   3.040  49.613  0.00  0.00    +0.000 C 
BRANCH  25  27
ATOM     26  C   UNL     1      26.790   5.300  48.746  0.00  0.00    +0.000 C 
ATOM     27  C   UNL     1      27.084   4.213  49.774  0.00  0.00    +0.000 C 
ENDBRANCH  25  27
ENDBRANCH   1  25
TORSDOF 3
ENDMDL
MODEL 7
REMARK VINA RESULT:    -7.239      1.626      6.038
REMARK INTER + INTRA:          -8.654
REMARK INTER:                  -8.279
REMARK INTRA:                  -0.375
REMARK UNBOUND:                -0.357
REMARK  Name = 
REMARK  7 active torsions:
REMARK  status: ('A' for Active; 'I' for Inactive)
REMARK    1  A    between atoms: C_1  and  C_2
REMARK    2  A    between atoms: C_2  and  C_3
REMARK    3  A    between atoms: C_3  and  C_4
REMARK    4  A    between atoms: C_16  and  C_17
REMARK    5  A    between atoms: C_16  and  C_18
REMARK    6  A    between atoms: C_23  and  C_24
REMARK    7  A    between atoms: C_25  and  O_26
REMARK                            x       y       z     vdW  Elec       q    Type
REMARK                         _______ _______ _______ _____ _____    ______ ____
ROOT
ATOM      1  C   UNL     1      23.853   3.001  49.509  0.00  0.00    +0.000 A 
ATOM      2  C   UNL     1      25.061   3.460  49.107  0.00  0.00    +0.000 A 
ATOM      3  C   UNL     1      26.198   3.668  49.993  0.00  0.00    +0.000 A 
ATOM      4  O   UNL     1      27.246   4.181  49.615  0.00  0.00    +0.000 OA
ATOM      5  O   UNL     1      26.026   3.227  51.271  0.00  0.00    +0.000 OA
ATOM      6  C   UNL     1      24.955   2.359  51.483  0.00  0.00    +0.000 A 
ATOM      7  C   UNL     1      25.250   1.285  52.281  0.00  0.00    +0.000 A 
ATOM      8  C   UNL     1      24.237   0.727  53.032  0.00  0.00    +0.000 A 
ATOM      9  C   UNL     1      22.918   1.122  52.773  0.00  0.00    +0.000 A 
ATOM     10  C   UNL     1      22.629   1.918  51.625  0.00  0.00    +0.000 A 
ATOM     11  C   UNL     1      23.703   2.511  50.908  0.00  0.00    +0.000 A 
ATOM     12  O   UNL     1      21.322   2.158  51.245  0.00  0.00    +0.000 OA
ATOM     13  C   UNL     1      20.249   1.432  51.925  0.00  0.00    +0.000 C 
ATOM     14  C   UNL     1      19.060   2.385  52.121  0.00  0.00    +0.000 C 
ATOM     15  C   UNL     1      19.820   0.256  51.042  0.00  0.00    +0.000 C 
ATOM     16  C   UNL     1      20.597   0.872  53.276  0.00  0.00    +0.000 C 
ATOM     17  C   UNL     1      21.855   0.699  53.675  0.00  0.00    +0.000 C 
ATOM     18  O   UNL     1      24.533  -0.149  54.045  0.00  0.00    +0.000 OA
ATOM     19  C   UNL     1      25.849  -0.731  54.039  0.00  0.00    +0.000 C 
ATOM     20  C   UNL     1      26.993   0.143  53.501  0.00  0.00    +0.000 C 
ATOM     21  C   UNL     1      27.331   1.341  54.392  0.00  0.00    +0.000 C 
ATOM     22  C   UNL     1      26.582   0.645  52.148  0.00  0.00    +0.000 C 
ENDROOT
BRANCH  22  23
ATOM     23  O   UNL     1      26.413  -0.430  51.218  0.00  0.00    +0.000 OA
ATOM     24  H   UNL     1      26.258  -1.256  51.702  0.00  0.00    +0.000 HD
ENDBRANCH  22  23
BRANCH   1  25
ATOM     25  C   UNL     1      22.885   2.662  48.414  0.00  0.00    +0.000 C 
BRANCH  25  27
ATOM     26  C   UNL     1      20.535   3.513  48.176  0.00  0.00    +0.000 C 
ATOM     27  C   UNL     1      22.014   3.846  48.010  0.00  0.00    +0.000 C 
ENDBRANCH  25  27
ENDBRANCH   1  25
TORSDOF 3
ENDMDL
MODEL 8
REMARK VINA RESULT:    -7.170      2.017      5.185
REMARK INTER + INTRA:          -8.576
REMARK INTER:                  -8.331
REMARK INTRA:                  -0.245
REMARK UNBOUND:                -0.357
REMARK  Name = 
REMARK  7 active torsions:
REMARK  status: ('A' for Active; 'I' for Inactive)
REMARK    1  A    between atoms: C_1  and  C_2
REMARK    2  A    between atoms: C_2  and  C_3
REMARK    3  A    between atoms: C_3  and  C_4
REMARK    4  A    between atoms: C_16  and  C_17
REMARK    5  A    between atoms: C_16  and  C_18
REMARK    6  A    between atoms: C_23  and  C_24
REMARK    7  A    between atoms: C_25  and  O_26
REMARK                            x       y       z     vdW  Elec       q    Type
REMARK                         _______ _______ _______ _____ _____    ______ ____
ROOT
ATOM      1  C   UNL     1      23.363   1.280  52.321  0.00  0.00    +0.000 A 
ATOM      2  C   UNL     1      24.695   1.278  52.560  0.00  0.00    +0.000 A 
ATOM      3  C   UNL     1      25.684   1.934  51.715  0.00  0.00    +0.000 A 
ATOM      4  O   UNL     1      26.891   1.826  51.905  0.00  0.00    +0.000 OA
ATOM      5  O   UNL     1      25.172   2.699  50.712  0.00  0.00    +0.000 OA
ATOM      6  C   UNL     1      23.820   3.026  50.814  0.00  0.00    +0.000 A 
ATOM      7  C   UNL     1      23.532   4.333  50.523  0.00  0.00    +0.000 A 
ATOM      8  C   UNL     1      22.287   4.633  50.011  0.00  0.00    +0.000 A 
ATOM      9  C   UNL     1      21.299   3.639  50.033  0.00  0.00    +0.000 A 
ATOM     10  C   UNL     1      21.525   2.431  50.757  0.00  0.00    +0.000 A 
ATOM     11  C   UNL     1      22.835   2.142  51.226  0.00  0.00    +0.000 A 
ATOM     12  O   UNL     1      20.500   1.525  50.952  0.00  0.00    +0.000 OA
ATOM     13  C   UNL     1      19.141   1.909  50.569  0.00  0.00    +0.000 C 
ATOM     14  C   UNL     1      18.439   0.686  49.958  0.00  0.00    +0.000 C 
ATOM     15  C   UNL     1      18.388   2.354  51.827  0.00  0.00    +0.000 C 
ATOM     16  C   UNL     1      19.038   3.026  49.568  0.00  0.00    +0.000 C 
ATOM     17  C   UNL     1      20.045   3.863  49.327  0.00  0.00    +0.000 C 
ATOM     18  O   UNL     1      22.052   5.859  49.443  0.00  0.00    +0.000 OA
ATOM     19  C   UNL     1      22.996   6.904  49.738  0.00  0.00    +0.000 C 
ATOM     20  C   UNL     1      24.461   6.483  49.934  0.00  0.00    +0.000 C 
ATOM     21  C   UNL     1      25.141   5.983  48.657  0.00  0.00    +0.000 C 
ATOM     22  C   UNL     1      24.483   5.385  50.958  0.00  0.00    +0.000 C 
ENDROOT
BRANCH  22  23
ATOM     23  O   UNL     1      24.012   5.843  52.229  0.00  0.00    +0.000 OA
ATOM     24  H   UNL     1      24.614   5.538  52.926  0.00  0.00    +0.000 HD
ENDBRANCH  22  23
BRANCH   1  25
ATOM     25  C   UNL     1      22.500   0.726  53.416  0.00  0.00    +0.000 C 
BRANCH  25  27
ATOM     26  C   UNL     1      22.037  -1.410  54.650  0.00  0.00    +0.000 C 
ATOM     27  C   UNL     1      22.271  -0.775  53.284  0.00  0.00    +0.000 C 
ENDBRANCH  25  27
ENDBRANCH   1  25
TORSDOF 3
ENDMDL
MODEL 9
REMARK VINA RESULT:    -7.037      2.015      5.674
REMARK INTER + INTRA:          -8.422
REMARK INTER:                  -8.113
REMARK INTRA:                  -0.309
REMARK UNBOUND:                -0.357
REMARK  Name = 
REMARK  7 active torsions:
REMARK  status: ('A' for Active; 'I' for Inactive)
REMARK    1  A    between atoms: C_1  and  C_2
REMARK    2  A    between atoms: C_2  and  C_3
REMARK    3  A    between atoms: C_3  and  C_4
REMARK    4  A    between atoms: C_16  and  C_17
REMARK    5  A    between atoms: C_16  and  C_18
REMARK    6  A    between atoms: C_23  and  C_24
REMARK    7  A    between atoms: C_25  and  O_26
REMARK                            x       y       z     vdW  Elec       q    Type
REMARK                         _______ _______ _______ _____ _____    ______ ____
ROOT
ATOM      1  C   UNL     1      21.707   3.635  50.812  0.00  0.00    +0.000 A 
ATOM      2  C   UNL     1      21.075   2.576  51.368  0.00  0.00    +0.000 A 
ATOM      3  C   UNL     1      21.647   1.241  51.479  0.00  0.00    +0.000 A 
ATOM      4  O   UNL     1      21.008   0.280  51.896  0.00  0.00    +0.000 OA
ATOM      5  O   UNL     1      22.954   1.139  51.112  0.00  0.00    +0.000 OA
ATOM      6  C   UNL     1      23.658   2.338  51.001  0.00  0.00    +0.000 A 
ATOM      7  C   UNL     1      24.913   2.308  51.552  0.00  0.00    +0.000 A 
ATOM      8  C   UNL     1      25.883   3.132  51.020  0.00  0.00    +0.000 A 
ATOM      9  C   UNL     1      25.492   4.122  50.109  0.00  0.00    +0.000 A 
ATOM     10  C   UNL     1      24.107   4.395  49.910  0.00  0.00    +0.000 A 
ATOM     11  C   UNL     1      23.143   3.495  50.438  0.00  0.00    +0.000 A 
ATOM     12  O   UNL     1      23.704   5.489  49.167  0.00  0.00    +0.000 OA
ATOM     13  C   UNL     1      24.712   6.462  48.747  0.00  0.00    +0.000 C 
ATOM     14  C   UNL     1      24.377   6.934  47.323  0.00  0.00    +0.000 C 
ATOM     15  C   UNL     1      24.665   7.657  49.705  0.00  0.00    +0.000 C 
ATOM     16  C   UNL     1      26.131   5.963  48.727  0.00  0.00    +0.000 C 
ATOM     17  C   UNL     1      26.512   4.872  49.388  0.00  0.00    +0.000 C 
ATOM     18  O   UNL     1      27.202   2.936  51.338  0.00  0.00    +0.000 OA
ATOM     19  C   UNL     1      27.480   2.126  52.494  0.00  0.00    +0.000 C 
ATOM     20  C   UNL     1      26.503   0.977  52.788  0.00  0.00    +0.000 C 
ATOM     21  C   UNL     1      26.547  -0.156  51.761  0.00  0.00    +0.000 C 
ATOM     22  C   UNL     1      25.118   1.556  52.813  0.00  0.00    +0.000 C 
ENDROOT
BRANCH  22  23
ATOM     23  O   UNL     1      24.965   2.508  53.871  0.00  0.00    +0.000 OA
ATOM     24  H   UNL     1      25.741   2.474  54.452  0.00  0.00    +0.000 HD
ENDBRANCH  22  23
BRANCH   1  25
ATOM     25  C   UNL     1      21.031   4.963  50.980  0.00  0.00    +0.000 C 
BRANCH  25  27
ATOM     26  C   UNL     1      20.120   6.925  49.705  0.00  0.00    +0.000 C 
ATOM     27  C   UNL     1      20.288   5.409  49.727  0.00  0.00    +0.000 C 
ENDBRANCH  25  27
ENDBRANCH   1  25
TORSDOF 3
ENDMDL
