MODEL 1
REMARK VINA RESULT:    -9.982      0.000      0.000
REMARK INTER + INTRA:         -14.177
REMARK INTER:                 -12.899
REMARK INTRA:                  -1.277
REMARK UNBOUND:                -1.277
REMARK  Name = 
REMARK  6 active torsions:
REMARK  status: ('A' for Active; 'I' for Inactive)
REMARK    1  A    between atoms: C_1  and  N_2
REMARK    2  A    between atoms: N_2  and  C_3
REMARK    3  A    between atoms: N_2  and  C_19
REMARK    4  A    between atoms: C_3  and  C_4
REMARK    5  A    between atoms: C_7  and  S_8
REMARK    6  A    between atoms: S_8  and  C_11
REMARK                            x       y       z     vdW  Elec       q    Type
REMARK                         _______ _______ _______ _____ _____    ______ ____
ROOT
ATOM      1  C   UNL     1      21.383   0.934  49.021  0.00  0.00    +0.000 C 
ATOM      2  N   UNL     1      20.292   1.208  49.955  0.00  0.00    +0.000 N 
ENDROOT
BRANCH   2   3
ATOM      3  C   UNL     1      20.353   0.684  51.260  0.00  0.00    +0.000 A 
ATOM      4  C   UNL     1      19.214   0.108  51.897  0.00  0.00    +0.000 A 
ATOM      5  C   UNL     1      19.273  -0.621  53.112  0.00  0.00    +0.000 A 
ATOM      6  C   UNL     1      20.532  -0.819  53.661  0.00  0.00    +0.000 A 
ATOM      7  C   UNL     1      21.606  -0.181  53.070  0.00  0.00    +0.000 A 
ATOM      8  C   UNL     1      22.721  -0.530  53.793  0.00  0.00    +0.000 A 
ATOM      9  C   UNL     1      23.970  -0.041  53.436  0.00  0.00    +0.000 A 
ATOM     10  C   UNL     1      23.970   0.990  52.486  0.00  0.00    +0.000 A 
ATOM     11  C   UNL     1      22.790   1.365  51.818  0.00  0.00    +0.000 A 
ATOM     12  C   UNL     1      21.576   0.652  52.000  0.00  0.00    +0.000 A 
ATOM     13  C   UNL     1      22.204  -1.369  54.830  0.00  0.00    +0.000 C 
ATOM     14  N   UNL     1      23.081  -1.799  55.770  0.00  0.00    +0.000 N 
ATOM     15  N   UNL     1      20.907  -1.548  54.780  0.00  0.00    +0.000 N 
ATOM     16  H   UNL     1      24.040  -1.590  55.682  0.00  0.00    +0.000 HD
ATOM     17  H   UNL     1      22.761  -2.321  56.541  0.00  0.00    +0.000 HD
ATOM     18  H   UNL     1      20.337  -2.073  55.389  0.00  0.00    +0.000 HD
ENDBRANCH   2   3
BRANCH   2  19
ATOM     19  C   UNL     1      19.616   2.503  49.740  0.00  0.00    +0.000 C 
BRANCH  19  20
ATOM     20  C   UNL     1      20.486   3.734  49.898  0.00  0.00    +0.000 A 
ATOM     21  C   UNL     1      20.777   4.216  51.185  0.00  0.00    +0.000 A 
ATOM     22  C   UNL     1      21.762   5.182  51.377  0.00  0.00    +0.000 A 
ATOM     23  C   UNL     1      22.463   5.683  50.279  0.00  0.00    +0.000 A 
ATOM     24  C   UNL     1      22.144   5.266  48.983  0.00  0.00    +0.000 A 
ATOM     25  C   UNL     1      21.146   4.302  48.795  0.00  0.00    +0.000 A 
BRANCH  23  26
ATOM     26  S   UNL     1      23.908   6.685  50.562  0.00  0.00    +0.000 S 
ATOM     27  O   UNL     1      23.753   7.884  49.753  0.00  0.00    +0.000 OA
ATOM     28  O   UNL     1      24.075   6.806  52.000  0.00  0.00    +0.000 OA
BRANCH  26  29
ATOM     29  C   UNL     1      25.319   5.806  49.937  0.00  0.00    +0.000 A 
ATOM     30  C   UNL     1      25.426   4.428  50.160  0.00  0.00    +0.000 A 
ATOM     31  C   UNL     1      26.481   3.720  49.586  0.00  0.00    +0.000 A 
ATOM     32  C   UNL     1      27.416   4.379  48.790  0.00  0.00    +0.000 A 
ATOM     33  C   UNL     1      27.302   5.755  48.563  0.00  0.00    +0.000 A 
ATOM     34  C   UNL     1      26.243   6.467  49.133  0.00  0.00    +0.000 A 
ENDBRANCH  26  29
ENDBRANCH  23  26
ENDBRANCH  19  20
ENDBRANCH   2  19
TORSDOF 5
ENDMDL
MODEL 2
REMARK VINA RESULT:    -9.668      2.515      3.981
REMARK INTER + INTRA:         -13.772
REMARK INTER:                 -12.368
REMARK INTRA:                  -1.404
REMARK UNBOUND:                -1.277
REMARK  Name = 
REMARK  6 active torsions:
REMARK  status: ('A' for Active; 'I' for Inactive)
REMARK    1  A    between atoms: C_1  and  N_2
REMARK    2  A    between atoms: N_2  and  C_3
REMARK    3  A    between atoms: N_2  and  C_19
REMARK    4  A    between atoms: C_3  and  C_4
REMARK    5  A    between atoms: C_7  and  S_8
REMARK    6  A    between atoms: S_8  and  C_11
REMARK                            x       y       z     vdW  Elec       q    Type
REMARK                         _______ _______ _______ _____ _____    ______ ____
ROOT
ATOM      1  C   UNL     1      22.065   0.914  50.490  0.00  0.00    +0.000 C 
ATOM      2  N   UNL     1      22.699   1.588  51.624  0.00  0.00    +0.000 N 
ENDROOT
BRANCH   2   3
ATOM      3  C   UNL     1      24.099   1.535  51.760  0.00  0.00    +0.000 A 
ATOM      4  C   UNL     1      24.970   2.273  50.904  0.00  0.00    +0.000 A 
ATOM      5  C   UNL     1      26.361   2.424  51.132  0.00  0.00    +0.000 A 
ATOM      6  C   UNL     1      26.868   1.858  52.293  0.00  0.00    +0.000 A 
ATOM      7  C   UNL     1      26.022   1.079  53.060  0.00  0.00    +0.000 A 
ATOM      8  C   UNL     1      26.754   0.639  54.136  0.00  0.00    +0.000 A 
ATOM      9  C   UNL     1      26.170  -0.173  55.097  0.00  0.00    +0.000 A 
ATOM     10  C   UNL     1      24.911  -0.695  54.768  0.00  0.00    +0.000 A 
ATOM     11  C   UNL     1      24.223  -0.268  53.617  0.00  0.00    +0.000 A 
ATOM     12  C   UNL     1      24.725   0.778  52.799  0.00  0.00    +0.000 A 
ATOM     13  C   UNL     1      28.055   1.189  53.908  0.00  0.00    +0.000 C 
ATOM     14  N   UNL     1      29.033   0.840  54.780  0.00  0.00    +0.000 N 
ATOM     15  N   UNL     1      28.152   1.908  52.817  0.00  0.00    +0.000 N 
ATOM     16  H   UNL     1      28.817   0.289  55.568  0.00  0.00    +0.000 HD
ATOM     17  H   UNL     1      29.959   1.137  54.627  0.00  0.00    +0.000 HD
ATOM     18  H   UNL     1      28.943   2.371  52.457  0.00  0.00    +0.000 HD
ENDBRANCH   2   3
BRANCH   2  19
ATOM     19  C   UNL     1      21.983   2.787  52.099  0.00  0.00    +0.000 C 
BRANCH  19  20
ATOM     20  C   UNL     1      22.400   4.099  51.465  0.00  0.00    +0.000 A 
ATOM     21  C   UNL     1      23.213   4.988  52.186  0.00  0.00    +0.000 A 
ATOM     22  C   UNL     1      23.815   6.075  51.554  0.00  0.00    +0.000 A 
ATOM     23  C   UNL     1      23.602   6.287  50.191  0.00  0.00    +0.000 A 
ATOM     24  C   UNL     1      22.745   5.451  49.469  0.00  0.00    +0.000 A 
ATOM     25  C   UNL     1      22.135   4.367  50.111  0.00  0.00    +0.000 A 
BRANCH  23  26
ATOM     26  S   UNL     1      24.602   7.488  49.339  0.00  0.00    +0.000 S 
ATOM     27  O   UNL     1      23.892   7.836  48.118  0.00  0.00    +0.000 OA
ATOM     28  O   UNL     1      24.938   8.528  50.295  0.00  0.00    +0.000 OA
BRANCH  26  29
ATOM     29  C   UNL     1      26.120   6.701  48.859  0.00  0.00    +0.000 A 
ATOM     30  C   UNL     1      27.197   7.486  48.428  0.00  0.00    +0.000 A 
ATOM     31  C   UNL     1      28.419   6.879  48.146  0.00  0.00    +0.000 A 
ATOM     32  C   UNL     1      28.569   5.502  48.300  0.00  0.00    +0.000 A 
ATOM     33  C   UNL     1      27.494   4.721  48.738  0.00  0.00    +0.000 A 
ATOM     34  C   UNL     1      26.268   5.327  49.027  0.00  0.00    +0.000 A 
ENDBRANCH  26  29
ENDBRANCH  23  26
ENDBRANCH  19  20
ENDBRANCH   2  19
TORSDOF 5
ENDMDL
MODEL 3
REMARK VINA RESULT:    -9.610      1.932      2.960
REMARK INTER + INTRA:         -13.697
REMARK INTER:                 -12.448
REMARK INTRA:                  -1.250
REMARK UNBOUND:                -1.277
REMARK  Name = 
REMARK  6 active torsions:
REMARK  status: ('A' for Active; 'I' for Inactive)
REMARK    1  A    between atoms: C_1  and  N_2
REMARK    2  A    between atoms: N_2  and  C_3
REMARK    3  A    between atoms: N_2  and  C_19
REMARK    4  A    between atoms: C_3  and  C_4
REMARK    5  A    between atoms: C_7  and  S_8
REMARK    6  A    between atoms: S_8  and  C_11
REMARK                            x       y       z     vdW  Elec       q    Type
REMARK                         _______ _______ _______ _____ _____    ______ ____
ROOT
ATOM      1  C   UNL     1      22.401   1.787  49.757  0.00  0.00    +0.000 C 
ATOM      2  N   UNL     1      22.066   1.867  51.178  0.00  0.00    +0.000 N 
ENDROOT
BRANCH   2   3
ATOM      3  C   UNL     1      22.901   1.234  52.119  0.00  0.00    +0.000 A 
ATOM      4  C   UNL     1      22.383   0.362  53.122  0.00  0.00    +0.000 A 
ATOM      5  C   UNL     1      23.192  -0.461  53.947  0.00  0.00    +0.000 A 
ATOM      6  C   UNL     1      24.558  -0.438  53.705  0.00  0.00    +0.000 A 
ATOM      7  C   UNL     1      25.040   0.476  52.787  0.00  0.00    +0.000 A 
ATOM      8  C   UNL     1      26.402   0.303  52.733  0.00  0.00    +0.000 A 
ATOM      9  C   UNL     1      27.175   1.085  51.887  0.00  0.00    +0.000 A 
ATOM     10  C   UNL     1      26.524   2.186  51.312  0.00  0.00    +0.000 A 
ATOM     11  C   UNL     1      25.135   2.365  51.451  0.00  0.00    +0.000 A 
ATOM     12  C   UNL     1      24.322   1.391  52.087  0.00  0.00    +0.000 A 
ATOM     13  C   UNL     1      26.650  -0.732  53.689  0.00  0.00    +0.000 C 
ATOM     14  N   UNL     1      27.945  -1.058  53.921  0.00  0.00    +0.000 N 
ATOM     15  N   UNL     1      25.574  -1.182  54.286  0.00  0.00    +0.000 N 
ATOM     16  H   UNL     1      28.662  -0.639  53.391  0.00  0.00    +0.000 HD
ATOM     17  H   UNL     1      28.171  -1.715  54.619  0.00  0.00    +0.000 HD
ATOM     18  H   UNL     1      25.505  -1.878  54.979  0.00  0.00    +0.000 HD
ENDBRANCH   2   3
BRANCH   2  19
ATOM     19  C   UNL     1      21.363   3.103  51.571  0.00  0.00    +0.000 C 
BRANCH  19  20
ATOM     20  C   UNL     1      22.009   4.400  51.124  0.00  0.00    +0.000 A 
ATOM     21  C   UNL     1      23.033   4.966  51.900  0.00  0.00    +0.000 A 
ATOM     22  C   UNL     1      23.812   6.008  51.401  0.00  0.00    +0.000 A 
ATOM     23  C   UNL     1      23.568   6.501  50.119  0.00  0.00    +0.000 A 
ATOM     24  C   UNL     1      22.511   5.996  49.354  0.00  0.00    +0.000 A 
ATOM     25  C   UNL     1      21.726   4.956  49.865  0.00  0.00    +0.000 A 
BRANCH  23  26
ATOM     26  S   UNL     1      24.746   7.615  49.384  0.00  0.00    +0.000 S 
ATOM     27  O   UNL     1      24.143   8.116  48.159  0.00  0.00    +0.000 OA
ATOM     28  O   UNL     1      25.158   8.551  50.416  0.00  0.00    +0.000 OA
BRANCH  26  29
ATOM     29  C   UNL     1      26.179   6.674  48.920  0.00  0.00    +0.000 A 
ATOM     30  C   UNL     1      27.343   7.343  48.520  0.00  0.00    +0.000 A 
ATOM     31  C   UNL     1      28.497   6.611  48.251  0.00  0.00    +0.000 A 
ATOM     32  C   UNL     1      28.495   5.224  48.388  0.00  0.00    +0.000 A 
ATOM     33  C   UNL     1      27.333   4.559  48.794  0.00  0.00    +0.000 A 
ATOM     34  C   UNL     1      26.174   5.290  49.069  0.00  0.00    +0.000 A 
ENDBRANCH  26  29
ENDBRANCH  23  26
ENDBRANCH  19  20
ENDBRANCH   2  19
TORSDOF 5
ENDMDL
MODEL 4
REMARK VINA RESULT:    -9.529      1.926      3.407
REMARK INTER + INTRA:         -13.592
REMARK INTER:                 -12.709
REMARK INTRA:                  -0.883
REMARK UNBOUND:                -1.277
REMARK  Name = 
REMARK  6 active torsions:
REMARK  status: ('A' for Active; 'I' for Inactive)
REMARK    1  A    between atoms: C_1  and  N_2
REMARK    2  A    between atoms: N_2  and  C_3
REMARK    3  A    between atoms: N_2  and  C_19
REMARK    4  A    between atoms: C_3  and  C_4
REMARK    5  A    between atoms: C_7  and  S_8
REMARK    6  A    between atoms: S_8  and  C_11
REMARK                            x       y       z     vdW  Elec       q    Type
REMARK                         _______ _______ _______ _____ _____    ______ ____
ROOT
ATOM      1  C   UNL     1      25.488   0.134  52.886  0.00  0.00    +0.000 C 
ATOM      2  N   UNL     1      24.199   0.821  52.815  0.00  0.00    +0.000 N 
ENDROOT
BRANCH   2   3
ATOM      3  C   UNL     1      23.017   0.093  53.050  0.00  0.00    +0.000 A 
ATOM      4  C   UNL     1      22.861  -0.744  54.195  0.00  0.00    +0.000 A 
ATOM      5  C   UNL     1      21.627  -1.322  54.589  0.00  0.00    +0.000 A 
ATOM      6  C   UNL     1      20.513  -0.993  53.830  0.00  0.00    +0.000 A 
ATOM      7  C   UNL     1      20.706  -0.250  52.680  0.00  0.00    +0.000 A 
ATOM      8  C   UNL     1      19.468  -0.064  52.116  0.00  0.00    +0.000 A 
ATOM      9  C   UNL     1      19.335   0.655  50.937  0.00  0.00    +0.000 A 
ATOM     10  C   UNL     1      20.530   0.943  50.263  0.00  0.00    +0.000 A 
ATOM     11  C   UNL     1      21.781   0.671  50.848  0.00  0.00    +0.000 A 
ATOM     12  C   UNL     1      21.887   0.193  52.180  0.00  0.00    +0.000 A 
ATOM     13  C   UNL     1      18.585  -0.767  52.996  0.00  0.00    +0.000 C 
ATOM     14  N   UNL     1      17.280  -0.834  52.635  0.00  0.00    +0.000 N 
ATOM     15  N   UNL     1      19.181  -1.335  54.015  0.00  0.00    +0.000 N 
ATOM     16  H   UNL     1      16.964  -0.352  51.836  0.00  0.00    +0.000 HD
ATOM     17  H   UNL     1      16.647  -1.365  53.171  0.00  0.00    +0.000 HD
ATOM     18  H   UNL     1      18.782  -1.873  54.736  0.00  0.00    +0.000 HD
ENDBRANCH   2   3
BRANCH   2  19
ATOM     19  C   UNL     1      24.244   2.245  53.198  0.00  0.00    +0.000 C 
BRANCH  19  20
ATOM     20  C   UNL     1      24.034   3.238  52.072  0.00  0.00    +0.000 A 
ATOM     21  C   UNL     1      23.654   4.556  52.374  0.00  0.00    +0.000 A 
ATOM     22  C   UNL     1      23.694   5.550  51.398  0.00  0.00    +0.000 A 
ATOM     23  C   UNL     1      24.108   5.232  50.104  0.00  0.00    +0.000 A 
ATOM     24  C   UNL     1      24.429   3.913  49.766  0.00  0.00    +0.000 A 
ATOM     25  C   UNL     1      24.377   2.917  50.748  0.00  0.00    +0.000 A 
BRANCH  23  26
ATOM     26  S   UNL     1      24.438   6.552  48.956  0.00  0.00    +0.000 S 
ATOM     27  O   UNL     1      23.741   6.221  47.723  0.00  0.00    +0.000 OA
ATOM     28  O   UNL     1      24.142   7.801  49.635  0.00  0.00    +0.000 OA
BRANCH  26  29
ATOM     29  C   UNL     1      26.177   6.546  48.595  0.00  0.00    +0.000 A 
ATOM     30  C   UNL     1      26.916   5.371  48.781  0.00  0.00    +0.000 A 
ATOM     31  C   UNL     1      28.258   5.337  48.405  0.00  0.00    +0.000 A 
ATOM     32  C   UNL     1      28.856   6.462  47.840  0.00  0.00    +0.000 A 
ATOM     33  C   UNL     1      28.113   7.632  47.648  0.00  0.00    +0.000 A 
ATOM     34  C   UNL     1      26.767   7.669  48.019  0.00  0.00    +0.000 A 
ENDBRANCH  26  29
ENDBRANCH  23  26
ENDBRANCH  19  20
ENDBRANCH   2  19
TORSDOF 5
ENDMDL
MODEL 5
REMARK VINA RESULT:    -9.512      4.078      7.365
REMARK INTER + INTRA:         -13.570
REMARK INTER:                 -11.734
REMARK INTRA:                  -1.835
REMARK UNBOUND:                -1.277
REMARK  Name = 
REMARK  6 active torsions:
REMARK  status: ('A' for Active; 'I' for Inactive)
REMARK    1  A    between atoms: C_1  and  N_2
REMARK    2  A    between atoms: N_2  and  C_3
REMARK    3  A    between atoms: N_2  and  C_19
REMARK    4  A    between atoms: C_3  and  C_4
REMARK    5  A    between atoms: C_7  and  S_8
REMARK    6  A    between atoms: S_8  and  C_11
REMARK                            x       y       z     vdW  Elec       q    Type
REMARK                         _______ _______ _______ _____ _____    ______ ____
ROOT
ATOM      1  C   UNL     1      21.270   7.129  48.727  0.00  0.00    +0.000 C 
ATOM      2  N   UNL     1      22.415   6.566  49.442  0.00  0.00    +0.000 N 
ENDROOT
BRANCH   2   3
ATOM      3  C   UNL     1      23.697   6.657  48.867  0.00  0.00    +0.000 A 
ATOM      4  C   UNL     1      24.164   7.855  48.248  0.00  0.00    +0.000 A 
ATOM      5  C   UNL     1      25.509   8.066  47.851  0.00  0.00    +0.000 A 
ATOM      6  C   UNL     1      26.413   7.055  48.144  0.00  0.00    +0.000 A 
ATOM      7  C   UNL     1      25.920   5.874  48.667  0.00  0.00    +0.000 A 
ATOM      8  C   UNL     1      26.999   5.046  48.862  0.00  0.00    +0.000 A 
ATOM      9  C   UNL     1      26.820   3.773  49.384  0.00  0.00    +0.000 A 
ATOM     10  C   UNL     1      25.494   3.325  49.453  0.00  0.00    +0.000 A 
ATOM     11  C   UNL     1      24.418   4.188  49.176  0.00  0.00    +0.000 A 
ATOM     12  C   UNL     1      24.622   5.568  48.917  0.00  0.00    +0.000 A 
ATOM     13  C   UNL     1      28.108   5.819  48.393  0.00  0.00    +0.000 C 
ATOM     14  N   UNL     1      29.320   5.211  48.379  0.00  0.00    +0.000 N 
ATOM     15  N   UNL     1      27.786   7.010  47.953  0.00  0.00    +0.000 N 
ATOM     16  H   UNL     1      29.420   4.303  48.747  0.00  0.00    +0.000 HD
ATOM     17  H   UNL     1      30.101   5.677  48.002  0.00  0.00    +0.000 HD
ATOM     18  H   UNL     1      28.376   7.705  47.579  0.00  0.00    +0.000 HD
ENDBRANCH   2   3
BRANCH   2  19
ATOM     19  C   UNL     1      22.292   6.595  50.912  0.00  0.00    +0.000 C 
BRANCH  19  20
ATOM     20  C   UNL     1      22.217   5.244  51.594  0.00  0.00    +0.000 A 
ATOM     21  C   UNL     1      21.197   4.346  51.241  0.00  0.00    +0.000 A 
ATOM     22  C   UNL     1      21.241   3.017  51.658  0.00  0.00    +0.000 A 
ATOM     23  C   UNL     1      22.308   2.575  52.442  0.00  0.00    +0.000 A 
ATOM     24  C   UNL     1      23.300   3.467  52.860  0.00  0.00    +0.000 A 
ATOM     25  C   UNL     1      23.244   4.803  52.446  0.00  0.00    +0.000 A 
BRANCH  23  26
ATOM     26  S   UNL     1      22.509   0.827  52.717  0.00  0.00    +0.000 S 
ATOM     27  O   UNL     1      21.905   0.532  54.007  0.00  0.00    +0.000 OA
ATOM     28  O   UNL     1      22.030   0.144  51.528  0.00  0.00    +0.000 OA
BRANCH  26  29
ATOM     29  C   UNL     1      24.246   0.488  52.858  0.00  0.00    +0.000 A 
ATOM     30  C   UNL     1      24.716  -0.263  53.944  0.00  0.00    +0.000 A 
ATOM     31  C   UNL     1      26.063  -0.614  54.004  0.00  0.00    +0.000 A 
ATOM     32  C   UNL     1      26.934  -0.227  52.986  0.00  0.00    +0.000 A 
ATOM     33  C   UNL     1      26.460   0.516  51.899  0.00  0.00    +0.000 A 
ATOM     34  C   UNL     1      25.109   0.866  51.833  0.00  0.00    +0.000 A 
ENDBRANCH  26  29
ENDBRANCH  23  26
ENDBRANCH  19  20
ENDBRANCH   2  19
TORSDOF 5
ENDMDL
MODEL 6
REMARK VINA RESULT:    -9.425      2.089      4.807
REMARK INTER + INTRA:         -13.458
REMARK INTER:                 -10.664
REMARK INTRA:                  -2.794
REMARK UNBOUND:                -1.277
REMARK  Name = 
REMARK  6 active torsions:
REMARK  status: ('A' for Active; 'I' for Inactive)
REMARK    1  A    between atoms: C_1  and  N_2
REMARK    2  A    between atoms: N_2  and  C_3
REMARK    3  A    between atoms: N_2  and  C_19
REMARK    4  A    between atoms: C_3  and  C_4
REMARK    5  A    between atoms: C_7  and  S_8
REMARK    6  A    between atoms: S_8  and  C_11
REMARK                            x       y       z     vdW  Elec       q    Type
REMARK                         _______ _______ _______ _____ _____    ______ ____
ROOT
ATOM      1  C   UNL     1      26.499   0.252  52.577  0.00  0.00    +0.000 C 
ATOM      2  N   UNL     1      25.216   0.912  52.817  0.00  0.00    +0.000 N 
ENDROOT
BRANCH   2   3
ATOM      3  C   UNL     1      24.110   0.140  53.221  0.00  0.00    +0.000 A 
ATOM      4  C   UNL     1      24.170  -0.732  54.349  0.00  0.00    +0.000 A 
ATOM      5  C   UNL     1      23.035  -1.360  54.922  0.00  0.00    +0.000 A 
ATOM      6  C   UNL     1      21.801  -1.046  54.369  0.00  0.00    +0.000 A 
ATOM      7  C   UNL     1      21.780  -0.266  53.228  0.00  0.00    +0.000 A 
ATOM      8  C   UNL     1      20.460  -0.104  52.884  0.00  0.00    +0.000 A 
ATOM      9  C   UNL     1      20.114   0.644  51.767  0.00  0.00    +0.000 A 
ATOM     10  C   UNL     1      21.171   0.988  50.914  0.00  0.00    +0.000 A 
ATOM     11  C   UNL     1      22.509   0.740  51.275  0.00  0.00    +0.000 A 
ATOM     12  C   UNL     1      22.849   0.228  52.554  0.00  0.00    +0.000 A 
ATOM     13  C   UNL     1      19.756  -0.858  53.874  0.00  0.00    +0.000 C 
ATOM     14  N   UNL     1      18.411  -0.957  53.733  0.00  0.00    +0.000 N 
ATOM     15  N   UNL     1      20.529  -1.435  54.762  0.00  0.00    +0.000 N 
ATOM     16  H   UNL     1      17.954  -0.463  53.014  0.00  0.00    +0.000 HD
ATOM     17  H   UNL     1      17.891  -1.522  54.349  0.00  0.00    +0.000 HD
ATOM     18  H   UNL     1      20.269  -2.005  55.521  0.00  0.00    +0.000 HD
ENDBRANCH   2   3
BRANCH   2  19
ATOM     19  C   UNL     1      25.326   2.303  53.297  0.00  0.00    +0.000 C 
BRANCH  19  20
ATOM     20  C   UNL     1      24.568   3.340  52.492  0.00  0.00    +0.000 A 
ATOM     21  C   UNL     1      24.823   3.470  51.117  0.00  0.00    +0.000 A 
ATOM     22  C   UNL     1      23.981   4.228  50.305  0.00  0.00    +0.000 A 
ATOM     23  C   UNL     1      22.876   4.872  50.866  0.00  0.00    +0.000 A 
ATOM     24  C   UNL     1      22.642   4.809  52.243  0.00  0.00    +0.000 A 
ATOM     25  C   UNL     1      23.497   4.054  53.055  0.00  0.00    +0.000 A 
BRANCH  23  26
ATOM     26  S   UNL     1      21.653   5.583  49.785  0.00  0.00    +0.000 S 
ATOM     27  O   UNL     1      21.114   6.748  50.468  0.00  0.00    +0.000 OA
ATOM     28  O   UNL     1      22.268   5.738  48.478  0.00  0.00    +0.000 OA
BRANCH  26  29
ATOM     29  C   UNL     1      20.327   4.414  49.610  0.00  0.00    +0.000 A 
ATOM     30  C   UNL     1      19.325   4.358  50.587  0.00  0.00    +0.000 A 
ATOM     31  C   UNL     1      18.233   3.512  50.402  0.00  0.00    +0.000 A 
ATOM     32  C   UNL     1      18.135   2.736  49.249  0.00  0.00    +0.000 A 
ATOM     33  C   UNL     1      19.134   2.800  48.270  0.00  0.00    +0.000 A 
ATOM     34  C   UNL     1      20.228   3.650  48.450  0.00  0.00    +0.000 A 
ENDBRANCH  26  29
ENDBRANCH  23  26
ENDBRANCH  19  20
ENDBRANCH   2  19
TORSDOF 5
ENDMDL
MODEL 7
REMARK VINA RESULT:    -9.334      3.146      4.703
REMARK INTER + INTRA:         -13.339
REMARK INTER:                 -12.452
REMARK INTRA:                  -0.888
REMARK UNBOUND:                -1.277
REMARK  Name = 
REMARK  6 active torsions:
REMARK  status: ('A' for Active; 'I' for Inactive)
REMARK    1  A    between atoms: C_1  and  N_2
REMARK    2  A    between atoms: N_2  and  C_3
REMARK    3  A    between atoms: N_2  and  C_19
REMARK    4  A    between atoms: C_3  and  C_4
REMARK    5  A    between atoms: C_7  and  S_8
REMARK    6  A    between atoms: S_8  and  C_11
REMARK                            x       y       z     vdW  Elec       q    Type
REMARK                         _______ _______ _______ _____ _____    ______ ____
ROOT
ATOM      1  C   UNL     1      23.312  -0.705  54.495  0.00  0.00    +0.000 C 
ATOM      2  N   UNL     1      23.640   0.322  53.507  0.00  0.00    +0.000 N 
ENDROOT
BRANCH   2   3
ATOM      3  C   UNL     1      24.971   0.766  53.391  0.00  0.00    +0.000 A 
ATOM      4  C   UNL     1      25.337   2.125  53.624  0.00  0.00    +0.000 A 
ATOM      5  C   UNL     1      26.678   2.574  53.730  0.00  0.00    +0.000 A 
ATOM      6  C   UNL     1      27.669   1.605  53.657  0.00  0.00    +0.000 A 
ATOM      7  C   UNL     1      27.292   0.312  53.348  0.00  0.00    +0.000 A 
ATOM      8  C   UNL     1      28.440  -0.443  53.332  0.00  0.00    +0.000 A 
ATOM      9  C   UNL     1      28.383  -1.800  53.051  0.00  0.00    +0.000 A 
ATOM     10  C   UNL     1      27.158  -2.267  52.556  0.00  0.00    +0.000 A 
ATOM     11  C   UNL     1      26.021  -1.438  52.523  0.00  0.00    +0.000 A 
ATOM     12  C   UNL     1      26.038  -0.135  53.083  0.00  0.00    +0.000 A 
ATOM     13  C   UNL     1      29.473   0.505  53.619  0.00  0.00    +0.000 C 
ATOM     14  N   UNL     1      30.751   0.055  53.579  0.00  0.00    +0.000 N 
ATOM     15  N   UNL     1      29.043   1.729  53.805  0.00  0.00    +0.000 N 
ATOM     16  H   UNL     1      30.932  -0.902  53.428  0.00  0.00    +0.000 HD
ATOM     17  H   UNL     1      31.499   0.683  53.700  0.00  0.00    +0.000 HD
ATOM     18  H   UNL     1      29.567   2.538  54.003  0.00  0.00    +0.000 HD
ENDBRANCH   2   3
BRANCH   2  19
ATOM     19  C   UNL     1      22.789   0.303  52.302  0.00  0.00    +0.000 C 
BRANCH  19  20
ATOM     20  C   UNL     1      22.672   1.617  51.556  0.00  0.00    +0.000 A 
ATOM     21  C   UNL     1      22.323   2.783  52.258  0.00  0.00    +0.000 A 
ATOM     22  C   UNL     1      22.448   4.037  51.663  0.00  0.00    +0.000 A 
ATOM     23  C   UNL     1      22.918   4.137  50.353  0.00  0.00    +0.000 A 
ATOM     24  C   UNL     1      23.209   2.986  49.614  0.00  0.00    +0.000 A 
ATOM     25  C   UNL     1      23.072   1.728  50.213  0.00  0.00    +0.000 A 
BRANCH  23  26
ATOM     26  S   UNL     1      23.353   5.740  49.713  0.00  0.00    +0.000 S 
ATOM     27  O   UNL     1      22.604   5.918  48.479  0.00  0.00    +0.000 OA
ATOM     28  O   UNL     1      23.192   6.696  50.794  0.00  0.00    +0.000 OA
BRANCH  26  29
ATOM     29  C   UNL     1      25.076   5.713  49.284  0.00  0.00    +0.000 A 
ATOM     30  C   UNL     1      25.838   4.571  49.562  0.00  0.00    +0.000 A 
ATOM     31  C   UNL     1      27.164   4.511  49.137  0.00  0.00    +0.000 A 
ATOM     32  C   UNL     1      27.723   5.575  48.433  0.00  0.00    +0.000 A 
ATOM     33  C   UNL     1      26.957   6.712  48.149  0.00  0.00    +0.000 A 
ATOM     34  C   UNL     1      25.626   6.775  48.570  0.00  0.00    +0.000 A 
ENDBRANCH  26  29
ENDBRANCH  23  26
ENDBRANCH  19  20
ENDBRANCH   2  19
TORSDOF 5
ENDMDL
MODEL 8
REMARK VINA RESULT:    -9.192      2.924      5.183
REMARK INTER + INTRA:         -13.157
REMARK INTER:                 -10.288
REMARK INTRA:                  -2.869
REMARK UNBOUND:                -1.277
REMARK  Name = 
REMARK  6 active torsions:
REMARK  status: ('A' for Active; 'I' for Inactive)
REMARK    1  A    between atoms: C_1  and  N_2
REMARK    2  A    between atoms: N_2  and  C_3
REMARK    3  A    between atoms: N_2  and  C_19
REMARK    4  A    between atoms: C_3  and  C_4
REMARK    5  A    between atoms: C_7  and  S_8
REMARK    6  A    between atoms: S_8  and  C_11
REMARK                            x       y       z     vdW  Elec       q    Type
REMARK                         _______ _______ _______ _____ _____    ______ ____
ROOT
ATOM      1  C   UNL     1      21.469  -0.120  54.801  0.00  0.00    +0.000 C 
ATOM      2  N   UNL     1      21.814   0.243  53.427  0.00  0.00    +0.000 N 
ENDROOT
BRANCH   2   3
ATOM      3  C   UNL     1      23.136   0.619  53.126  0.00  0.00    +0.000 A 
ATOM      4  C   UNL     1      24.235  -0.273  53.305  0.00  0.00    +0.000 A 
ATOM      5  C   UNL     1      25.543  -0.022  52.819  0.00  0.00    +0.000 A 
ATOM      6  C   UNL     1      25.724   1.140  52.082  0.00  0.00    +0.000 A 
ATOM      7  C   UNL     1      24.666   2.025  51.995  0.00  0.00    +0.000 A 
ATOM      8  C   UNL     1      25.094   3.080  51.227  0.00  0.00    +0.000 A 
ATOM      9  C   UNL     1      24.243   4.142  50.956  0.00  0.00    +0.000 A 
ATOM     10  C   UNL     1      23.057   4.176  51.703  0.00  0.00    +0.000 A 
ATOM     11  C   UNL     1      22.689   3.102  52.535  0.00  0.00    +0.000 A 
ATOM     12  C   UNL     1      23.445   1.902  52.574  0.00  0.00    +0.000 A 
ATOM     13  C   UNL     1      26.451   2.747  50.919  0.00  0.00    +0.000 C 
ATOM     14  N   UNL     1      27.171   3.667  50.232  0.00  0.00    +0.000 N 
ATOM     15  N   UNL     1      26.852   1.605  51.422  0.00  0.00    +0.000 N 
ATOM     16  H   UNL     1      26.738   4.490  49.908  0.00  0.00    +0.000 HD
ATOM     17  H   UNL     1      28.128   3.514  50.056  0.00  0.00    +0.000 HD
ATOM     18  H   UNL     1      27.738   1.182  51.350  0.00  0.00    +0.000 HD
ENDBRANCH   2   3
BRANCH   2  19
ATOM     19  C   UNL     1      21.020  -0.452  52.396  0.00  0.00    +0.000 C 
BRANCH  19  20
ATOM     20  C   UNL     1      20.558   0.402  51.232  0.00  0.00    +0.000 A 
ATOM     21  C   UNL     1      19.427   1.221  51.381  0.00  0.00    +0.000 A 
ATOM     22  C   UNL     1      19.123   2.195  50.431  0.00  0.00    +0.000 A 
ATOM     23  C   UNL     1      19.947   2.355  49.316  0.00  0.00    +0.000 A 
ATOM     24  C   UNL     1      21.041   1.507  49.115  0.00  0.00    +0.000 A 
ATOM     25  C   UNL     1      21.336   0.524  50.067  0.00  0.00    +0.000 A 
BRANCH  23  26
ATOM     26  S   UNL     1      19.723   3.782  48.276  0.00  0.00    +0.000 S 
ATOM     27  O   UNL     1      20.177   3.408  46.945  0.00  0.00    +0.000 OA
ATOM     28  O   UNL     1      18.359   4.245  48.465  0.00  0.00    +0.000 OA
BRANCH  26  29
ATOM     29  C   UNL     1      20.803   5.065  48.860  0.00  0.00    +0.000 A 
ATOM     30  C   UNL     1      21.995   5.329  48.172  0.00  0.00    +0.000 A 
ATOM     31  C   UNL     1      22.794   6.398  48.570  0.00  0.00    +0.000 A 
ATOM     32  C   UNL     1      22.405   7.204  49.638  0.00  0.00    +0.000 A 
ATOM     33  C   UNL     1      21.210   6.943  50.319  0.00  0.00    +0.000 A 
ATOM     34  C   UNL     1      20.404   5.874  49.920  0.00  0.00    +0.000 A 
ENDBRANCH  26  29
ENDBRANCH  23  26
ENDBRANCH  19  20
ENDBRANCH   2  19
TORSDOF 5
ENDMDL
MODEL 9
REMARK VINA RESULT:    -9.140      2.476      4.033
REMARK INTER + INTRA:         -13.089
REMARK INTER:                 -10.300
REMARK INTRA:                  -2.789
REMARK UNBOUND:                -1.277
REMARK  Name = 
REMARK  6 active torsions:
REMARK  status: ('A' for Active; 'I' for Inactive)
REMARK    1  A    between atoms: C_1  and  N_2
REMARK    2  A    between atoms: N_2  and  C_3
REMARK    3  A    between atoms: N_2  and  C_19
REMARK    4  A    between atoms: C_3  and  C_4
REMARK    5  A    between atoms: C_7  and  S_8
REMARK    6  A    between atoms: S_8  and  C_11
REMARK                            x       y       z     vdW  Elec       q    Type
REMARK                         _______ _______ _______ _____ _____    ______ ____
ROOT
ATOM      1  C   UNL     1      20.348  -0.108  54.047  0.00  0.00    +0.000 C 
ATOM      2  N   UNL     1      21.293   0.318  53.016  0.00  0.00    +0.000 N 
ENDROOT
BRANCH   2   3
ATOM      3  C   UNL     1      22.663   0.403  53.330  0.00  0.00    +0.000 A 
ATOM      4  C   UNL     1      23.367  -0.680  53.935  0.00  0.00    +0.000 A 
ATOM      5  C   UNL     1      24.777  -0.726  54.073  0.00  0.00    +0.000 A 
ATOM      6  C   UNL     1      25.493   0.331  53.529  0.00  0.00    +0.000 A 
ATOM      7  C   UNL     1      24.784   1.405  53.024  0.00  0.00    +0.000 A 
ATOM      8  C   UNL     1      25.708   2.305  52.555  0.00  0.00    +0.000 A 
ATOM      9  C   UNL     1      25.296   3.499  51.980  0.00  0.00    +0.000 A 
ATOM     10  C   UNL     1      23.939   3.814  52.141  0.00  0.00    +0.000 A 
ATOM     11  C   UNL     1      23.036   2.887  52.693  0.00  0.00    +0.000 A 
ATOM     12  C   UNL     1      23.436   1.563  53.012  0.00  0.00    +0.000 A 
ATOM     13  C   UNL     1      26.964   1.689  52.853  0.00  0.00    +0.000 C 
ATOM     14  N   UNL     1      28.083   2.404  52.579  0.00  0.00    +0.000 N 
ATOM     15  N   UNL     1      26.864   0.521  53.440  0.00  0.00    +0.000 N 
ATOM     16  H   UNL     1      28.011   3.277  52.129  0.00  0.00    +0.000 HD
ATOM     17  H   UNL     1      28.967   2.051  52.830  0.00  0.00    +0.000 HD
ATOM     18  H   UNL     1      27.587  -0.076  53.743  0.00  0.00    +0.000 HD
ENDBRANCH   2   3
BRANCH   2  19
ATOM     19  C   UNL     1      20.901  -0.045  51.640  0.00  0.00    +0.000 C 
BRANCH  19  20
ATOM     20  C   UNL     1      20.923   1.084  50.628  0.00  0.00    +0.000 A 
ATOM     21  C   UNL     1      19.997   2.133  50.741  0.00  0.00    +0.000 A 
ATOM     22  C   UNL     1      20.145   3.298  49.990  0.00  0.00    +0.000 A 
ATOM     23  C   UNL     1      21.221   3.420  49.110  0.00  0.00    +0.000 A 
ATOM     24  C   UNL     1      22.118   2.362  48.934  0.00  0.00    +0.000 A 
ATOM     25  C   UNL     1      21.959   1.190  49.684  0.00  0.00    +0.000 A 
BRANCH  23  26
ATOM     26  S   UNL     1      21.566   5.010  48.386  0.00  0.00    +0.000 S 
ATOM     27  O   UNL     1      21.965   4.767  47.008  0.00  0.00    +0.000 OA
ATOM     28  O   UNL     1      20.427   5.868  48.663  0.00  0.00    +0.000 OA
BRANCH  26  29
ATOM     29  C   UNL     1      22.968   5.705  49.225  0.00  0.00    +0.000 A 
ATOM     30  C   UNL     1      24.261   5.379  48.795  0.00  0.00    +0.000 A 
ATOM     31  C   UNL     1      25.358   6.000  49.388  0.00  0.00    +0.000 A 
ATOM     32  C   UNL     1      25.170   6.945  50.395  0.00  0.00    +0.000 A 
ATOM     33  C   UNL     1      23.877   7.275  50.817  0.00  0.00    +0.000 A 
ATOM     34  C   UNL     1      22.774   6.658  50.222  0.00  0.00    +0.000 A 
ENDBRANCH  26  29
ENDBRANCH  23  26
ENDBRANCH  19  20
ENDBRANCH   2  19
TORSDOF 5
ENDMDL
