MODEL 1
REMARK VINA RESULT:    -8.079      0.000      0.000
REMARK INTER + INTRA:         -11.987
REMARK INTER:                 -10.913
REMARK INTRA:                  -1.074
REMARK UNBOUND:                -1.074
REMARK  Name = 
REMARK  7 active torsions:
REMARK  status: ('A' for Active; 'I' for Inactive)
REMARK    1  A    between atoms: C_1  and  C_2
REMARK    2  A    between atoms: C_2  and  N_3
REMARK    3  A    between atoms: N_3  and  C_4
REMARK    4  A    between atoms: C_4  and  C_5
REMARK    5  A    between atoms: N_8  and  C_9
REMARK    6  A    between atoms: C_16  and  C_17
REMARK    7  A    between atoms: N_21  and  C_22
REMARK                            x       y       z     vdW  Elec       q    Type
REMARK                         _______ _______ _______ _____ _____    ______ ____
ROOT
ATOM      1  C   UNL     1      21.976   1.413  51.621  0.00  0.00    +0.000 A 
ATOM      2  C   UNL     1      22.160   0.667  52.793  0.00  0.00    +0.000 A 
ATOM      3  F   UNL     1      21.131   0.033  53.375  0.00  0.00    +0.000 F 
ATOM      4  C   UNL     1      23.416   0.502  53.368  0.00  0.00    +0.000 A 
ATOM      5  C   UNL     1      24.540   1.100  52.788  0.00  0.00    +0.000 A 
ATOM      6  C   UNL     1      25.856   0.896  53.441  0.00  0.00    +0.000 A 
ATOM      7  O   UNL     1      25.930   0.188  54.440  0.00  0.00    +0.000 OA
ATOM      8  C   UNL     1      27.030   1.531  52.814  0.00  0.00    +0.000 A 
ATOM      9  C   UNL     1      26.816   2.253  51.704  0.00  0.00    +0.000 A 
ATOM     10  N   UNL     1      25.607   2.509  51.063  0.00  0.00    +0.000 N 
ATOM     11  C   UNL     1      24.434   1.863  51.611  0.00  0.00    +0.000 A 
ATOM     12  C   UNL     1      23.144   1.964  51.036  0.00  0.00    +0.000 A 
ATOM     13  F   UNL     1      22.989   2.619  49.872  0.00  0.00    +0.000 F 
ENDROOT
BRANCH   1  17
ATOM     14  C   UNL     1      18.490   0.868  50.769  0.00  0.00    +0.000 C 
ATOM     15  C   UNL     1      18.527   2.021  51.772  0.00  0.00    +0.000 C 
ATOM     16  C   UNL     1      19.838   2.716  51.428  0.00  0.00    +0.000 C 
ATOM     17  N   UNL     1      20.736   1.632  51.012  0.00  0.00    +0.000 N 
ATOM     18  C   UNL     1      19.958   0.414  50.727  0.00  0.00    +0.000 C 
BRANCH  14  19
ATOM     19  C   UNL     1      17.547  -0.276  51.149  0.00  0.00    +0.000 C 
BRANCH  19  20
ATOM     20  N   UNL     1      17.553  -0.524  52.593  0.00  0.00    +0.000 N 
ATOM     21  H   UNL     1      18.518  -0.565  52.920  0.00  0.00    +0.000 HD
ATOM     22  H   UNL     1      17.051   0.234  53.054  0.00  0.00    +0.000 HD
BRANCH  20  24
ATOM     23  C   UNL     1      17.828  -2.696  53.688  0.00  0.00    +0.000 C 
ATOM     24  C   UNL     1      16.887  -1.788  52.910  0.00  0.00    +0.000 C 
ENDBRANCH  20  24
ENDBRANCH  19  20
ENDBRANCH  14  19
ENDBRANCH   1  17
BRANCH  10  25
ATOM     25  C   UNL     1      25.498   3.445  49.940  0.00  0.00    +0.000 C 
ATOM     26  C   UNL     1      26.868   3.821  49.320  0.00  0.00    +0.000 C 
ATOM     27  C   UNL     1      26.268   5.215  49.035  0.00  0.00    +0.000 C 
ATOM     28  C   UNL     1      25.309   4.963  50.216  0.00  0.00    +0.000 C 
ENDBRANCH  10  25
BRANCH   8  29
ATOM     29  C   UNL     1      28.414   1.453  53.309  0.00  0.00    +0.000 C 
ATOM     30  O   UNL     1      29.083   0.436  53.387  0.00  0.00    +0.000 OA
ATOM     31  O   UNL     1      28.946   2.642  53.625  0.00  0.00    +0.000 OA
ENDBRANCH   8  29
TORSDOF 6
ENDMDL
MODEL 2
REMARK VINA RESULT:    -7.889      1.745      2.863
REMARK INTER + INTRA:         -11.730
REMARK INTER:                 -10.396
REMARK INTRA:                  -1.334
REMARK UNBOUND:                -1.074
REMARK  Name = 
REMARK  7 active torsions:
REMARK  status: ('A' for Active; 'I' for Inactive)
REMARK    1  A    between atoms: C_1  and  C_2
REMARK    2  A    between atoms: C_2  and  N_3
REMARK    3  A    between atoms: N_3  and  C_4
REMARK    4  A    between atoms: C_4  and  C_5
REMARK    5  A    between atoms: N_8  and  C_9
REMARK    6  A    between atoms: C_16  and  C_17
REMARK    7  A    between atoms: N_21  and  C_22
REMARK                            x       y       z     vdW  Elec       q    Type
REMARK                         _______ _______ _______ _____ _____    ______ ____
ROOT
ATOM      1  C   UNL     1      22.119   0.709  52.375  0.00  0.00    +0.000 A 
ATOM      2  C   UNL     1      22.468  -0.002  53.531  0.00  0.00    +0.000 A 
ATOM      3  F   UNL     1      21.557  -0.728  54.196  0.00  0.00    +0.000 F 
ATOM      4  C   UNL     1      23.776  -0.038  54.003  0.00  0.00    +0.000 A 
ATOM      5  C   UNL     1      24.786   0.662  53.332  0.00  0.00    +0.000 A 
ATOM      6  C   UNL     1      26.164   0.593  53.878  0.00  0.00    +0.000 A 
ATOM      7  O   UNL     1      26.387  -0.093  54.869  0.00  0.00    +0.000 OA
ATOM      8  C   UNL     1      27.216   1.334  53.157  0.00  0.00    +0.000 A 
ATOM      9  C   UNL     1      26.844   2.019  52.065  0.00  0.00    +0.000 A 
ATOM     10  N   UNL     1      25.568   2.148  51.523  0.00  0.00    +0.000 N 
ATOM     11  C   UNL     1      24.512   1.398  52.166  0.00  0.00    +0.000 A 
ATOM     12  C   UNL     1      23.176   1.366  51.697  0.00  0.00    +0.000 A 
ATOM     13  F   UNL     1      22.865   1.990  50.547  0.00  0.00    +0.000 F 
ENDROOT
BRANCH   1  17
ATOM     14  C   UNL     1      19.085   2.257  51.121  0.00  0.00    +0.000 C 
ATOM     15  C   UNL     1      19.828   1.692  49.911  0.00  0.00    +0.000 C 
ATOM     16  C   UNL     1      20.490   0.445  50.482  0.00  0.00    +0.000 C 
ATOM     17  N   UNL     1      20.818   0.800  51.868  0.00  0.00    +0.000 N 
ATOM     18  C   UNL     1      20.077   2.008  52.268  0.00  0.00    +0.000 C 
BRANCH  14  19
ATOM     19  C   UNL     1      18.706   3.735  51.003  0.00  0.00    +0.000 C 
BRANCH  19  20
ATOM     20  N   UNL     1      19.186   4.317  49.746  0.00  0.00    +0.000 N 
ATOM     21  H   UNL     1      19.770   3.633  49.264  0.00  0.00    +0.000 HD
ATOM     22  H   UNL     1      18.379   4.564  49.174  0.00  0.00    +0.000 HD
BRANCH  20  24
ATOM     23  C   UNL     1      21.317   5.161  50.606  0.00  0.00    +0.000 C 
ATOM     24  C   UNL     1      19.972   5.526  49.995  0.00  0.00    +0.000 C 
ENDBRANCH  20  24
ENDBRANCH  19  20
ENDBRANCH  14  19
ENDBRANCH   1  17
BRANCH  10  25
ATOM     25  C   UNL     1      25.278   3.058  50.410  0.00  0.00    +0.000 C 
ATOM     26  C   UNL     1      26.540   3.468  49.608  0.00  0.00    +0.000 C 
ATOM     27  C   UNL     1      25.857   4.834  49.383  0.00  0.00    +0.000 C 
ATOM     28  C   UNL     1      25.071   4.573  50.685  0.00  0.00    +0.000 C 
ENDBRANCH  10  25
BRANCH   8  29
ATOM     29  C   UNL     1      28.636   1.397  53.538  0.00  0.00    +0.000 C 
ATOM     30  O   UNL     1      29.400   0.447  53.586  0.00  0.00    +0.000 OA
ATOM     31  O   UNL     1      29.079   2.638  53.781  0.00  0.00    +0.000 OA
ENDBRANCH   8  29
TORSDOF 6
ENDMDL
MODEL 3
REMARK VINA RESULT:    -7.861      3.468      7.098
REMARK INTER + INTRA:         -11.692
REMARK INTER:                 -10.632
REMARK INTRA:                  -1.060
REMARK UNBOUND:                -1.074
REMARK  Name = 
REMARK  7 active torsions:
REMARK  status: ('A' for Active; 'I' for Inactive)
REMARK    1  A    between atoms: C_1  and  C_2
REMARK    2  A    between atoms: C_2  and  N_3
REMARK    3  A    between atoms: N_3  and  C_4
REMARK    4  A    between atoms: C_4  and  C_5
REMARK    5  A    between atoms: N_8  and  C_9
REMARK    6  A    between atoms: C_16  and  C_17
REMARK    7  A    between atoms: N_21  and  C_22
REMARK                            x       y       z     vdW  Elec       q    Type
REMARK                         _______ _______ _______ _____ _____    ______ ____
ROOT
ATOM      1  C   UNL     1      22.527   4.341  50.956  0.00  0.00    +0.000 A 
ATOM      2  C   UNL     1      21.220   4.141  51.418  0.00  0.00    +0.000 A 
ATOM      3  F   UNL     1      20.228   4.973  51.065  0.00  0.00    +0.000 F 
ATOM      4  C   UNL     1      20.879   3.046  52.207  0.00  0.00    +0.000 A 
ATOM      5  C   UNL     1      21.857   2.114  52.576  0.00  0.00    +0.000 A 
ATOM      6  C   UNL     1      21.444   0.966  53.419  0.00  0.00    +0.000 A 
ATOM      7  O   UNL     1      20.266   0.845  53.739  0.00  0.00    +0.000 OA
ATOM      8  C   UNL     1      22.485  -0.008  53.796  0.00  0.00    +0.000 A 
ATOM      9  C   UNL     1      23.730   0.224  53.352  0.00  0.00    +0.000 A 
ATOM     10  N   UNL     1      24.186   1.295  52.588  0.00  0.00    +0.000 N 
ATOM     11  C   UNL     1      23.190   2.249  52.150  0.00  0.00    +0.000 A 
ATOM     12  C   UNL     1      23.478   3.352  51.310  0.00  0.00    +0.000 A 
ATOM     13  F   UNL     1      24.719   3.496  50.811  0.00  0.00    +0.000 F 
ENDROOT
BRANCH   1  17
ATOM     14  C   UNL     1      24.644   7.042  49.772  0.00  0.00    +0.000 C 
ATOM     15  C   UNL     1      24.760   5.908  48.754  0.00  0.00    +0.000 C 
ATOM     16  C   UNL     1      23.368   5.290  48.788  0.00  0.00    +0.000 C 
ATOM     17  N   UNL     1      22.931   5.434  50.181  0.00  0.00    +0.000 N 
ATOM     18  C   UNL     1      23.786   6.410  50.879  0.00  0.00    +0.000 C 
BRANCH  14  19
ATOM     19  C   UNL     1      25.982   7.555  50.308  0.00  0.00    +0.000 C 
BRANCH  19  20
ATOM     20  N   UNL     1      27.102   7.126  49.466  0.00  0.00    +0.000 N 
ATOM     21  H   UNL     1      27.649   6.427  49.970  0.00  0.00    +0.000 HD
ATOM     22  H   UNL     1      26.727   6.732  48.604  0.00  0.00    +0.000 HD
BRANCH  20  24
ATOM     23  C   UNL     1      27.546   9.492  49.912  0.00  0.00    +0.000 C 
ATOM     24  C   UNL     1      27.967   8.257  49.128  0.00  0.00    +0.000 C 
ENDBRANCH  20  24
ENDBRANCH  19  20
ENDBRANCH  14  19
ENDBRANCH   1  17
BRANCH  10  25
ATOM     25  C   UNL     1      25.609   1.504  52.302  0.00  0.00    +0.000 C 
ATOM     26  C   UNL     1      26.421   0.185  52.232  0.00  0.00    +0.000 C 
ATOM     27  C   UNL     1      27.609   0.978  52.817  0.00  0.00    +0.000 C 
ATOM     28  C   UNL     1      26.571   1.930  53.446  0.00  0.00    +0.000 C 
ENDBRANCH  10  25
BRANCH   8  29
ATOM     29  C   UNL     1      22.281  -1.205  54.628  0.00  0.00    +0.000 C 
ATOM     30  O   UNL     1      21.425  -2.056  54.448  0.00  0.00    +0.000 OA
ATOM     31  O   UNL     1      23.181  -1.343  55.611  0.00  0.00    +0.000 OA
ENDBRANCH   8  29
TORSDOF 6
ENDMDL
MODEL 4
REMARK VINA RESULT:    -7.764      1.944      4.104
REMARK INTER + INTRA:         -11.561
REMARK INTER:                 -10.092
REMARK INTRA:                  -1.469
REMARK UNBOUND:                -1.074
REMARK  Name = 
REMARK  7 active torsions:
REMARK  status: ('A' for Active; 'I' for Inactive)
REMARK    1  A    between atoms: C_1  and  C_2
REMARK    2  A    between atoms: C_2  and  N_3
REMARK    3  A    between atoms: N_3  and  C_4
REMARK    4  A    between atoms: C_4  and  C_5
REMARK    5  A    between atoms: N_8  and  C_9
REMARK    6  A    between atoms: C_16  and  C_17
REMARK    7  A    between atoms: N_21  and  C_22
REMARK                            x       y       z     vdW  Elec       q    Type
REMARK                         _______ _______ _______ _____ _____    ______ ____
ROOT
ATOM      1  C   UNL     1      22.476   3.201  50.698  0.00  0.00    +0.000 A 
ATOM      2  C   UNL     1      23.720   3.616  50.207  0.00  0.00    +0.000 A 
ATOM      3  F   UNL     1      23.809   4.589  49.287  0.00  0.00    +0.000 F 
ATOM      4  C   UNL     1      24.914   3.087  50.688  0.00  0.00    +0.000 A 
ATOM      5  C   UNL     1      24.896   2.099  51.680  0.00  0.00    +0.000 A 
ATOM      6  C   UNL     1      26.194   1.566  52.158  0.00  0.00    +0.000 A 
ATOM      7  O   UNL     1      27.238   2.022  51.704  0.00  0.00    +0.000 OA
ATOM      8  C   UNL     1      26.157   0.528  53.205  0.00  0.00    +0.000 A 
ATOM      9  C   UNL     1      24.949   0.140  53.641  0.00  0.00    +0.000 A 
ATOM     10  N   UNL     1      23.698   0.577  53.211  0.00  0.00    +0.000 N 
ATOM     11  C   UNL     1      23.685   1.632  52.222  0.00  0.00    +0.000 A 
ATOM     12  C   UNL     1      22.499   2.234  51.734  0.00  0.00    +0.000 A 
ATOM     13  F   UNL     1      21.314   1.882  52.264  0.00  0.00    +0.000 F 
ENDROOT
BRANCH   1  17
ATOM     14  C   UNL     1      18.994   3.129  49.674  0.00  0.00    +0.000 C 
ATOM     15  C   UNL     1      19.032   3.738  51.076  0.00  0.00    +0.000 C 
ATOM     16  C   UNL     1      20.355   4.493  51.071  0.00  0.00    +0.000 C 
ATOM     17  N   UNL     1      21.245   3.680  50.235  0.00  0.00    +0.000 N 
ATOM     18  C   UNL     1      20.457   2.714  49.450  0.00  0.00    +0.000 C 
BRANCH  14  19
ATOM     19  C   UNL     1      18.034   1.947  49.520  0.00  0.00    +0.000 C 
BRANCH  19  20
ATOM     20  N   UNL     1      18.669   0.681  49.898  0.00  0.00    +0.000 N 
ATOM     21  H   UNL     1      18.808   0.116  49.060  0.00  0.00    +0.000 HD
ATOM     22  H   UNL     1      19.564   0.887  50.342  0.00  0.00    +0.000 HD
BRANCH  20  24
ATOM     23  C   UNL     1      18.604  -0.311  52.134  0.00  0.00    +0.000 C 
ATOM     24  C   UNL     1      17.836  -0.061  50.844  0.00  0.00    +0.000 C 
ENDBRANCH  20  24
ENDBRANCH  19  20
ENDBRANCH  14  19
ENDBRANCH   1  17
BRANCH  10  25
ATOM     25  C   UNL     1      22.452  -0.047  53.667  0.00  0.00    +0.000 C 
ATOM     26  C   UNL     1      22.605  -0.821  55.001  0.00  0.00    +0.000 C 
ATOM     27  C   UNL     1      21.543  -1.803  54.462  0.00  0.00    +0.000 C 
ATOM     28  C   UNL     1      21.989  -1.393  53.043  0.00  0.00    +0.000 C 
ENDBRANCH  10  25
BRANCH   8  29
ATOM     29  C   UNL     1      27.330  -0.129  53.805  0.00  0.00    +0.000 C 
ATOM     30  O   UNL     1      27.754   0.069  54.931  0.00  0.00    +0.000 OA
ATOM     31  O   UNL     1      27.895  -1.055  53.019  0.00  0.00    +0.000 OA
ENDBRANCH   8  29
TORSDOF 6
ENDMDL
MODEL 5
REMARK VINA RESULT:    -7.648      3.283      7.730
REMARK INTER + INTRA:         -11.405
REMARK INTER:                 -10.588
REMARK INTRA:                  -0.817
REMARK UNBOUND:                -1.074
REMARK  Name = 
REMARK  7 active torsions:
REMARK  status: ('A' for Active; 'I' for Inactive)
REMARK    1  A    between atoms: C_1  and  C_2
REMARK    2  A    between atoms: C_2  and  N_3
REMARK    3  A    between atoms: N_3  and  C_4
REMARK    4  A    between atoms: C_4  and  C_5
REMARK    5  A    between atoms: N_8  and  C_9
REMARK    6  A    between atoms: C_16  and  C_17
REMARK    7  A    between atoms: N_21  and  C_22
REMARK                            x       y       z     vdW  Elec       q    Type
REMARK                         _______ _______ _______ _____ _____    ______ ____
ROOT
ATOM      1  C   UNL     1      23.671   1.239  52.794  0.00  0.00    +0.000 A 
ATOM      2  C   UNL     1      23.725   0.072  53.568  0.00  0.00    +0.000 A 
ATOM      3  F   UNL     1      24.871  -0.323  54.141  0.00  0.00    +0.000 F 
ATOM      4  C   UNL     1      22.590  -0.690  53.826  0.00  0.00    +0.000 A 
ATOM      5  C   UNL     1      21.351  -0.311  53.294  0.00  0.00    +0.000 A 
ATOM      6  C   UNL     1      20.173  -1.159  53.596  0.00  0.00    +0.000 A 
ATOM      7  O   UNL     1      20.303  -2.138  54.322  0.00  0.00    +0.000 OA
ATOM      8  C   UNL     1      18.875  -0.743  53.030  0.00  0.00    +0.000 A 
ATOM      9  C   UNL     1      18.863   0.369  52.279  0.00  0.00    +0.000 A 
ATOM     10  N   UNL     1      19.936   1.187  51.934  0.00  0.00    +0.000 N 
ATOM     11  C   UNL     1      21.220   0.847  52.508  0.00  0.00    +0.000 A 
ATOM     12  C   UNL     1      22.393   1.617  52.313  0.00  0.00    +0.000 A 
ATOM     13  F   UNL     1      22.318   2.774  51.631  0.00  0.00    +0.000 F 
ENDROOT
BRANCH   1  17
ATOM     14  C   UNL     1      27.103   2.420  52.869  0.00  0.00    +0.000 C 
ATOM     15  C   UNL     1      26.930   1.640  51.566  0.00  0.00    +0.000 C 
ATOM     16  C   UNL     1      25.481   1.932  51.197  0.00  0.00    +0.000 C 
ATOM     17  N   UNL     1      24.782   2.031  52.483  0.00  0.00    +0.000 N 
ATOM     18  C   UNL     1      25.757   2.192  53.576  0.00  0.00    +0.000 C 
BRANCH  14  19
ATOM     19  C   UNL     1      28.285   1.967  53.730  0.00  0.00    +0.000 C 
BRANCH  19  20
ATOM     20  N   UNL     1      27.897   0.908  54.666  0.00  0.00    +0.000 N 
ATOM     21  H   UNL     1      27.766   1.314  55.593  0.00  0.00    +0.000 HD
ATOM     22  H   UNL     1      27.031   0.484  54.336  0.00  0.00    +0.000 HD
BRANCH  20  24
ATOM     23  C   UNL     1      29.385  -0.514  53.340  0.00  0.00    +0.000 C 
ATOM     24  C   UNL     1      28.927  -0.129  54.740  0.00  0.00    +0.000 C 
ENDBRANCH  20  24
ENDBRANCH  19  20
ENDBRANCH  14  19
ENDBRANCH   1  17
BRANCH  10  25
ATOM     25  C   UNL     1      19.804   2.288  50.975  0.00  0.00    +0.000 C 
ATOM     26  C   UNL     1      18.910   3.445  51.488  0.00  0.00    +0.000 C 
ATOM     27  C   UNL     1      18.471   3.651  50.023  0.00  0.00    +0.000 C 
ATOM     28  C   UNL     1      18.808   2.164  49.789  0.00  0.00    +0.000 C 
ENDBRANCH  10  25
BRANCH   8  29
ATOM     29  C   UNL     1      17.596  -1.448  53.208  0.00  0.00    +0.000 C 
ATOM     30  O   UNL     1      17.468  -2.608  53.562  0.00  0.00    +0.000 OA
ATOM     31  O   UNL     1      16.519  -0.676  53.007  0.00  0.00    +0.000 OA
ENDBRANCH   8  29
TORSDOF 6
ENDMDL
MODEL 6
REMARK VINA RESULT:    -7.615      3.761      8.161
REMARK INTER + INTRA:         -11.360
REMARK INTER:                 -10.377
REMARK INTRA:                  -0.983
REMARK UNBOUND:                -1.074
REMARK  Name = 
REMARK  7 active torsions:
REMARK  status: ('A' for Active; 'I' for Inactive)
REMARK    1  A    between atoms: C_1  and  C_2
REMARK    2  A    between atoms: C_2  and  N_3
REMARK    3  A    between atoms: N_3  and  C_4
REMARK    4  A    between atoms: C_4  and  C_5
REMARK    5  A    between atoms: N_8  and  C_9
REMARK    6  A    between atoms: C_16  and  C_17
REMARK    7  A    between atoms: N_21  and  C_22
REMARK                            x       y       z     vdW  Elec       q    Type
REMARK                         _______ _______ _______ _____ _____    ______ ____
ROOT
ATOM      1  C   UNL     1      24.102   3.101  51.851  0.00  0.00    +0.000 A 
ATOM      2  C   UNL     1      23.777   4.387  51.400  0.00  0.00    +0.000 A 
ATOM      3  F   UNL     1      24.735   5.287  51.134  0.00  0.00    +0.000 F 
ATOM      4  C   UNL     1      22.461   4.766  51.151  0.00  0.00    +0.000 A 
ATOM      5  C   UNL     1      21.415   3.861  51.365  0.00  0.00    +0.000 A 
ATOM      6  C   UNL     1      20.031   4.315  51.087  0.00  0.00    +0.000 A 
ATOM      7  O   UNL     1      19.843   5.445  50.649  0.00  0.00    +0.000 OA
ATOM      8  C   UNL     1      18.941   3.348  51.315  0.00  0.00    +0.000 A 
ATOM      9  C   UNL     1      19.286   2.131  51.764  0.00  0.00    +0.000 A 
ATOM     10  N   UNL     1      20.558   1.656  52.074  0.00  0.00    +0.000 N 
ATOM     11  C   UNL     1      21.664   2.553  51.817  0.00  0.00    +0.000 A 
ATOM     12  C   UNL     1      23.021   2.197  52.011  0.00  0.00    +0.000 A 
ATOM     13  F   UNL     1      23.330   0.940  52.372  0.00  0.00    +0.000 F 
ENDROOT
BRANCH   1  17
ATOM     14  C   UNL     1      26.765   1.281  53.516  0.00  0.00    +0.000 C 
ATOM     15  C   UNL     1      26.523   0.586  52.177  0.00  0.00    +0.000 C 
ATOM     16  C   UNL     1      26.135   1.746  51.268  0.00  0.00    +0.000 C 
ATOM     17  N   UNL     1      25.402   2.672  52.140  0.00  0.00    +0.000 N 
ATOM     18  C   UNL     1      25.647   2.335  53.553  0.00  0.00    +0.000 C 
BRANCH  14  19
ATOM     19  C   UNL     1      26.716   0.353  54.732  0.00  0.00    +0.000 C 
BRANCH  19  20
ATOM     20  N   UNL     1      27.973  -0.382  54.902  0.00  0.00    +0.000 N 
ATOM     21  H   UNL     1      28.111  -0.580  55.893  0.00  0.00    +0.000 HD
ATOM     22  H   UNL     1      27.916  -1.249  54.369  0.00  0.00    +0.000 HD
BRANCH  20  24
ATOM     23  C   UNL     1      30.033  -0.485  53.584  0.00  0.00    +0.000 C 
ATOM     24  C   UNL     1      29.107   0.399  54.407  0.00  0.00    +0.000 C 
ENDBRANCH  20  24
ENDBRANCH  19  20
ENDBRANCH  14  19
ENDBRANCH   1  17
BRANCH  10  25
ATOM     25  C   UNL     1      20.775   0.351  52.704  0.00  0.00    +0.000 C 
ATOM     26  C   UNL     1      19.504  -0.535  52.733  0.00  0.00    +0.000 C 
ATOM     27  C   UNL     1      20.020  -1.095  54.076  0.00  0.00    +0.000 C 
ATOM     28  C   UNL     1      20.782   0.234  54.254  0.00  0.00    +0.000 C 
ENDBRANCH  10  25
BRANCH   8  29
ATOM     29  C   UNL     1      17.507   3.605  51.105  0.00  0.00    +0.000 C 
ATOM     30  O   UNL     1      16.808   4.329  51.794  0.00  0.00    +0.000 OA
ATOM     31  O   UNL     1      17.004   3.011  50.014  0.00  0.00    +0.000 OA
ENDBRANCH   8  29
TORSDOF 6
ENDMDL
MODEL 7
REMARK VINA RESULT:    -7.586      3.655      7.342
REMARK INTER + INTRA:         -11.321
REMARK INTER:                 -10.787
REMARK INTRA:                  -0.534
REMARK UNBOUND:                -1.074
REMARK  Name = 
REMARK  7 active torsions:
REMARK  status: ('A' for Active; 'I' for Inactive)
REMARK    1  A    between atoms: C_1  and  C_2
REMARK    2  A    between atoms: C_2  and  N_3
REMARK    3  A    between atoms: N_3  and  C_4
REMARK    4  A    between atoms: C_4  and  C_5
REMARK    5  A    between atoms: N_8  and  C_9
REMARK    6  A    between atoms: C_16  and  C_17
REMARK    7  A    between atoms: N_21  and  C_22
REMARK                            x       y       z     vdW  Elec       q    Type
REMARK                         _______ _______ _______ _____ _____    ______ ____
ROOT
ATOM      1  C   UNL     1      23.506  -0.671  53.716  0.00  0.00    +0.000 A 
ATOM      2  C   UNL     1      22.549  -1.329  54.500  0.00  0.00    +0.000 A 
ATOM      3  F   UNL     1      22.909  -2.026  55.588  0.00  0.00    +0.000 F 
ATOM      4  C   UNL     1      21.188  -1.241  54.225  0.00  0.00    +0.000 A 
ATOM      5  C   UNL     1      20.739  -0.493  53.129  0.00  0.00    +0.000 A 
ATOM      6  C   UNL     1      19.279  -0.433  52.877  0.00  0.00    +0.000 A 
ATOM      7  O   UNL     1      18.510  -1.002  53.643  0.00  0.00    +0.000 OA
ATOM      8  C   UNL     1      18.823   0.362  51.720  0.00  0.00    +0.000 A 
ATOM      9  C   UNL     1      19.767   0.963  50.980  0.00  0.00    +0.000 A 
ATOM     10  N   UNL     1      21.149   0.918  51.145  0.00  0.00    +0.000 N 
ATOM     11  C   UNL     1      21.640   0.194  52.297  0.00  0.00    +0.000 A 
ATOM     12  C   UNL     1      23.011   0.113  52.645  0.00  0.00    +0.000 A 
ATOM     13  F   UNL     1      23.916   0.807  51.932  0.00  0.00    +0.000 F 
ENDROOT
BRANCH   1  17
ATOM     14  C   UNL     1      27.015   0.221  53.457  0.00  0.00    +0.000 C 
ATOM     15  C   UNL     1      26.534   0.704  54.825  0.00  0.00    +0.000 C 
ATOM     16  C   UNL     1      25.504  -0.352  55.204  0.00  0.00    +0.000 C 
ATOM     17  N   UNL     1      24.887  -0.744  53.932  0.00  0.00    +0.000 N 
ATOM     18  C   UNL     1      25.717  -0.284  52.806  0.00  0.00    +0.000 C 
BRANCH  14  19
ATOM     19  C   UNL     1      27.701   1.294  52.608  0.00  0.00    +0.000 C 
BRANCH  19  20
ATOM     20  N   UNL     1      26.807   2.424  52.338  0.00  0.00    +0.000 N 
ATOM     21  H   UNL     1      25.898   2.238  52.764  0.00  0.00    +0.000 HD
ATOM     22  H   UNL     1      27.221   3.267  52.735  0.00  0.00    +0.000 HD
BRANCH  20  24
ATOM     23  C   UNL     1      25.480   3.581  50.639  0.00  0.00    +0.000 C 
ATOM     24  C   UNL     1      26.631   2.620  50.899  0.00  0.00    +0.000 C 
ENDBRANCH  20  24
ENDBRANCH  19  20
ENDBRANCH  14  19
ENDBRANCH   1  17
BRANCH  10  25
ATOM     25  C   UNL     1      22.074   1.499  50.167  0.00  0.00    +0.000 C 
ATOM     26  C   UNL     1      21.891   3.027  49.982  0.00  0.00    +0.000 C 
ATOM     27  C   UNL     1      22.289   2.817  48.506  0.00  0.00    +0.000 C 
ATOM     28  C   UNL     1      21.772   1.370  48.648  0.00  0.00    +0.000 C 
ENDBRANCH  10  25
BRANCH   8  29
ATOM     29  C   UNL     1      17.424   0.541  51.300  0.00  0.00    +0.000 C 
ATOM     30  O   UNL     1      16.692  -0.338  50.877  0.00  0.00    +0.000 OA
ATOM     31  O   UNL     1      16.959   1.785  51.480  0.00  0.00    +0.000 OA
ENDBRANCH   8  29
TORSDOF 6
ENDMDL
MODEL 8
REMARK VINA RESULT:    -7.549      3.928      7.268
REMARK INTER + INTRA:         -11.271
REMARK INTER:                 -10.282
REMARK INTRA:                  -0.989
REMARK UNBOUND:                -1.074
REMARK  Name = 
REMARK  7 active torsions:
REMARK  status: ('A' for Active; 'I' for Inactive)
REMARK    1  A    between atoms: C_1  and  C_2
REMARK    2  A    between atoms: C_2  and  N_3
REMARK    3  A    between atoms: N_3  and  C_4
REMARK    4  A    between atoms: C_4  and  C_5
REMARK    5  A    between atoms: N_8  and  C_9
REMARK    6  A    between atoms: C_16  and  C_17
REMARK    7  A    between atoms: N_21  and  C_22
REMARK                            x       y       z     vdW  Elec       q    Type
REMARK                         _______ _______ _______ _____ _____    ______ ____
ROOT
ATOM      1  C   UNL     1      23.328  -0.247  53.426  0.00  0.00    +0.000 A 
ATOM      2  C   UNL     1      22.106  -0.931  53.390  0.00  0.00    +0.000 A 
ATOM      3  F   UNL     1      22.002  -2.183  53.861  0.00  0.00    +0.000 F 
ATOM      4  C   UNL     1      20.941  -0.328  52.926  0.00  0.00    +0.000 A 
ATOM      5  C   UNL     1      20.969   0.993  52.461  0.00  0.00    +0.000 A 
ATOM      6  C   UNL     1      19.702   1.589  51.974  0.00  0.00    +0.000 A 
ATOM      7  O   UNL     1      18.667   0.931  52.024  0.00  0.00    +0.000 OA
ATOM      8  C   UNL     1      19.749   2.981  51.491  0.00  0.00    +0.000 A 
ATOM      9  C   UNL     1      20.939   3.600  51.522  0.00  0.00    +0.000 A 
ATOM     10  N   UNL     1      22.166   3.087  51.935  0.00  0.00    +0.000 N 
ATOM     11  C   UNL     1      22.159   1.742  52.466  0.00  0.00    +0.000 A 
ATOM     12  C   UNL     1      23.308   1.102  52.991  0.00  0.00    +0.000 A 
ATOM     13  F   UNL     1      24.460   1.788  53.090  0.00  0.00    +0.000 F 
ENDROOT
BRANCH   1  17
ATOM     14  C   UNL     1      26.913  -0.658  53.820  0.00  0.00    +0.000 C 
ATOM     15  C   UNL     1      26.389  -0.058  55.125  0.00  0.00    +0.000 C 
ATOM     16  C   UNL     1      25.006  -0.685  55.243  0.00  0.00    +0.000 C 
ATOM     17  N   UNL     1      24.534  -0.810  53.859  0.00  0.00    +0.000 N 
ATOM     18  C   UNL     1      25.663  -0.657  52.926  0.00  0.00    +0.000 C 
BRANCH  14  19
ATOM     19  C   UNL     1      28.072   0.115  53.185  0.00  0.00    +0.000 C 
BRANCH  19  20
ATOM     20  N   UNL     1      29.202   0.250  54.108  0.00  0.00    +0.000 N 
ATOM     21  H   UNL     1      28.993  -0.260  54.967  0.00  0.00    +0.000 HD
ATOM     22  H   UNL     1      30.034  -0.133  53.659  0.00  0.00    +0.000 HD
BRANCH  20  24
ATOM     23  C   UNL     1      28.595   2.555  53.552  0.00  0.00    +0.000 C 
ATOM     24  C   UNL     1      29.449   1.655  54.433  0.00  0.00    +0.000 C 
ENDBRANCH  20  24
ENDBRANCH  19  20
ENDBRANCH  14  19
ENDBRANCH   1  17
BRANCH  10  25
ATOM     25  C   UNL     1      23.420   3.828  51.769  0.00  0.00    +0.000 C 
ATOM     26  C   UNL     1      23.218   5.361  51.662  0.00  0.00    +0.000 C 
ATOM     27  C   UNL     1      24.431   5.375  50.708  0.00  0.00    +0.000 C 
ATOM     28  C   UNL     1      24.090   3.909  50.369  0.00  0.00    +0.000 C 
ENDBRANCH  10  25
BRANCH   8  29
ATOM     29  C   UNL     1      18.607   3.747  50.965  0.00  0.00    +0.000 C 
ATOM     30  O   UNL     1      18.503   4.175  49.828  0.00  0.00    +0.000 OA
ATOM     31  O   UNL     1      17.605   3.898  51.842  0.00  0.00    +0.000 OA
ENDBRANCH   8  29
TORSDOF 6
ENDMDL
MODEL 9
REMARK VINA RESULT:    -7.520      2.967      6.076
REMARK INTER + INTRA:         -11.232
REMARK INTER:                  -9.794
REMARK INTRA:                  -1.438
REMARK UNBOUND:                -1.074
REMARK  Name = 
REMARK  7 active torsions:
REMARK  status: ('A' for Active; 'I' for Inactive)
REMARK    1  A    between atoms: C_1  and  C_2
REMARK    2  A    between atoms: C_2  and  N_3
REMARK    3  A    between atoms: N_3  and  C_4
REMARK    4  A    between atoms: C_4  and  C_5
REMARK    5  A    between atoms: N_8  and  C_9
REMARK    6  A    between atoms: C_16  and  C_17
REMARK    7  A    between atoms: N_21  and  C_22
REMARK                            x       y       z     vdW  Elec       q    Type
REMARK                         _______ _______ _______ _____ _____    ______ ____
ROOT
ATOM      1  C   UNL     1      22.527   3.563  50.907  0.00  0.00    +0.000 A 
ATOM      2  C   UNL     1      23.767   3.761  50.286  0.00  0.00    +0.000 A 
ATOM      3  F   UNL     1      23.945   4.752  49.400  0.00  0.00    +0.000 F 
ATOM      4  C   UNL     1      24.878   2.984  50.601  0.00  0.00    +0.000 A 
ATOM      5  C   UNL     1      24.774   1.959  51.549  0.00  0.00    +0.000 A 
ATOM      6  C   UNL     1      25.986   1.159  51.848  0.00  0.00    +0.000 A 
ATOM      7  O   UNL     1      27.043   1.433  51.290  0.00  0.00    +0.000 OA
ATOM      8  C   UNL     1      25.859   0.085  52.852  0.00  0.00    +0.000 A 
ATOM      9  C   UNL     1      24.654  -0.089  53.413  0.00  0.00    +0.000 A 
ATOM     10  N   UNL     1      23.474   0.605  53.154  0.00  0.00    +0.000 N 
ATOM     11  C   UNL     1      23.562   1.701  52.214  0.00  0.00    +0.000 A 
ATOM     12  C   UNL     1      22.472   2.548  51.895  0.00  0.00    +0.000 A 
ATOM     13  F   UNL     1      21.307   2.399  52.549  0.00  0.00    +0.000 F 
ENDROOT
BRANCH   1  17
ATOM     14  C   UNL     1      20.478   6.434  50.050  0.00  0.00    +0.000 C 
ATOM     15  C   UNL     1      20.615   5.593  48.782  0.00  0.00    +0.000 C 
ATOM     16  C   UNL     1      20.668   4.173  49.331  0.00  0.00    +0.000 C 
ATOM     17  N   UNL     1      21.372   4.296  50.613  0.00  0.00    +0.000 N 
ATOM     18  C   UNL     1      21.407   5.707  51.036  0.00  0.00    +0.000 C 
BRANCH  14  19
ATOM     19  C   UNL     1      20.861   7.906  49.882  0.00  0.00    +0.000 C 
BRANCH  19  20
ATOM     20  N   UNL     1      21.655   8.123  48.670  0.00  0.00    +0.000 N 
ATOM     21  H   UNL     1      21.986   7.222  48.323  0.00  0.00    +0.000 HD
ATOM     22  H   UNL     1      21.066   8.579  47.974  0.00  0.00    +0.000 HD
BRANCH  20  24
ATOM     23  C   UNL     1      23.835   8.230  49.778  0.00  0.00    +0.000 C 
ATOM     24  C   UNL     1      22.807   8.983  48.945  0.00  0.00    +0.000 C 
ENDBRANCH  20  24
ENDBRANCH  19  20
ENDBRANCH  14  19
ENDBRANCH   1  17
BRANCH  10  25
ATOM     25  C   UNL     1      22.187   0.206  53.731  0.00  0.00    +0.000 C 
ATOM     26  C   UNL     1      22.323  -0.830  54.875  0.00  0.00    +0.000 C 
ATOM     27  C   UNL     1      20.978  -1.417  54.398  0.00  0.00    +0.000 C 
ATOM     28  C   UNL     1      21.308  -0.848  53.003  0.00  0.00    +0.000 C 
ENDBRANCH  10  25
BRANCH   8  29
ATOM     29  C   UNL     1      26.938  -0.819  53.282  0.00  0.00    +0.000 C 
ATOM     30  O   UNL     1      27.198  -1.900  52.781  0.00  0.00    +0.000 OA
ATOM     31  O   UNL     1      27.698  -0.327  54.269  0.00  0.00    +0.000 OA
ENDBRANCH   8  29
TORSDOF 6
ENDMDL
