MODEL 1
REMARK VINA RESULT:    -8.433      0.000      0.000
REMARK INTER + INTRA:         -12.173
REMARK INTER:                 -11.883
REMARK INTRA:                  -0.290
REMARK UNBOUND:                -0.290
REMARK  Name = 
REMARK  12 active torsions:
REMARK  status: ('A' for Active; 'I' for Inactive)
REMARK    1  A    between atoms: C_1  and  C_2
REMARK    2  A    between atoms: C_2  and  N_3
REMARK    3  A    between atoms: N_3  and  C_4
REMARK    4  A    between atoms: N_3  and  C_6
REMARK    5  A    between atoms: C_4  and  C_5
REMARK    6  A    between atoms: C_6  and  C_7
REMARK    7  A    between atoms: C_7  and  N_8
REMARK    8  A    between atoms: N_8  and  C_9
REMARK    9  A    between atoms: C_19  and  C_20
REMARK   10  A    between atoms: C_20  and  C_21
REMARK   11  A    between atoms: C_20  and  C_22
REMARK   12  A    between atoms: C_20  and  C_23
REMARK                            x       y       z     vdW  Elec       q    Type
REMARK                         _______ _______ _______ _____ _____    ______ ____
ROOT
ATOM      1  C   UNL     1      23.472  -0.551  53.696  0.00  0.00    +0.000 A 
ATOM      2  C   UNL     1      22.517  -0.984  54.639  0.00  0.00    +0.000 A 
ATOM      3  C   UNL     1      21.121  -0.794  54.474  0.00  0.00    +0.000 A 
ATOM      4  C   UNL     1      20.701  -0.273  53.254  0.00  0.00    +0.000 A 
ATOM      5  N   UNL     1      19.467  -0.060  52.682  0.00  0.00    +0.000 NA
ATOM      6  C   UNL     1      19.720   0.424  51.474  0.00  0.00    +0.000 A 
ATOM      7  N   UNL     1      21.065   0.468  51.236  0.00  0.00    +0.000 N 
ATOM      8  C   UNL     1      21.842   0.974  50.185  0.00  0.00    +0.000 A 
ATOM      9  C   UNL     1      21.525   0.936  48.851  0.00  0.00    +0.000 A 
ATOM     10  C   UNL     1      21.962   2.025  48.136  0.00  0.00    +0.000 A 
ATOM     11  C   UNL     1      22.080   3.213  48.859  0.00  0.00    +0.000 A 
ATOM     12  C   UNL     1      22.971   3.006  49.945  0.00  0.00    +0.000 A 
ATOM     13  C   UNL     1      22.893   1.789  50.600  0.00  0.00    +0.000 A 
ATOM     14  C   UNL     1      23.729   1.262  51.750  0.00  0.00    +0.000 A 
ATOM     15  O   UNL     1      24.885   1.600  51.898  0.00  0.00    +0.000 OA
ATOM     16  C   UNL     1      23.027   0.300  52.686  0.00  0.00    +0.000 A 
ATOM     17  C   UNL     1      21.669   0.187  52.416  0.00  0.00    +0.000 A 
ENDROOT
BRANCH  11  18
ATOM     18  C   UNL     1      20.618   3.871  49.170  0.00  0.00    +0.000 C 
ATOM     19  C   UNL     1      19.416   3.074  48.539  0.00  0.00    +0.000 C 
ATOM     20  C   UNL     1      20.312   4.045  50.680  0.00  0.00    +0.000 C 
ATOM     21  C   UNL     1      20.509   5.256  48.509  0.00  0.00    +0.000 C 
ENDBRANCH  11  18
BRANCH   1  22
ATOM     22  N   UNL     1      24.809  -0.977  53.749  0.00  0.00    +0.000 N 
ATOM     23  H   UNL     1      25.201  -1.485  53.000  0.00  0.00    +0.000 HD
BRANCH  22  24
ATOM     24  C   UNL     1      25.621  -0.656  54.942  0.00  0.00    +0.000 C 
BRANCH  24  25
ATOM     25  C   UNL     1      26.744   0.417  54.752  0.00  0.00    +0.000 C 
BRANCH  25  26
ATOM     26  N   UNL     1      28.123  -0.072  54.520  0.00  0.00    +0.000 N 
ATOM     27  H   UNL     1      28.382  -0.650  55.319  0.00  0.00    +0.000 HD
BRANCH  26  29
ATOM     28  C   UNL     1      29.479  -1.798  53.334  0.00  0.00    +0.000 C 
ATOM     29  C   UNL     1      28.206  -0.957  53.348  0.00  0.00    +0.000 C 
ENDBRANCH  26  29
BRANCH  26  30
ATOM     30  C   UNL     1      29.096   1.042  54.481  0.00  0.00    +0.000 C 
ATOM     31  C   UNL     1      28.714   2.302  53.702  0.00  0.00    +0.000 C 
ENDBRANCH  26  30
ENDBRANCH  25  26
ENDBRANCH  24  25
ENDBRANCH  22  24
ENDBRANCH   1  22
TORSDOF 7
ENDMDL
MODEL 2
REMARK VINA RESULT:    -8.151      2.457      6.733
REMARK INTER + INTRA:         -11.776
REMARK INTER:                 -10.560
REMARK INTRA:                  -1.217
REMARK UNBOUND:                -0.290
REMARK  Name = 
REMARK  12 active torsions:
REMARK  status: ('A' for Active; 'I' for Inactive)
REMARK    1  A    between atoms: C_1  and  C_2
REMARK    2  A    between atoms: C_2  and  N_3
REMARK    3  A    between atoms: N_3  and  C_4
REMARK    4  A    between atoms: N_3  and  C_6
REMARK    5  A    between atoms: C_4  and  C_5
REMARK    6  A    between atoms: C_6  and  C_7
REMARK    7  A    between atoms: C_7  and  N_8
REMARK    8  A    between atoms: N_8  and  C_9
REMARK    9  A    between atoms: C_19  and  C_20
REMARK   10  A    between atoms: C_20  and  C_21
REMARK   11  A    between atoms: C_20  and  C_22
REMARK   12  A    between atoms: C_20  and  C_23
REMARK                            x       y       z     vdW  Elec       q    Type
REMARK                         _______ _______ _______ _____ _____    ______ ____
ROOT
ATOM      1  C   UNL     1      21.916   2.328  49.956  0.00  0.00    +0.000 A 
ATOM      2  C   UNL     1      20.851   1.415  50.099  0.00  0.00    +0.000 A 
ATOM      3  C   UNL     1      20.855   0.361  51.049  0.00  0.00    +0.000 A 
ATOM      4  C   UNL     1      21.913   0.336  51.952  0.00  0.00    +0.000 A 
ATOM      5  N   UNL     1      22.204  -0.427  53.060  0.00  0.00    +0.000 NA
ATOM      6  C   UNL     1      23.343   0.060  53.531  0.00  0.00    +0.000 A 
ATOM      7  N   UNL     1      23.753   1.141  52.802  0.00  0.00    +0.000 N 
ATOM      8  C   UNL     1      24.908   1.935  52.820  0.00  0.00    +0.000 A 
ATOM      9  C   UNL     1      25.612   2.318  53.933  0.00  0.00    +0.000 A 
ATOM     10  C   UNL     1      26.968   2.416  53.738  0.00  0.00    +0.000 A 
ATOM     11  C   UNL     1      27.497   1.585  52.749  0.00  0.00    +0.000 A 
ATOM     12  C   UNL     1      26.847   1.860  51.518  0.00  0.00    +0.000 A 
ATOM     13  C   UNL     1      25.488   2.118  51.566  0.00  0.00    +0.000 A 
ATOM     14  C   UNL     1      24.538   2.485  50.441  0.00  0.00    +0.000 A 
ATOM     15  O   UNL     1      24.920   3.104  49.470  0.00  0.00    +0.000 OA
ATOM     16  C   UNL     1      23.106   2.026  50.616  0.00  0.00    +0.000 A 
ATOM     17  C   UNL     1      22.940   1.198  51.719  0.00  0.00    +0.000 A 
ENDROOT
BRANCH  11  18
ATOM     18  C   UNL     1      27.576   0.033  53.254  0.00  0.00    +0.000 C 
ATOM     19  C   UNL     1      27.098  -0.176  54.740  0.00  0.00    +0.000 C 
ATOM     20  C   UNL     1      26.779  -0.959  52.371  0.00  0.00    +0.000 C 
ATOM     21  C   UNL     1      29.040  -0.440  53.284  0.00  0.00    +0.000 C 
ENDBRANCH  11  18
BRANCH   1  22
ATOM     22  N   UNL     1      21.782   3.508  49.205  0.00  0.00    +0.000 N 
ATOM     23  H   UNL     1      22.235   3.600  48.335  0.00  0.00    +0.000 HD
BRANCH  22  24
ATOM     24  C   UNL     1      20.955   4.611  49.739  0.00  0.00    +0.000 C 
BRANCH  24  25
ATOM     25  C   UNL     1      21.723   5.792  50.420  0.00  0.00    +0.000 C 
BRANCH  25  26
ATOM     26  N   UNL     1      23.202   5.777  50.344  0.00  0.00    +0.000 N 
ATOM     27  H   UNL     1      23.478   4.906  49.890  0.00  0.00    +0.000 HD
BRANCH  26  29
ATOM     28  C   UNL     1      23.898   8.171  50.236  0.00  0.00    +0.000 C 
ATOM     29  C   UNL     1      23.723   6.853  49.487  0.00  0.00    +0.000 C 
ENDBRANCH  26  29
BRANCH  26  30
ATOM     30  C   UNL     1      23.816   5.754  51.690  0.00  0.00    +0.000 C 
ATOM     31  C   UNL     1      23.100   4.969  52.792  0.00  0.00    +0.000 C 
ENDBRANCH  26  30
ENDBRANCH  25  26
ENDBRANCH  24  25
ENDBRANCH  22  24
ENDBRANCH   1  22
TORSDOF 7
ENDMDL
MODEL 3
REMARK VINA RESULT:    -7.777      2.460      3.664
REMARK INTER + INTRA:         -11.249
REMARK INTER:                 -10.423
REMARK INTRA:                  -0.827
REMARK UNBOUND:                -0.290
REMARK  Name = 
REMARK  12 active torsions:
REMARK  status: ('A' for Active; 'I' for Inactive)
REMARK    1  A    between atoms: C_1  and  C_2
REMARK    2  A    between atoms: C_2  and  N_3
REMARK    3  A    between atoms: N_3  and  C_4
REMARK    4  A    between atoms: N_3  and  C_6
REMARK    5  A    between atoms: C_4  and  C_5
REMARK    6  A    between atoms: C_6  and  C_7
REMARK    7  A    between atoms: C_7  and  N_8
REMARK    8  A    between atoms: N_8  and  C_9
REMARK    9  A    between atoms: C_19  and  C_20
REMARK   10  A    between atoms: C_20  and  C_21
REMARK   11  A    between atoms: C_20  and  C_22
REMARK   12  A    between atoms: C_20  and  C_23
REMARK                            x       y       z     vdW  Elec       q    Type
REMARK                         _______ _______ _______ _____ _____    ______ ____
ROOT
ATOM      1  C   UNL     1      22.910   0.907  52.444  0.00  0.00    +0.000 A 
ATOM      2  C   UNL     1      21.908   0.126  51.833  0.00  0.00    +0.000 A 
ATOM      3  C   UNL     1      21.353   0.431  50.563  0.00  0.00    +0.000 A 
ATOM      4  C   UNL     1      21.940   1.477  49.858  0.00  0.00    +0.000 A 
ATOM      5  N   UNL     1      21.773   1.985  48.590  0.00  0.00    +0.000 NA
ATOM      6  C   UNL     1      22.660   2.964  48.485  0.00  0.00    +0.000 A 
ATOM      7  N   UNL     1      23.424   3.056  49.615  0.00  0.00    +0.000 N 
ATOM      8  C   UNL     1      24.405   3.960  50.045  0.00  0.00    +0.000 A 
ATOM      9  C   UNL     1      25.354   4.561  49.257  0.00  0.00    +0.000 A 
ATOM     10  C   UNL     1      25.682   5.838  49.644  0.00  0.00    +0.000 A 
ATOM     11  C   UNL     1      24.674   6.546  50.301  0.00  0.00    +0.000 A 
ATOM     12  C   UNL     1      24.275   5.820  51.453  0.00  0.00    +0.000 A 
ATOM     13  C   UNL     1      24.204   4.442  51.337  0.00  0.00    +0.000 A 
ATOM     14  C   UNL     1      23.858   3.405  52.387  0.00  0.00    +0.000 A 
ATOM     15  O   UNL     1      24.109   3.586  53.561  0.00  0.00    +0.000 OA
ATOM     16  C   UNL     1      23.185   2.149  51.874  0.00  0.00    +0.000 A 
ATOM     17  C   UNL     1      22.852   2.233  50.527  0.00  0.00    +0.000 A 
ENDROOT
BRANCH  11  18
ATOM     18  C   UNL     1      23.519   7.046  49.260  0.00  0.00    +0.000 C 
ATOM     19  C   UNL     1      23.831   6.705  47.755  0.00  0.00    +0.000 C 
ATOM     20  C   UNL     1      22.106   6.492  49.573  0.00  0.00    +0.000 C 
ATOM     21  C   UNL     1      23.430   8.582  49.264  0.00  0.00    +0.000 C 
ENDBRANCH  11  18
BRANCH   1  22
ATOM     22  N   UNL     1      23.625   0.449  53.563  0.00  0.00    +0.000 N 
ATOM     23  H   UNL     1      23.397   0.769  54.466  0.00  0.00    +0.000 HD
BRANCH  22  24
ATOM     24  C   UNL     1      24.728  -0.517  53.367  0.00  0.00    +0.000 C 
BRANCH  24  25
ATOM     25  C   UNL     1      26.042  -0.247  54.171  0.00  0.00    +0.000 C 
BRANCH  25  26
ATOM     26  N   UNL     1      27.227   0.209  53.409  0.00  0.00    +0.000 N 
ATOM     27  H   UNL     1      27.277  -0.350  52.557  0.00  0.00    +0.000 HD
BRANCH  26  29
ATOM     28  C   UNL     1      26.849   1.719  51.459  0.00  0.00    +0.000 C 
ATOM     29  C   UNL     1      27.094   1.603  52.961  0.00  0.00    +0.000 C 
ENDBRANCH  26  29
BRANCH  26  30
ATOM     30  C   UNL     1      28.483  -0.051  54.148  0.00  0.00    +0.000 C 
ATOM     31  C   UNL     1      29.460  -1.073  53.564  0.00  0.00    +0.000 C 
ENDBRANCH  26  30
ENDBRANCH  25  26
ENDBRANCH  24  25
ENDBRANCH  22  24
ENDBRANCH   1  22
TORSDOF 7
ENDMDL
MODEL 4
REMARK VINA RESULT:    -7.348      1.811      6.554
REMARK INTER + INTRA:         -10.644
REMARK INTER:                  -9.785
REMARK INTRA:                  -0.859
REMARK UNBOUND:                -0.290
REMARK  Name = 
REMARK  12 active torsions:
REMARK  status: ('A' for Active; 'I' for Inactive)
REMARK    1  A    between atoms: C_1  and  C_2
REMARK    2  A    between atoms: C_2  and  N_3
REMARK    3  A    between atoms: N_3  and  C_4
REMARK    4  A    between atoms: N_3  and  C_6
REMARK    5  A    between atoms: C_4  and  C_5
REMARK    6  A    between atoms: C_6  and  C_7
REMARK    7  A    between atoms: C_7  and  N_8
REMARK    8  A    between atoms: N_8  and  C_9
REMARK    9  A    between atoms: C_19  and  C_20
REMARK   10  A    between atoms: C_20  and  C_21
REMARK   11  A    between atoms: C_20  and  C_22
REMARK   12  A    between atoms: C_20  and  C_23
REMARK                            x       y       z     vdW  Elec       q    Type
REMARK                         _______ _______ _______ _____ _____    ______ ____
ROOT
ATOM      1  C   UNL     1      21.065   0.530  52.344  0.00  0.00    +0.000 A 
ATOM      2  C   UNL     1      20.356  -0.472  53.040  0.00  0.00    +0.000 A 
ATOM      3  C   UNL     1      20.949  -1.296  54.031  0.00  0.00    +0.000 A 
ATOM      4  C   UNL     1      22.254  -0.988  54.403  0.00  0.00    +0.000 A 
ATOM      5  N   UNL     1      23.104  -1.458  55.378  0.00  0.00    +0.000 NA
ATOM      6  C   UNL     1      24.207  -0.732  55.261  0.00  0.00    +0.000 A 
ATOM      7  N   UNL     1      24.066   0.220  54.291  0.00  0.00    +0.000 N 
ATOM      8  C   UNL     1      24.943   1.151  53.719  0.00  0.00    +0.000 A 
ATOM      9  C   UNL     1      25.925   1.849  54.374  0.00  0.00    +0.000 A 
ATOM     10  C   UNL     1      27.047   2.091  53.618  0.00  0.00    +0.000 A 
ATOM     11  C   UNL     1      27.314   1.153  52.619  0.00  0.00    +0.000 A 
ATOM     12  C   UNL     1      26.196   1.076  51.747  0.00  0.00    +0.000 A 
ATOM     13  C   UNL     1      24.940   1.149  52.325  0.00  0.00    +0.000 A 
ATOM     14  C   UNL     1      23.576   1.142  51.663  0.00  0.00    +0.000 A 
ATOM     15  O   UNL     1      23.412   1.593  50.549  0.00  0.00    +0.000 OA
ATOM     16  C   UNL     1      22.453   0.537  52.479  0.00  0.00    +0.000 A 
ATOM     17  C   UNL     1      22.905  -0.059  53.650  0.00  0.00    +0.000 A 
ENDROOT
BRANCH  11  18
ATOM     18  C   UNL     1      27.906  -0.235  53.245  0.00  0.00    +0.000 C 
ATOM     19  C   UNL     1      29.406  -0.516  52.857  0.00  0.00    +0.000 C 
ATOM     20  C   UNL     1      27.807  -0.323  54.789  0.00  0.00    +0.000 C 
ATOM     21  C   UNL     1      27.156  -1.443  52.658  0.00  0.00    +0.000 C 
ENDBRANCH  11  18
BRANCH   1  22
ATOM     22  N   UNL     1      20.408   1.499  51.569  0.00  0.00    +0.000 N 
ATOM     23  H   UNL     1      20.099   1.285  50.658  0.00  0.00    +0.000 HD
BRANCH  22  24
ATOM     24  C   UNL     1      20.186   2.846  52.137  0.00  0.00    +0.000 C 
BRANCH  24  25
ATOM     25  C   UNL     1      20.352   4.052  51.155  0.00  0.00    +0.000 C 
BRANCH  25  26
ATOM     26  N   UNL     1      21.473   4.988  51.406  0.00  0.00    +0.000 N 
ATOM     27  H   UNL     1      21.070   5.876  51.705  0.00  0.00    +0.000 HD
BRANCH  26  29
ATOM     28  C   UNL     1      23.811   4.766  52.249  0.00  0.00    +0.000 C 
ATOM     29  C   UNL     1      22.325   4.544  52.520  0.00  0.00    +0.000 C 
ENDBRANCH  26  29
BRANCH  26  30
ATOM     30  C   UNL     1      22.231   5.274  50.168  0.00  0.00    +0.000 C 
ATOM     31  C   UNL     1      21.959   4.400  48.942  0.00  0.00    +0.000 C 
ENDBRANCH  26  30
ENDBRANCH  25  26
ENDBRANCH  24  25
ENDBRANCH  22  24
ENDBRANCH   1  22
TORSDOF 7
ENDMDL
MODEL 5
REMARK VINA RESULT:    -7.197      2.153      7.747
REMARK INTER + INTRA:         -10.431
REMARK INTER:                 -10.072
REMARK INTRA:                  -0.360
REMARK UNBOUND:                -0.290
REMARK  Name = 
REMARK  12 active torsions:
REMARK  status: ('A' for Active; 'I' for Inactive)
REMARK    1  A    between atoms: C_1  and  C_2
REMARK    2  A    between atoms: C_2  and  N_3
REMARK    3  A    between atoms: N_3  and  C_4
REMARK    4  A    between atoms: N_3  and  C_6
REMARK    5  A    between atoms: C_4  and  C_5
REMARK    6  A    between atoms: C_6  and  C_7
REMARK    7  A    between atoms: C_7  and  N_8
REMARK    8  A    between atoms: N_8  and  C_9
REMARK    9  A    between atoms: C_19  and  C_20
REMARK   10  A    between atoms: C_20  and  C_21
REMARK   11  A    between atoms: C_20  and  C_22
REMARK   12  A    between atoms: C_20  and  C_23
REMARK                            x       y       z     vdW  Elec       q    Type
REMARK                         _______ _______ _______ _____ _____    ______ ____
ROOT
ATOM      1  C   UNL     1      21.809   2.142  50.272  0.00  0.00    +0.000 A 
ATOM      2  C   UNL     1      20.783   1.197  50.477  0.00  0.00    +0.000 A 
ATOM      3  C   UNL     1      20.873   0.148  51.428  0.00  0.00    +0.000 A 
ATOM      4  C   UNL     1      21.980   0.160  52.270  0.00  0.00    +0.000 A 
ATOM      5  N   UNL     1      22.356  -0.589  53.363  0.00  0.00    +0.000 NA
ATOM      6  C   UNL     1      23.503  -0.065  53.768  0.00  0.00    +0.000 A 
ATOM      7  N   UNL     1      23.838   1.025  53.015  0.00  0.00    +0.000 N 
ATOM      8  C   UNL     1      24.967   1.854  52.966  0.00  0.00    +0.000 A 
ATOM      9  C   UNL     1      25.719   2.264  54.037  0.00  0.00    +0.000 A 
ATOM     10  C   UNL     1      27.059   2.403  53.766  0.00  0.00    +0.000 A 
ATOM     11  C   UNL     1      27.557   1.584  52.752  0.00  0.00    +0.000 A 
ATOM     12  C   UNL     1      26.832   1.834  51.558  0.00  0.00    +0.000 A 
ATOM     13  C   UNL     1      25.470   2.050  51.681  0.00  0.00    +0.000 A 
ATOM     14  C   UNL     1      24.449   2.382  50.610  0.00  0.00    +0.000 A 
ATOM     15  O   UNL     1      24.756   3.008  49.617  0.00  0.00    +0.000 OA
ATOM     16  C   UNL     1      23.043   1.880  50.865  0.00  0.00    +0.000 A 
ATOM     17  C   UNL     1      22.964   1.053  51.979  0.00  0.00    +0.000 A 
ENDROOT
BRANCH  11  18
ATOM     18  C   UNL     1      27.713   0.038  53.256  0.00  0.00    +0.000 C 
ATOM     19  C   UNL     1      27.292  -0.186  54.757  0.00  0.00    +0.000 C 
ATOM     20  C   UNL     1      26.926  -0.986  52.401  0.00  0.00    +0.000 C 
ATOM     21  C   UNL     1      29.194  -0.378  53.239  0.00  0.00    +0.000 C 
ENDBRANCH  11  18
BRANCH   1  22
ATOM     22  N   UNL     1      21.598   3.314  49.527  0.00  0.00    +0.000 N 
ATOM     23  H   UNL     1      22.320   3.976  49.423  0.00  0.00    +0.000 HD
BRANCH  22  24
ATOM     24  C   UNL     1      20.277   3.541  48.902  0.00  0.00    +0.000 C 
BRANCH  24  25
ATOM     25  C   UNL     1      19.249   4.379  49.731  0.00  0.00    +0.000 C 
BRANCH  25  26
ATOM     26  N   UNL     1      17.903   3.796  49.937  0.00  0.00    +0.000 N 
ATOM     27  H   UNL     1      17.219   4.475  49.602  0.00  0.00    +0.000 HD
BRANCH  26  29
ATOM     28  C   UNL     1      16.248   2.436  48.658  0.00  0.00    +0.000 C 
ATOM     29  C   UNL     1      17.693   2.587  49.126  0.00  0.00    +0.000 C 
ENDBRANCH  26  29
BRANCH  26  30
ATOM     30  C   UNL     1      17.612   3.592  51.374  0.00  0.00    +0.000 C 
ATOM     31  C   UNL     1      16.346   4.233  51.947  0.00  0.00    +0.000 C 
ENDBRANCH  26  30
ENDBRANCH  25  26
ENDBRANCH  24  25
ENDBRANCH  22  24
ENDBRANCH   1  22
TORSDOF 7
ENDMDL
MODEL 6
REMARK VINA RESULT:    -7.159      4.031      5.492
REMARK INTER + INTRA:         -10.378
REMARK INTER:                 -10.190
REMARK INTRA:                  -0.188
REMARK UNBOUND:                -0.290
REMARK  Name = 
REMARK  12 active torsions:
REMARK  status: ('A' for Active; 'I' for Inactive)
REMARK    1  A    between atoms: C_1  and  C_2
REMARK    2  A    between atoms: C_2  and  N_3
REMARK    3  A    between atoms: N_3  and  C_4
REMARK    4  A    between atoms: N_3  and  C_6
REMARK    5  A    between atoms: C_4  and  C_5
REMARK    6  A    between atoms: C_6  and  C_7
REMARK    7  A    between atoms: C_7  and  N_8
REMARK    8  A    between atoms: N_8  and  C_9
REMARK    9  A    between atoms: C_19  and  C_20
REMARK   10  A    between atoms: C_20  and  C_21
REMARK   11  A    between atoms: C_20  and  C_22
REMARK   12  A    between atoms: C_20  and  C_23
REMARK                            x       y       z     vdW  Elec       q    Type
REMARK                         _______ _______ _______ _____ _____    ______ ____
ROOT
ATOM      1  C   UNL     1      26.200   3.015  50.474  0.00  0.00    +0.000 A 
ATOM      2  C   UNL     1      26.901   2.660  51.644  0.00  0.00    +0.000 A 
ATOM      3  C   UNL     1      26.302   1.970  52.729  0.00  0.00    +0.000 A 
ATOM      4  C   UNL     1      24.997   1.524  52.543  0.00  0.00    +0.000 A 
ATOM      5  N   UNL     1      24.141   0.741  53.285  0.00  0.00    +0.000 NA
ATOM      6  C   UNL     1      23.043   0.632  52.552  0.00  0.00    +0.000 A 
ATOM      7  N   UNL     1      23.192   1.262  51.349  0.00  0.00    +0.000 N 
ATOM      8  C   UNL     1      22.321   1.523  50.282  0.00  0.00    +0.000 A 
ATOM      9  C   UNL     1      21.340   0.686  49.813  0.00  0.00    +0.000 A 
ATOM     10  C   UNL     1      20.222   1.333  49.345  0.00  0.00    +0.000 A 
ATOM     11  C   UNL     1      19.954   2.573  49.929  0.00  0.00    +0.000 A 
ATOM     12  C   UNL     1      21.073   3.424  49.741  0.00  0.00    +0.000 A 
ATOM     13  C   UNL     1      22.328   2.850  49.856  0.00  0.00    +0.000 A 
ATOM     14  C   UNL     1      23.695   3.480  49.668  0.00  0.00    +0.000 A 
ATOM     15  O   UNL     1      23.864   4.402  48.897  0.00  0.00    +0.000 OA
ATOM     16  C   UNL     1      24.812   2.887  50.500  0.00  0.00    +0.000 A 
ATOM     17  C   UNL     1      24.353   1.956  51.425  0.00  0.00    +0.000 A 
ENDROOT
BRANCH  11  18
ATOM     18  C   UNL     1      19.352   2.403  51.438  0.00  0.00    +0.000 C 
ATOM     19  C   UNL     1      19.074   0.909  51.847  0.00  0.00    +0.000 C 
ATOM     20  C   UNL     1      20.243   3.024  52.545  0.00  0.00    +0.000 C 
ATOM     21  C   UNL     1      17.964   3.060  51.532  0.00  0.00    +0.000 C 
ENDBRANCH  11  18
BRANCH   1  22
ATOM     22  N   UNL     1      26.864   3.455  49.317  0.00  0.00    +0.000 N 
ATOM     23  H   UNL     1      27.139   2.810  48.624  0.00  0.00    +0.000 HD
BRANCH  22  24
ATOM     24  C   UNL     1      27.148   4.897  49.153  0.00  0.00    +0.000 C 
BRANCH  24  25
ATOM     25  C   UNL     1      28.462   5.266  48.389  0.00  0.00    +0.000 C 
BRANCH  25  26
ATOM     26  N   UNL     1      29.232   6.432  48.882  0.00  0.00    +0.000 N 
ATOM     27  H   UNL     1      29.122   6.466  49.895  0.00  0.00    +0.000 HD
BRANCH  26  29
ATOM     28  C   UNL     1      31.485   7.466  49.165  0.00  0.00    +0.000 C 
ATOM     29  C   UNL     1      30.676   6.281  48.645  0.00  0.00    +0.000 C 
ENDBRANCH  26  29
BRANCH  26  30
ATOM     30  C   UNL     1      28.684   7.705  48.363  0.00  0.00    +0.000 C 
ATOM     31  C   UNL     1      27.892   8.591  49.327  0.00  0.00    +0.000 C 
ENDBRANCH  26  30
ENDBRANCH  25  26
ENDBRANCH  24  25
ENDBRANCH  22  24
ENDBRANCH   1  22
TORSDOF 7
ENDMDL
MODEL 7
REMARK VINA RESULT:    -6.846      2.330      4.313
REMARK INTER + INTRA:          -9.937
REMARK INTER:                  -9.750
REMARK INTRA:                  -0.187
REMARK UNBOUND:                -0.290
REMARK  Name = 
REMARK  12 active torsions:
REMARK  status: ('A' for Active; 'I' for Inactive)
REMARK    1  A    between atoms: C_1  and  C_2
REMARK    2  A    between atoms: C_2  and  N_3
REMARK    3  A    between atoms: N_3  and  C_4
REMARK    4  A    between atoms: N_3  and  C_6
REMARK    5  A    between atoms: C_4  and  C_5
REMARK    6  A    between atoms: C_6  and  C_7
REMARK    7  A    between atoms: C_7  and  N_8
REMARK    8  A    between atoms: N_8  and  C_9
REMARK    9  A    between atoms: C_19  and  C_20
REMARK   10  A    between atoms: C_20  and  C_21
REMARK   11  A    between atoms: C_20  and  C_22
REMARK   12  A    between atoms: C_20  and  C_23
REMARK                            x       y       z     vdW  Elec       q    Type
REMARK                         _______ _______ _______ _____ _____    ______ ____
ROOT
ATOM      1  C   UNL     1      25.905   2.932  50.962  0.00  0.00    +0.000 A 
ATOM      2  C   UNL     1      26.481   3.768  49.984  0.00  0.00    +0.000 A 
ATOM      3  C   UNL     1      25.718   4.621  49.146  0.00  0.00    +0.000 A 
ATOM      4  C   UNL     1      24.356   4.711  49.418  0.00  0.00    +0.000 A 
ATOM      5  N   UNL     1      23.334   5.492  48.926  0.00  0.00    +0.000 NA
ATOM      6  C   UNL     1      22.261   5.141  49.620  0.00  0.00    +0.000 A 
ATOM      7  N   UNL     1      22.575   4.214  50.573  0.00  0.00    +0.000 N 
ATOM      8  C   UNL     1      21.811   3.464  51.478  0.00  0.00    +0.000 A 
ATOM      9  C   UNL     1      20.695   3.894  52.149  0.00  0.00    +0.000 A 
ATOM     10  C   UNL     1      19.749   2.919  52.356  0.00  0.00    +0.000 A 
ATOM     11  C   UNL     1      19.722   1.894  51.409  0.00  0.00    +0.000 A 
ATOM     12  C   UNL     1      20.998   1.275  51.361  0.00  0.00    +0.000 A 
ATOM     13  C   UNL     1      22.104   2.101  51.472  0.00  0.00    +0.000 A 
ATOM     14  C   UNL     1      23.576   1.738  51.501  0.00  0.00    +0.000 A 
ATOM     15  O   UNL     1      23.956   0.678  51.954  0.00  0.00    +0.000 OA
ATOM     16  C   UNL     1      24.520   2.775  50.931  0.00  0.00    +0.000 A 
ATOM     17  C   UNL     1      23.851   3.832  50.325  0.00  0.00    +0.000 A 
ENDROOT
BRANCH  11  18
ATOM     18  C   UNL     1      19.050   2.395  50.007  0.00  0.00    +0.000 C 
ATOM     19  C   UNL     1      17.784   1.565  49.578  0.00  0.00    +0.000 C 
ATOM     20  C   UNL     1      18.643   3.891  50.002  0.00  0.00    +0.000 C 
ATOM     21  C   UNL     1      20.030   2.174  48.841  0.00  0.00    +0.000 C 
ENDBRANCH  11  18
BRANCH   1  22
ATOM     22  N   UNL     1      26.683   2.302  51.948  0.00  0.00    +0.000 N 
ATOM     23  H   UNL     1      26.867   2.755  52.803  0.00  0.00    +0.000 HD
BRANCH  22  24
ATOM     24  C   UNL     1      27.224   0.952  51.684  0.00  0.00    +0.000 C 
BRANCH  24  25
ATOM     25  C   UNL     1      27.234  -0.043  52.892  0.00  0.00    +0.000 C 
BRANCH  25  26
ATOM     26  N   UNL     1      27.514   0.516  54.234  0.00  0.00    +0.000 N 
ATOM     27  H   UNL     1      27.598   1.528  54.134  0.00  0.00    +0.000 HD
BRANCH  26  29
ATOM     28  C   UNL     1      25.373  -0.698  54.638  0.00  0.00    +0.000 C 
ATOM     29  C   UNL     1      26.398   0.302  55.167  0.00  0.00    +0.000 C 
ENDBRANCH  26  29
BRANCH  26  30
ATOM     30  C   UNL     1      28.814   0.044  54.760  0.00  0.00    +0.000 C 
ATOM     31  C   UNL     1      29.751  -0.693  53.800  0.00  0.00    +0.000 C 
ENDBRANCH  26  30
ENDBRANCH  25  26
ENDBRANCH  24  25
ENDBRANCH  22  24
ENDBRANCH   1  22
TORSDOF 7
ENDMDL
MODEL 8
REMARK VINA RESULT:    -6.581      2.380      7.726
REMARK INTER + INTRA:          -9.564
REMARK INTER:                  -9.279
REMARK INTRA:                  -0.286
REMARK UNBOUND:                -0.290
REMARK  Name = 
REMARK  12 active torsions:
REMARK  status: ('A' for Active; 'I' for Inactive)
REMARK    1  A    between atoms: C_1  and  C_2
REMARK    2  A    between atoms: C_2  and  N_3
REMARK    3  A    between atoms: N_3  and  C_4
REMARK    4  A    between atoms: N_3  and  C_6
REMARK    5  A    between atoms: C_4  and  C_5
REMARK    6  A    between atoms: C_6  and  C_7
REMARK    7  A    between atoms: C_7  and  N_8
REMARK    8  A    between atoms: N_8  and  C_9
REMARK    9  A    between atoms: C_19  and  C_20
REMARK   10  A    between atoms: C_20  and  C_21
REMARK   11  A    between atoms: C_20  and  C_22
REMARK   12  A    between atoms: C_20  and  C_23
REMARK                            x       y       z     vdW  Elec       q    Type
REMARK                         _______ _______ _______ _____ _____    ______ ____
ROOT
ATOM      1  C   UNL     1      20.514   1.120  51.288  0.00  0.00    +0.000 A 
ATOM      2  C   UNL     1      19.634   0.186  51.873  0.00  0.00    +0.000 A 
ATOM      3  C   UNL     1      20.001  -0.653  52.957  0.00  0.00    +0.000 A 
ATOM      4  C   UNL     1      21.249  -0.427  53.529  0.00  0.00    +0.000 A 
ATOM      5  N   UNL     1      21.897  -0.931  54.634  0.00  0.00    +0.000 NA
ATOM      6  C   UNL     1      23.054  -0.286  54.685  0.00  0.00    +0.000 A 
ATOM      7  N   UNL     1      23.137   0.651  53.694  0.00  0.00    +0.000 N 
ATOM      8  C   UNL     1      24.158   1.506  53.259  0.00  0.00    +0.000 A 
ATOM      9  C   UNL     1      25.071   2.151  54.055  0.00  0.00    +0.000 A 
ATOM     10  C   UNL     1      26.313   2.296  53.485  0.00  0.00    +0.000 A 
ATOM     11  C   UNL     1      26.668   1.320  52.553  0.00  0.00    +0.000 A 
ATOM     12  C   UNL     1      25.700   1.299  51.515  0.00  0.00    +0.000 A 
ATOM     13  C   UNL     1      24.377   1.472  51.882  0.00  0.00    +0.000 A 
ATOM     14  C   UNL     1      23.138   1.542  51.011  0.00  0.00    +0.000 A 
ATOM     15  O   UNL     1      23.186   1.978  49.879  0.00  0.00    +0.000 OA
ATOM     16  C   UNL     1      21.860   1.035  51.644  0.00  0.00    +0.000 A 
ATOM     17  C   UNL     1      22.075   0.437  52.879  0.00  0.00    +0.000 A 
ENDROOT
BRANCH  11  18
ATOM     18  C   UNL     1      27.052  -0.090  53.283  0.00  0.00    +0.000 C 
ATOM     19  C   UNL     1      28.552  -0.522  53.078  0.00  0.00    +0.000 C 
ATOM     20  C   UNL     1      26.773  -0.108  54.807  0.00  0.00    +0.000 C 
ATOM     21  C   UNL     1      26.262  -1.248  52.649  0.00  0.00    +0.000 C 
ENDBRANCH  11  18
BRANCH   1  22
ATOM     22  N   UNL     1      20.059   2.114  50.406  0.00  0.00    +0.000 N 
ATOM     23  H   UNL     1      20.111   1.978  49.432  0.00  0.00    +0.000 HD
BRANCH  22  24
ATOM     24  C   UNL     1      19.503   3.367  50.959  0.00  0.00    +0.000 C 
BRANCH  24  25
ATOM     25  C   UNL     1      18.035   3.719  50.549  0.00  0.00    +0.000 C 
BRANCH  25  26
ATOM     26  N   UNL     1      16.941   3.085  51.320  0.00  0.00    +0.000 N 
ATOM     27  H   UNL     1      17.294   2.901  52.259  0.00  0.00    +0.000 HD
BRANCH  26  29
ATOM     28  C   UNL     1      15.482   4.263  52.966  0.00  0.00    +0.000 C 
ATOM     29  C   UNL     1      15.793   3.987  51.497  0.00  0.00    +0.000 C 
ENDBRANCH  26  29
BRANCH  26  30
ATOM     30  C   UNL     1      16.568   1.769  50.754  0.00  0.00    +0.000 C 
ATOM     31  C   UNL     1      15.888   0.757  51.678  0.00  0.00    +0.000 C 
ENDBRANCH  26  30
ENDBRANCH  25  26
ENDBRANCH  24  25
ENDBRANCH  22  24
ENDBRANCH   1  22
TORSDOF 7
ENDMDL
MODEL 9
REMARK VINA RESULT:    -6.495      2.954      6.684
REMARK INTER + INTRA:          -9.442
REMARK INTER:                  -8.717
REMARK INTRA:                  -0.725
REMARK UNBOUND:                -0.290
REMARK  Name = 
REMARK  12 active torsions:
REMARK  status: ('A' for Active; 'I' for Inactive)
REMARK    1  A    between atoms: C_1  and  C_2
REMARK    2  A    between atoms: C_2  and  N_3
REMARK    3  A    between atoms: N_3  and  C_4
REMARK    4  A    between atoms: N_3  and  C_6
REMARK    5  A    between atoms: C_4  and  C_5
REMARK    6  A    between atoms: C_6  and  C_7
REMARK    7  A    between atoms: C_7  and  N_8
REMARK    8  A    between atoms: N_8  and  C_9
REMARK    9  A    between atoms: C_19  and  C_20
REMARK   10  A    between atoms: C_20  and  C_21
REMARK   11  A    between atoms: C_20  and  C_22
REMARK   12  A    between atoms: C_20  and  C_23
REMARK                            x       y       z     vdW  Elec       q    Type
REMARK                         _______ _______ _______ _____ _____    ______ ____
ROOT
ATOM      1  C   UNL     1      21.494   0.501  51.484  0.00  0.00    +0.000 A 
ATOM      2  C   UNL     1      22.182  -0.167  52.518  0.00  0.00    +0.000 A 
ATOM      3  C   UNL     1      23.300   0.388  53.191  0.00  0.00    +0.000 A 
ATOM      4  C   UNL     1      23.624   1.707  52.885  0.00  0.00    +0.000 A 
ATOM      5  N   UNL     1      24.532   2.609  53.392  0.00  0.00    +0.000 NA
ATOM      6  C   UNL     1      24.332   3.727  52.710  0.00  0.00    +0.000 A 
ATOM      7  N   UNL     1      23.293   3.588  51.834  0.00  0.00    +0.000 N 
ATOM      8  C   UNL     1      22.754   4.413  50.837  0.00  0.00    +0.000 A 
ATOM      9  C   UNL     1      22.628   5.778  50.894  0.00  0.00    +0.000 A 
ATOM     10  C   UNL     1      22.789   6.411  49.685  0.00  0.00    +0.000 A 
ATOM     11  C   UNL     1      23.612   5.758  48.767  0.00  0.00    +0.000 A 
ATOM     12  C   UNL     1      23.096   4.459  48.526  0.00  0.00    +0.000 A 
ATOM     13  C   UNL     1      22.574   3.775  49.611  0.00  0.00    +0.000 A 
ATOM     14  C   UNL     1      21.918   2.409  49.662  0.00  0.00    +0.000 A 
ATOM     15  O   UNL     1      21.300   1.970  48.715  0.00  0.00    +0.000 OA
ATOM     16  C   UNL     1      22.092   1.646  50.958  0.00  0.00    +0.000 A 
ATOM     17  C   UNL     1      22.969   2.272  51.835  0.00  0.00    +0.000 A 
ENDROOT
BRANCH  11  18
ATOM     18  C   UNL     1      25.189   5.904  49.171  0.00  0.00    +0.000 C 
ATOM     19  C   UNL     1      25.896   4.530  49.474  0.00  0.00    +0.000 C 
ATOM     20  C   UNL     1      26.046   6.638  48.109  0.00  0.00    +0.000 C 
ATOM     21  C   UNL     1      25.327   6.673  50.497  0.00  0.00    +0.000 C 
ENDBRANCH  11  18
BRANCH   1  22
ATOM     22  N   UNL     1      20.246   0.056  51.018  0.00  0.00    +0.000 N 
ATOM     23  H   UNL     1      20.190  -0.547  50.240  0.00  0.00    +0.000 HD
BRANCH  22  24
ATOM     24  C   UNL     1      19.018   0.505  51.707  0.00  0.00    +0.000 C 
BRANCH  24  25
ATOM     25  C   UNL     1      18.181   1.614  50.988  0.00  0.00    +0.000 C 
BRANCH  25  26
ATOM     26  N   UNL     1      18.004   2.903  51.697  0.00  0.00    +0.000 N 
ATOM     27  H   UNL     1      17.977   2.702  52.696  0.00  0.00    +0.000 HD
BRANCH  26  29
ATOM     28  C   UNL     1      19.022   4.662  50.250  0.00  0.00    +0.000 C 
ATOM     29  C   UNL     1      19.152   3.801  51.504  0.00  0.00    +0.000 C 
ENDBRANCH  26  29
BRANCH  26  30
ATOM     30  C   UNL     1      16.706   3.532  51.366  0.00  0.00    +0.000 C 
ATOM     31  C   UNL     1      15.592   3.472  52.412  0.00  0.00    +0.000 C 
ENDBRANCH  26  30
ENDBRANCH  25  26
ENDBRANCH  24  25
ENDBRANCH  22  24
ENDBRANCH   1  22
TORSDOF 7
ENDMDL
