MODEL 1
REMARK VINA RESULT:    -7.990      0.000      0.000
REMARK INTER + INTRA:         -12.129
REMARK INTER:                 -11.260
REMARK INTRA:                  -0.869
REMARK UNBOUND:                -0.869
REMARK  Name = 
REMARK  9 active torsions:
REMARK  status: ('A' for Active; 'I' for Inactive)
REMARK    1  A    between atoms: C_1  and  O_2
REMARK    2  A    between atoms: O_2  and  C_3
REMARK    3  A    between atoms: C_7  and  C_8
REMARK    4  A    between atoms: C_8  and  S_9
REMARK    5  A    between atoms: S_9  and  C_11
REMARK    6  A    between atoms: C_15  and  O_16
REMARK    7  A    between atoms: O_16  and  C_17
REMARK    8  A    between atoms: C_17  and  C_18
REMARK    9  A    between atoms: C_26  and  C_27
REMARK                            x       y       z     vdW  Elec       q    Type
REMARK                         _______ _______ _______ _____ _____    ______ ____
ROOT
ATOM      1  C   UNL     1      23.779   3.006  52.153  0.00  0.00    +0.000 A 
ATOM      2  N   UNL     1      25.019   3.077  52.584  0.00  0.00    +0.000 NA
ATOM      3  C   UNL     1      25.251   1.880  53.224  0.00  0.00    +0.000 A 
ATOM      4  C   UNL     1      26.385   1.435  53.918  0.00  0.00    +0.000 A 
ATOM      5  C   UNL     1      26.389   0.144  54.465  0.00  0.00    +0.000 A 
ATOM      6  C   UNL     1      25.276  -0.688  54.318  0.00  0.00    +0.000 A 
ATOM      7  C   UNL     1      24.122  -0.253  53.646  0.00  0.00    +0.000 A 
ATOM      8  C   UNL     1      24.146   1.043  53.128  0.00  0.00    +0.000 A 
ATOM      9  N   UNL     1      23.206   1.802  52.479  0.00  0.00    +0.000 N 
ATOM     10  H   UNL     1      22.280   1.531  52.282  0.00  0.00    +0.000 HD
ENDROOT
BRANCH   1  11
ATOM     11  S   UNL     1      22.920   4.241  51.288  0.00  0.00    +0.000 S 
ATOM     12  O   UNL     1      23.517   5.600  51.810  0.00  0.00    +0.000 OA
BRANCH  11  13
ATOM     13  C   UNL     1      23.486   3.860  49.608  0.00  0.00    +0.000 C 
BRANCH  13  18
ATOM     14  C   UNL     1      26.812   5.527  48.746  0.00  0.00    +0.000 A 
ATOM     15  C   UNL     1      26.327   6.757  48.307  0.00  0.00    +0.000 A 
ATOM     16  C   UNL     1      24.966   6.969  48.336  0.00  0.00    +0.000 A 
ATOM     17  N   UNL     1      24.074   6.052  48.760  0.00  0.00    +0.000 NA
ATOM     18  C   UNL     1      24.548   4.837  49.158  0.00  0.00    +0.000 A 
ATOM     19  C   UNL     1      25.917   4.525  49.156  0.00  0.00    +0.000 A 
ATOM     20  C   UNL     1      26.406   3.151  49.528  0.00  0.00    +0.000 C 
BRANCH  14  22
ATOM     21  C   UNL     1      28.983   6.151  48.055  0.00  0.00    +0.000 C 
ATOM     22  O   UNL     1      28.152   5.229  48.760  0.00  0.00    +0.000 OA
ENDBRANCH  14  22
ENDBRANCH  13  18
ENDBRANCH  11  13
ENDBRANCH   1  11
BRANCH   5  23
ATOM     23  O   UNL     1      27.514  -0.164  55.184  0.00  0.00    +0.000 OA
BRANCH  23  24
ATOM     24  C   UNL     1      28.763   0.363  54.717  0.00  0.00    +0.000 C 
BRANCH  24  25
ATOM     25  C   UNL     1      29.513  -0.534  53.737  0.00  0.00    +0.000 C 
ATOM     26  F   UNL     1      28.698  -1.296  52.979  0.00  0.00    +0.000 F 
ATOM     27  F   UNL     1      30.264   0.215  52.892  0.00  0.00    +0.000 F 
ATOM     28  F   UNL     1      30.360  -1.366  54.387  0.00  0.00    +0.000 F 
ENDBRANCH  24  25
ENDBRANCH  23  24
ENDBRANCH   5  23
TORSDOF 7
ENDMDL
MODEL 2
REMARK VINA RESULT:    -7.647      4.183      6.616
REMARK INTER + INTRA:         -11.646
REMARK INTER:                 -10.576
REMARK INTRA:                  -1.070
REMARK UNBOUND:                -0.869
REMARK  Name = 
REMARK  9 active torsions:
REMARK  status: ('A' for Active; 'I' for Inactive)
REMARK    1  A    between atoms: C_1  and  O_2
REMARK    2  A    between atoms: O_2  and  C_3
REMARK    3  A    between atoms: C_7  and  C_8
REMARK    4  A    between atoms: C_8  and  S_9
REMARK    5  A    between atoms: S_9  and  C_11
REMARK    6  A    between atoms: C_15  and  O_16
REMARK    7  A    between atoms: O_16  and  C_17
REMARK    8  A    between atoms: C_17  and  C_18
REMARK    9  A    between atoms: C_26  and  C_27
REMARK                            x       y       z     vdW  Elec       q    Type
REMARK                         _______ _______ _______ _____ _____    ______ ____
ROOT
ATOM      1  C   UNL     1      23.130  -0.555  53.555  0.00  0.00    +0.000 A 
ATOM      2  N   UNL     1      24.172  -0.674  54.347  0.00  0.00    +0.000 NA
ATOM      3  C   UNL     1      25.133   0.154  53.812  0.00  0.00    +0.000 A 
ATOM      4  C   UNL     1      26.457   0.376  54.215  0.00  0.00    +0.000 A 
ATOM      5  C   UNL     1      27.239   1.306  53.514  0.00  0.00    +0.000 A 
ATOM      6  C   UNL     1      26.703   2.003  52.428  0.00  0.00    +0.000 A 
ATOM      7  C   UNL     1      25.386   1.777  51.994  0.00  0.00    +0.000 A 
ATOM      8  C   UNL     1      24.641   0.834  52.704  0.00  0.00    +0.000 A 
ATOM      9  N   UNL     1      23.377   0.330  52.536  0.00  0.00    +0.000 N 
ATOM     10  H   UNL     1      22.754   0.563  51.809  0.00  0.00    +0.000 HD
ENDROOT
BRANCH   1  11
ATOM     11  S   UNL     1      21.615  -1.387  53.719  0.00  0.00    +0.000 S 
ATOM     12  O   UNL     1      21.715  -2.158  55.087  0.00  0.00    +0.000 OA
BRANCH  11  13
ATOM     13  C   UNL     1      20.512   0.047  53.835  0.00  0.00    +0.000 C 
BRANCH  13  18
ATOM     14  C   UNL     1      17.987  -0.068  50.973  0.00  0.00    +0.000 A 
ATOM     15  C   UNL     1      18.610   0.822  50.102  0.00  0.00    +0.000 A 
ATOM     16  C   UNL     1      19.808   1.382  50.490  0.00  0.00    +0.000 A 
ATOM     17  N   UNL     1      20.410   1.123  51.667  0.00  0.00    +0.000 NA
ATOM     18  C   UNL     1      19.781   0.278  52.533  0.00  0.00    +0.000 A 
ATOM     19  C   UNL     1      18.554  -0.335  52.231  0.00  0.00    +0.000 A 
ATOM     20  C   UNL     1      17.845  -1.203  53.235  0.00  0.00    +0.000 C 
BRANCH  14  22
ATOM     21  C   UNL     1      16.190  -0.250  49.451  0.00  0.00    +0.000 C 
ATOM     22  O   UNL     1      16.796  -0.681  50.669  0.00  0.00    +0.000 OA
ENDBRANCH  14  22
ENDBRANCH  13  18
ENDBRANCH  11  13
ENDBRANCH   1  11
BRANCH   5  23
ATOM     23  O   UNL     1      28.537   1.394  53.943  0.00  0.00    +0.000 OA
BRANCH  23  24
ATOM     24  C   UNL     1      29.101   0.242  54.585  0.00  0.00    +0.000 C 
BRANCH  24  25
ATOM     25  C   UNL     1      29.851  -0.709  53.657  0.00  0.00    +0.000 C 
ATOM     26  F   UNL     1      30.641  -1.582  54.315  0.00  0.00    +0.000 F 
ATOM     27  F   UNL     1      28.976  -1.436  52.918  0.00  0.00    +0.000 F 
ATOM     28  F   UNL     1      30.633  -0.028  52.788  0.00  0.00    +0.000 F 
ENDBRANCH  24  25
ENDBRANCH  23  24
ENDBRANCH   5  23
TORSDOF 7
ENDMDL
MODEL 3
REMARK VINA RESULT:    -7.553      4.278      6.922
REMARK INTER + INTRA:         -11.513
REMARK INTER:                 -10.544
REMARK INTRA:                  -0.969
REMARK UNBOUND:                -0.869
REMARK  Name = 
REMARK  9 active torsions:
REMARK  status: ('A' for Active; 'I' for Inactive)
REMARK    1  A    between atoms: C_1  and  O_2
REMARK    2  A    between atoms: O_2  and  C_3
REMARK    3  A    between atoms: C_7  and  C_8
REMARK    4  A    between atoms: C_8  and  S_9
REMARK    5  A    between atoms: S_9  and  C_11
REMARK    6  A    between atoms: C_15  and  O_16
REMARK    7  A    between atoms: O_16  and  C_17
REMARK    8  A    between atoms: C_17  and  C_18
REMARK    9  A    between atoms: C_26  and  C_27
REMARK                            x       y       z     vdW  Elec       q    Type
REMARK                         _______ _______ _______ _____ _____    ______ ____
ROOT
ATOM      1  C   UNL     1      22.384   1.790  52.544  0.00  0.00    +0.000 A 
ATOM      2  N   UNL     1      23.527   2.438  52.495  0.00  0.00    +0.000 NA
ATOM      3  C   UNL     1      24.448   1.595  53.076  0.00  0.00    +0.000 A 
ATOM      4  C   UNL     1      25.810   1.794  53.339  0.00  0.00    +0.000 A 
ATOM      5  C   UNL     1      26.553   0.756  53.921  0.00  0.00    +0.000 A 
ATOM      6  C   UNL     1      25.942  -0.461  54.232  0.00  0.00    +0.000 A 
ATOM      7  C   UNL     1      24.573  -0.672  53.997  0.00  0.00    +0.000 A 
ATOM      8  C   UNL     1      23.860   0.387  53.432  0.00  0.00    +0.000 A 
ATOM      9  N   UNL     1      22.535   0.555  53.123  0.00  0.00    +0.000 N 
ATOM     10  H   UNL     1      21.816  -0.098  53.287  0.00  0.00    +0.000 HD
ENDROOT
BRANCH   1  11
ATOM     11  S   UNL     1      20.849   2.370  51.977  0.00  0.00    +0.000 S 
ATOM     12  O   UNL     1      21.189   3.609  51.067  0.00  0.00    +0.000 OA
BRANCH  11  13
ATOM     13  C   UNL     1      20.346   0.933  50.993  0.00  0.00    +0.000 C 
BRANCH  13  18
ATOM     14  C   UNL     1      17.125  -0.844  52.018  0.00  0.00    +0.000 A 
ATOM     15  C   UNL     1      17.566  -1.417  53.208  0.00  0.00    +0.000 A 
ATOM     16  C   UNL     1      18.863  -1.175  53.606  0.00  0.00    +0.000 A 
ATOM     17  N   UNL     1      19.733  -0.421  52.906  0.00  0.00    +0.000 NA
ATOM     18  C   UNL     1      19.310   0.111  51.724  0.00  0.00    +0.000 A 
ATOM     19  C   UNL     1      18.010  -0.087  51.232  0.00  0.00    +0.000 A 
ATOM     20  C   UNL     1      17.592   0.448  49.888  0.00  0.00    +0.000 C 
BRANCH  14  22
ATOM     21  C   UNL     1      15.180  -2.185  52.038  0.00  0.00    +0.000 C 
ATOM     22  O   UNL     1      15.848  -1.023  51.546  0.00  0.00    +0.000 OA
ENDBRANCH  14  22
ENDBRANCH  13  18
ENDBRANCH  11  13
ENDBRANCH   1  11
BRANCH   5  23
ATOM     23  O   UNL     1      27.854   1.079  54.203  0.00  0.00    +0.000 OA
BRANCH  23  24
ATOM     24  C   UNL     1      28.694   0.045  54.733  0.00  0.00    +0.000 C 
BRANCH  24  25
ATOM     25  C   UNL     1      29.600  -0.635  53.712  0.00  0.00    +0.000 C 
ATOM     26  F   UNL     1      30.285   0.237  52.943  0.00  0.00    +0.000 F 
ATOM     27  F   UNL     1      30.510  -1.421  54.338  0.00  0.00    +0.000 F 
ATOM     28  F   UNL     1      28.888  -1.435  52.884  0.00  0.00    +0.000 F 
ENDBRANCH  24  25
ENDBRANCH  23  24
ENDBRANCH   5  23
TORSDOF 7
ENDMDL
MODEL 4
REMARK VINA RESULT:    -7.478      3.113      4.137
REMARK INTER + INTRA:         -11.407
REMARK INTER:                 -10.597
REMARK INTRA:                  -0.810
REMARK UNBOUND:                -0.869
REMARK  Name = 
REMARK  9 active torsions:
REMARK  status: ('A' for Active; 'I' for Inactive)
REMARK    1  A    between atoms: C_1  and  O_2
REMARK    2  A    between atoms: O_2  and  C_3
REMARK    3  A    between atoms: C_7  and  C_8
REMARK    4  A    between atoms: C_8  and  S_9
REMARK    5  A    between atoms: S_9  and  C_11
REMARK    6  A    between atoms: C_15  and  O_16
REMARK    7  A    between atoms: O_16  and  C_17
REMARK    8  A    between atoms: C_17  and  C_18
REMARK    9  A    between atoms: C_26  and  C_27
REMARK                            x       y       z     vdW  Elec       q    Type
REMARK                         _______ _______ _______ _____ _____    ______ ____
ROOT
ATOM      1  C   UNL     1      24.547   4.466  50.873  0.00  0.00    +0.000 A 
ATOM      2  N   UNL     1      23.687   3.749  51.562  0.00  0.00    +0.000 NA
ATOM      3  C   UNL     1      24.357   2.591  51.890  0.00  0.00    +0.000 A 
ATOM      4  C   UNL     1      23.908   1.451  52.570  0.00  0.00    +0.000 A 
ATOM      5  C   UNL     1      24.804   0.400  52.810  0.00  0.00    +0.000 A 
ATOM      6  C   UNL     1      26.129   0.490  52.377  0.00  0.00    +0.000 A 
ATOM      7  C   UNL     1      26.593   1.613  51.673  0.00  0.00    +0.000 A 
ATOM      8  C   UNL     1      25.671   2.634  51.438  0.00  0.00    +0.000 A 
ATOM      9  N   UNL     1      25.752   3.820  50.755  0.00  0.00    +0.000 N 
ATOM     10  H   UNL     1      26.539   4.152  50.264  0.00  0.00    +0.000 HD
ENDROOT
BRANCH   1  11
ATOM     11  S   UNL     1      24.254   6.026  50.172  0.00  0.00    +0.000 S 
ATOM     12  O   UNL     1      25.027   7.043  51.091  0.00  0.00    +0.000 OA
BRANCH  11  13
ATOM     13  C   UNL     1      25.091   5.788  48.582  0.00  0.00    +0.000 C 
BRANCH  13  18
ATOM     14  C   UNL     1      28.259   7.852  48.051  0.00  0.00    +0.000 A 
ATOM     15  C   UNL     1      27.669   9.086  47.790  0.00  0.00    +0.000 A 
ATOM     16  C   UNL     1      26.294   9.170  47.821  0.00  0.00    +0.000 A 
ATOM     17  N   UNL     1      25.485   8.125  48.084  0.00  0.00    +0.000 NA
ATOM     18  C   UNL     1      26.063   6.910  48.306  0.00  0.00    +0.000 A 
ATOM     19  C   UNL     1      27.455   6.724  48.287  0.00  0.00    +0.000 A 
ATOM     20  C   UNL     1      28.064   5.358  48.459  0.00  0.00    +0.000 C 
BRANCH  14  22
ATOM     21  C   UNL     1      30.332   8.445  49.018  0.00  0.00    +0.000 C 
ATOM     22  O   UNL     1      29.621   7.674  48.049  0.00  0.00    +0.000 OA
ENDBRANCH  14  22
ENDBRANCH  13  18
ENDBRANCH  11  13
ENDBRANCH   1  11
BRANCH   5  23
ATOM     23  O   UNL     1      24.245  -0.694  53.416  0.00  0.00    +0.000 OA
BRANCH  23  24
ATOM     24  C   UNL     1      22.814  -0.769  53.458  0.00  0.00    +0.000 C 
BRANCH  24  25
ATOM     25  C   UNL     1      22.225  -1.070  54.833  0.00  0.00    +0.000 C 
ATOM     26  F   UNL     1      23.163  -1.275  55.781  0.00  0.00    +0.000 F 
ATOM     27  F   UNL     1      21.450  -0.039  55.251  0.00  0.00    +0.000 F 
ATOM     28  F   UNL     1      21.437  -2.169  54.796  0.00  0.00    +0.000 F 
ENDBRANCH  24  25
ENDBRANCH  23  24
ENDBRANCH   5  23
TORSDOF 7
ENDMDL
MODEL 5
REMARK VINA RESULT:    -7.299      1.854      2.469
REMARK INTER + INTRA:         -11.155
REMARK INTER:                 -10.464
REMARK INTRA:                  -0.692
REMARK UNBOUND:                -0.869
REMARK  Name = 
REMARK  9 active torsions:
REMARK  status: ('A' for Active; 'I' for Inactive)
REMARK    1  A    between atoms: C_1  and  O_2
REMARK    2  A    between atoms: O_2  and  C_3
REMARK    3  A    between atoms: C_7  and  C_8
REMARK    4  A    between atoms: C_8  and  S_9
REMARK    5  A    between atoms: S_9  and  C_11
REMARK    6  A    between atoms: C_15  and  O_16
REMARK    7  A    between atoms: O_16  and  C_17
REMARK    8  A    between atoms: C_17  and  C_18
REMARK    9  A    between atoms: C_26  and  C_27
REMARK                            x       y       z     vdW  Elec       q    Type
REMARK                         _______ _______ _______ _____ _____    ______ ____
ROOT
ATOM      1  C   UNL     1      24.232   3.282  50.511  0.00  0.00    +0.000 A 
ATOM      2  N   UNL     1      25.391   2.679  50.660  0.00  0.00    +0.000 NA
ATOM      3  C   UNL     1      25.182   1.723  51.629  0.00  0.00    +0.000 A 
ATOM      4  C   UNL     1      26.083   0.829  52.221  0.00  0.00    +0.000 A 
ATOM      5  C   UNL     1      25.614  -0.083  53.178  0.00  0.00    +0.000 A 
ATOM      6  C   UNL     1      24.263  -0.099  53.535  0.00  0.00    +0.000 A 
ATOM      7  C   UNL     1      23.348   0.805  52.970  0.00  0.00    +0.000 A 
ATOM      8  C   UNL     1      23.852   1.709  52.033  0.00  0.00    +0.000 A 
ATOM      9  N   UNL     1      23.279   2.742  51.337  0.00  0.00    +0.000 N 
ATOM     10  H   UNL     1      22.345   3.044  51.416  0.00  0.00    +0.000 HD
ENDROOT
BRANCH   1  11
ATOM     11  S   UNL     1      23.892   4.600  49.433  0.00  0.00    +0.000 S 
ATOM     12  O   UNL     1      22.341   4.838  49.550  0.00  0.00    +0.000 OA
BRANCH  11  13
ATOM     13  C   UNL     1      24.836   5.903  50.267  0.00  0.00    +0.000 C 
BRANCH  13  18
ATOM     14  C   UNL     1      27.666   7.757  48.497  0.00  0.00    +0.000 A 
ATOM     15  C   UNL     1      28.404   6.658  48.064  0.00  0.00    +0.000 A 
ATOM     16  C   UNL     1      27.928   5.398  48.357  0.00  0.00    +0.000 A 
ATOM     17  N   UNL     1      26.793   5.167  49.044  0.00  0.00    +0.000 NA
ATOM     18  C   UNL     1      26.090   6.244  49.497  0.00  0.00    +0.000 A 
ATOM     19  C   UNL     1      26.499   7.566  49.255  0.00  0.00    +0.000 A 
ATOM     20  C   UNL     1      25.745   8.735  49.831  0.00  0.00    +0.000 C 
BRANCH  14  22
ATOM     21  C   UNL     1      29.305   9.181  47.565  0.00  0.00    +0.000 C 
ATOM     22  O   UNL     1      28.057   9.049  48.246  0.00  0.00    +0.000 OA
ENDBRANCH  14  22
ENDBRANCH  13  18
ENDBRANCH  11  13
ENDBRANCH   1  11
BRANCH   5  23
ATOM     23  O   UNL     1      26.588  -0.861  53.746  0.00  0.00    +0.000 OA
BRANCH  23  24
ATOM     24  C   UNL     1      27.867  -0.896  53.101  0.00  0.00    +0.000 C 
BRANCH  24  25
ATOM     25  C   UNL     1      28.998  -0.225  53.875  0.00  0.00    +0.000 C 
ATOM     26  F   UNL     1      29.223   1.049  53.493  0.00  0.00    +0.000 F 
ATOM     27  F   UNL     1      28.714  -0.203  55.201  0.00  0.00    +0.000 F 
ATOM     28  F   UNL     1      30.159  -0.904  53.730  0.00  0.00    +0.000 F 
ENDBRANCH  24  25
ENDBRANCH  23  24
ENDBRANCH   5  23
TORSDOF 7
ENDMDL
MODEL 6
REMARK VINA RESULT:    -7.289      2.445      3.370
REMARK INTER + INTRA:         -11.141
REMARK INTER:                 -10.098
REMARK INTRA:                  -1.043
REMARK UNBOUND:                -0.869
REMARK  Name = 
REMARK  9 active torsions:
REMARK  status: ('A' for Active; 'I' for Inactive)
REMARK    1  A    between atoms: C_1  and  O_2
REMARK    2  A    between atoms: O_2  and  C_3
REMARK    3  A    between atoms: C_7  and  C_8
REMARK    4  A    between atoms: C_8  and  S_9
REMARK    5  A    between atoms: S_9  and  C_11
REMARK    6  A    between atoms: C_15  and  O_16
REMARK    7  A    between atoms: O_16  and  C_17
REMARK    8  A    between atoms: C_17  and  C_18
REMARK    9  A    between atoms: C_26  and  C_27
REMARK                            x       y       z     vdW  Elec       q    Type
REMARK                         _______ _______ _______ _____ _____    ______ ____
ROOT
ATOM      1  C   UNL     1      20.850   1.620  52.035  0.00  0.00    +0.000 A 
ATOM      2  N   UNL     1      22.132   1.422  51.815  0.00  0.00    +0.000 NA
ATOM      3  C   UNL     1      22.556   0.611  52.845  0.00  0.00    +0.000 A 
ATOM      4  C   UNL     1      23.838   0.130  53.143  0.00  0.00    +0.000 A 
ATOM      5  C   UNL     1      24.011  -0.718  54.246  0.00  0.00    +0.000 A 
ATOM      6  C   UNL     1      22.918  -1.080  55.037  0.00  0.00    +0.000 A 
ATOM      7  C   UNL     1      21.629  -0.591  54.768  0.00  0.00    +0.000 A 
ATOM      8  C   UNL     1      21.495   0.264  53.672  0.00  0.00    +0.000 A 
ATOM      9  N   UNL     1      20.428   0.957  53.159  0.00  0.00    +0.000 N 
ATOM     10  H   UNL     1      19.517   0.975  53.533  0.00  0.00    +0.000 HD
ENDROOT
BRANCH   1  11
ATOM     11  S   UNL     1      19.782   2.590  51.070  0.00  0.00    +0.000 S 
ATOM     12  O   UNL     1      18.365   2.426  51.733  0.00  0.00    +0.000 OA
BRANCH  11  13
ATOM     13  C   UNL     1      20.496   4.223  51.406  0.00  0.00    +0.000 C 
BRANCH  13  18
ATOM     14  C   UNL     1      23.844   5.173  49.835  0.00  0.00    +0.000 A 
ATOM     15  C   UNL     1      23.477   5.106  48.493  0.00  0.00    +0.000 A 
ATOM     16  C   UNL     1      22.173   4.778  48.189  0.00  0.00    +0.000 A 
ATOM     17  N   UNL     1      21.233   4.512  49.117  0.00  0.00    +0.000 NA
ATOM     18  C   UNL     1      21.602   4.544  50.429  0.00  0.00    +0.000 A 
ATOM     19  C   UNL     1      22.909   4.860  50.836  0.00  0.00    +0.000 A 
ATOM     20  C   UNL     1      23.309   4.814  52.286  0.00  0.00    +0.000 C 
BRANCH  14  22
ATOM     21  C   UNL     1      26.161   4.911  49.456  0.00  0.00    +0.000 C 
ATOM     22  O   UNL     1      25.117   5.499  50.232  0.00  0.00    +0.000 OA
ENDBRANCH  14  22
ENDBRANCH  13  18
ENDBRANCH  11  13
ENDBRANCH   1  11
BRANCH   5  23
ATOM     23  O   UNL     1      25.312  -1.071  54.492  0.00  0.00    +0.000 OA
BRANCH  23  24
ATOM     24  C   UNL     1      26.339  -0.240  53.935  0.00  0.00    +0.000 C 
BRANCH  24  25
ATOM     25  C   UNL     1      27.148  -0.881  52.811  0.00  0.00    +0.000 C 
ATOM     26  F   UNL     1      28.481  -0.765  52.981  0.00  0.00    +0.000 F 
ATOM     27  F   UNL     1      26.866  -2.204  52.723  0.00  0.00    +0.000 F 
ATOM     28  F   UNL     1      26.840  -0.330  51.614  0.00  0.00    +0.000 F 
ENDBRANCH  24  25
ENDBRANCH  23  24
ENDBRANCH   5  23
TORSDOF 7
ENDMDL
MODEL 7
REMARK VINA RESULT:    -7.218      3.524      5.258
REMARK INTER + INTRA:         -11.041
REMARK INTER:                  -9.831
REMARK INTRA:                  -1.210
REMARK UNBOUND:                -0.869
REMARK  Name = 
REMARK  9 active torsions:
REMARK  status: ('A' for Active; 'I' for Inactive)
REMARK    1  A    between atoms: C_1  and  O_2
REMARK    2  A    between atoms: O_2  and  C_3
REMARK    3  A    between atoms: C_7  and  C_8
REMARK    4  A    between atoms: C_8  and  S_9
REMARK    5  A    between atoms: S_9  and  C_11
REMARK    6  A    between atoms: C_15  and  O_16
REMARK    7  A    between atoms: O_16  and  C_17
REMARK    8  A    between atoms: C_17  and  C_18
REMARK    9  A    between atoms: C_26  and  C_27
REMARK                            x       y       z     vdW  Elec       q    Type
REMARK                         _______ _______ _______ _____ _____    ______ ____
ROOT
ATOM      1  C   UNL     1      24.587   4.626  51.073  0.00  0.00    +0.000 A 
ATOM      2  N   UNL     1      23.795   4.000  51.915  0.00  0.00    +0.000 NA
ATOM      3  C   UNL     1      24.400   2.786  52.151  0.00  0.00    +0.000 A 
ATOM      4  C   UNL     1      23.969   1.699  52.924  0.00  0.00    +0.000 A 
ATOM      5  C   UNL     1      24.792   0.568  53.034  0.00  0.00    +0.000 A 
ATOM      6  C   UNL     1      26.026   0.528  52.381  0.00  0.00    +0.000 A 
ATOM      7  C   UNL     1      26.466   1.596  51.582  0.00  0.00    +0.000 A 
ATOM      8  C   UNL     1      25.616   2.699  51.482  0.00  0.00    +0.000 A 
ATOM      9  N   UNL     1      25.689   3.867  50.768  0.00  0.00    +0.000 N 
ATOM     10  H   UNL     1      26.408   4.119  50.143  0.00  0.00    +0.000 HD
ENDROOT
BRANCH   1  11
ATOM     11  S   UNL     1      24.325   6.202  50.395  0.00  0.00    +0.000 S 
ATOM     12  O   UNL     1      25.761   6.824  50.232  0.00  0.00    +0.000 OA
BRANCH  11  13
ATOM     13  C   UNL     1      23.620   5.713  48.798  0.00  0.00    +0.000 C 
BRANCH  13  18
ATOM     14  C   UNL     1      20.574   3.411  48.870  0.00  0.00    +0.000 A 
ATOM     15  C   UNL     1      19.628   4.322  49.332  0.00  0.00    +0.000 A 
ATOM     16  C   UNL     1      20.033   5.618  49.570  0.00  0.00    +0.000 A 
ATOM     17  N   UNL     1      21.295   6.053  49.388  0.00  0.00    +0.000 NA
ATOM     18  C   UNL     1      22.228   5.152  48.968  0.00  0.00    +0.000 A 
ATOM     19  C   UNL     1      21.912   3.808  48.707  0.00  0.00    +0.000 A 
ATOM     20  C   UNL     1      22.976   2.817  48.318  0.00  0.00    +0.000 C 
BRANCH  14  22
ATOM     21  C   UNL     1      19.858   1.330  49.729  0.00  0.00    +0.000 C 
ATOM     22  O   UNL     1      20.261   2.102  48.598  0.00  0.00    +0.000 OA
ENDBRANCH  14  22
ENDBRANCH  13  18
ENDBRANCH  11  13
ENDBRANCH   1  11
BRANCH   5  23
ATOM     23  O   UNL     1      24.246  -0.463  53.751  0.00  0.00    +0.000 OA
BRANCH  23  24
ATOM     24  C   UNL     1      22.857  -0.753  53.541  0.00  0.00    +0.000 C 
BRANCH  24  25
ATOM     25  C   UNL     1      22.050  -0.991  54.813  0.00  0.00    +0.000 C 
ATOM     26  F   UNL     1      21.178  -2.015  54.708  0.00  0.00    +0.000 F 
ATOM     27  F   UNL     1      22.876  -1.271  55.852  0.00  0.00    +0.000 F 
ATOM     28  F   UNL     1      21.343   0.111  55.156  0.00  0.00    +0.000 F 
ENDBRANCH  24  25
ENDBRANCH  23  24
ENDBRANCH   5  23
TORSDOF 7
ENDMDL
MODEL 8
REMARK VINA RESULT:    -7.189      3.863      7.887
REMARK INTER + INTRA:         -11.000
REMARK INTER:                 -10.004
REMARK INTRA:                  -0.996
REMARK UNBOUND:                -0.869
REMARK  Name = 
REMARK  9 active torsions:
REMARK  status: ('A' for Active; 'I' for Inactive)
REMARK    1  A    between atoms: C_1  and  O_2
REMARK    2  A    between atoms: O_2  and  C_3
REMARK    3  A    between atoms: C_7  and  C_8
REMARK    4  A    between atoms: C_8  and  S_9
REMARK    5  A    between atoms: S_9  and  C_11
REMARK    6  A    between atoms: C_15  and  O_16
REMARK    7  A    between atoms: O_16  and  C_17
REMARK    8  A    between atoms: C_17  and  C_18
REMARK    9  A    between atoms: C_26  and  C_27
REMARK                            x       y       z     vdW  Elec       q    Type
REMARK                         _______ _______ _______ _____ _____    ______ ____
ROOT
ATOM      1  C   UNL     1      24.588   5.290  50.712  0.00  0.00    +0.000 A 
ATOM      2  N   UNL     1      24.845   6.542  50.401  0.00  0.00    +0.000 NA
ATOM      3  C   UNL     1      26.016   6.504  49.677  0.00  0.00    +0.000 A 
ATOM      4  C   UNL     1      26.779   7.552  49.142  0.00  0.00    +0.000 A 
ATOM      5  C   UNL     1      27.934   7.250  48.406  0.00  0.00    +0.000 A 
ATOM      6  C   UNL     1      28.318   5.921  48.208  0.00  0.00    +0.000 A 
ATOM      7  C   UNL     1      27.580   4.859  48.755  0.00  0.00    +0.000 A 
ATOM      8  C   UNL     1      26.445   5.195  49.496  0.00  0.00    +0.000 A 
ATOM      9  N   UNL     1      25.541   4.445  50.203  0.00  0.00    +0.000 N 
ATOM     10  H   UNL     1      25.571   3.468  50.325  0.00  0.00    +0.000 HD
ENDROOT
BRANCH   1  11
ATOM     11  S   UNL     1      23.241   4.721  51.646  0.00  0.00    +0.000 S 
ATOM     12  O   UNL     1      22.049   5.679  51.276  0.00  0.00    +0.000 OA
BRANCH  11  13
ATOM     13  C   UNL     1      23.043   3.083  50.894  0.00  0.00    +0.000 C 
BRANCH  13  18
ATOM     14  C   UNL     1      23.239  -0.063  53.050  0.00  0.00    +0.000 A 
ATOM     15  C   UNL     1      24.511   0.123  53.585  0.00  0.00    +0.000 A 
ATOM     16  C   UNL     1      25.209   1.257  53.228  0.00  0.00    +0.000 A 
ATOM     17  N   UNL     1      24.733   2.194  52.385  0.00  0.00    +0.000 NA
ATOM     18  C   UNL     1      23.501   1.994  51.836  0.00  0.00    +0.000 A 
ATOM     19  C   UNL     1      22.719   0.866  52.133  0.00  0.00    +0.000 A 
ATOM     20  C   UNL     1      21.396   0.632  51.455  0.00  0.00    +0.000 C 
BRANCH  14  22
ATOM     21  C   UNL     1      21.974  -1.194  54.694  0.00  0.00    +0.000 C 
ATOM     22  O   UNL     1      22.467  -1.157  53.355  0.00  0.00    +0.000 OA
ENDBRANCH  14  22
ENDBRANCH  13  18
ENDBRANCH  11  13
ENDBRANCH   1  11
BRANCH   5  23
ATOM     23  O   UNL     1      28.644   8.346  47.991  0.00  0.00    +0.000 OA
BRANCH  23  24
ATOM     24  C   UNL     1      30.074   8.243  47.981  0.00  0.00    +0.000 C 
BRANCH  24  25
ATOM     25  C   UNL     1      30.780   8.969  49.121  0.00  0.00    +0.000 C 
ATOM     26  F   UNL     1      29.935   9.647  49.925  0.00  0.00    +0.000 F 
ATOM     27  F   UNL     1      31.453   8.085  49.899  0.00  0.00    +0.000 F 
ATOM     28  F   UNL     1      31.689   9.853  48.649  0.00  0.00    +0.000 F 
ENDBRANCH  24  25
ENDBRANCH  23  24
ENDBRANCH   5  23
TORSDOF 7
ENDMDL
MODEL 9
REMARK VINA RESULT:    -7.015      4.028      6.244
REMARK INTER + INTRA:         -10.755
REMARK INTER:                  -9.827
REMARK INTRA:                  -0.927
REMARK UNBOUND:                -0.869
REMARK  Name = 
REMARK  9 active torsions:
REMARK  status: ('A' for Active; 'I' for Inactive)
REMARK    1  A    between atoms: C_1  and  O_2
REMARK    2  A    between atoms: O_2  and  C_3
REMARK    3  A    between atoms: C_7  and  C_8
REMARK    4  A    between atoms: C_8  and  S_9
REMARK    5  A    between atoms: S_9  and  C_11
REMARK    6  A    between atoms: C_15  and  O_16
REMARK    7  A    between atoms: O_16  and  C_17
REMARK    8  A    between atoms: C_17  and  C_18
REMARK    9  A    between atoms: C_26  and  C_27
REMARK                            x       y       z     vdW  Elec       q    Type
REMARK                         _______ _______ _______ _____ _____    ______ ____
ROOT
ATOM      1  C   UNL     1      22.541   2.692  52.152  0.00  0.00    +0.000 A 
ATOM      2  N   UNL     1      23.737   2.747  51.608  0.00  0.00    +0.000 NA
ATOM      3  C   UNL     1      24.410   1.650  52.096  0.00  0.00    +0.000 A 
ATOM      4  C   UNL     1      25.736   1.243  51.893  0.00  0.00    +0.000 A 
ATOM      5  C   UNL     1      26.184   0.052  52.483  0.00  0.00    +0.000 A 
ATOM      6  C   UNL     1      25.318  -0.719  53.262  0.00  0.00    +0.000 A 
ATOM      7  C   UNL     1      23.992  -0.317  53.496  0.00  0.00    +0.000 A 
ATOM      8  C   UNL     1      23.584   0.881  52.907  0.00  0.00    +0.000 A 
ATOM      9  N   UNL     1      22.412   1.592  52.962  0.00  0.00    +0.000 N 
ATOM     10  H   UNL     1      21.617   1.354  53.491  0.00  0.00    +0.000 HD
ENDROOT
BRANCH   1  11
ATOM     11  S   UNL     1      21.254   3.834  51.923  0.00  0.00    +0.000 S 
ATOM     12  O   UNL     1      21.967   5.187  51.551  0.00  0.00    +0.000 OA
BRANCH  11  13
ATOM     13  C   UNL     1      20.455   3.079  50.481  0.00  0.00    +0.000 C 
BRANCH  13  18
ATOM     14  C   UNL     1      17.066   1.667  51.531  0.00  0.00    +0.000 A 
ATOM     15  C   UNL     1      17.426   0.330  51.676  0.00  0.00    +0.000 A 
ATOM     16  C   UNL     1      18.739  -0.020  51.442  0.00  0.00    +0.000 A 
ATOM     17  N   UNL     1      19.694   0.857  51.077  0.00  0.00    +0.000 NA
ATOM     18  C   UNL     1      19.332   2.160  50.903  0.00  0.00    +0.000 A 
ATOM     19  C   UNL     1      18.018   2.611  51.109  0.00  0.00    +0.000 A 
ATOM     20  C   UNL     1      17.629   4.039  50.836  0.00  0.00    +0.000 C 
BRANCH  14  22
ATOM     21  C   UNL     1      14.767   1.125  51.573  0.00  0.00    +0.000 C 
ATOM     22  O   UNL     1      15.784   2.110  51.750  0.00  0.00    +0.000 OA
ENDBRANCH  14  22
ENDBRANCH  13  18
ENDBRANCH  11  13
ENDBRANCH   1  11
BRANCH   5  23
ATOM     23  O   UNL     1      27.512  -0.215  52.283  0.00  0.00    +0.000 OA
BRANCH  23  24
ATOM     24  C   UNL     1      28.158  -1.096  53.212  0.00  0.00    +0.000 C 
BRANCH  24  25
ATOM     25  C   UNL     1      29.333  -0.483  53.968  0.00  0.00    +0.000 C 
ATOM     26  F   UNL     1      30.376  -1.328  54.106  0.00  0.00    +0.000 F 
ATOM     27  F   UNL     1      29.789   0.618  53.321  0.00  0.00    +0.000 F 
ATOM     28  F   UNL     1      28.962  -0.088  55.208  0.00  0.00    +0.000 F 
ENDBRANCH  24  25
ENDBRANCH  23  24
ENDBRANCH   5  23
TORSDOF 7
ENDMDL
