MODEL 1
REMARK VINA RESULT:    -7.702      0.000      0.000
REMARK INTER + INTRA:         -10.023
REMARK INTER:                  -9.503
REMARK INTRA:                  -0.520
REMARK UNBOUND:                -0.520
REMARK  Name = 
REMARK  7 active torsions:
REMARK  status: ('A' for Active; 'I' for Inactive)
REMARK    1  A    between atoms: C_1  and  O_2
REMARK    2  A    between atoms: O_2  and  C_3
REMARK    3  A    between atoms: N_10  and  S_11
REMARK    4  A    between atoms: S_11  and  C_14
REMARK    5  A    between atoms: C_19  and  N_20
REMARK    6  A    between atoms: N_20  and  C_21
REMARK    7  A    between atoms: N_20  and  C_22
REMARK                            x       y       z     vdW  Elec       q    Type
REMARK                         _______ _______ _______ _____ _____    ______ ____
ROOT
ATOM      1  S   UNL     1      21.607   2.919  51.961  0.00  0.00    +0.000 S 
ATOM      2  O   UNL     1      21.447   2.787  50.529  0.00  0.00    +0.000 OA
ATOM      3  O   UNL     1      22.174   4.132  52.519  0.00  0.00    +0.000 OA
ENDROOT
BRANCH   1   4
ATOM      4  C   UNL     1      22.613   1.524  52.517  0.00  0.00    +0.000 A 
ATOM      5  C   UNL     1      21.979   0.614  53.370  0.00  0.00    +0.000 A 
ATOM      6  C   UNL     1      22.713  -0.400  53.959  0.00  0.00    +0.000 A 
ATOM      7  C   UNL     1      24.084  -0.497  53.711  0.00  0.00    +0.000 A 
ATOM      8  C   UNL     1      24.784   0.368  52.835  0.00  0.00    +0.000 A 
ATOM      9  C   UNL     1      26.212   0.281  52.609  0.00  0.00    +0.000 A 
ATOM     10  C   UNL     1      26.792   1.261  51.779  0.00  0.00    +0.000 A 
ATOM     11  C   UNL     1      26.048   2.255  51.166  0.00  0.00    +0.000 A 
ATOM     12  C   UNL     1      24.684   2.326  51.381  0.00  0.00    +0.000 A 
ATOM     13  C   UNL     1      24.010   1.419  52.225  0.00  0.00    +0.000 A 
BRANCH   9  14
ATOM     14  N   UNL     1      27.054  -0.672  53.203  0.00  0.00    +0.000 N 
ATOM     15  C   UNL     1      27.212  -2.027  52.691  0.00  0.00    +0.000 C 
ATOM     16  C   UNL     1      28.082  -0.249  54.156  0.00  0.00    +0.000 C 
ENDBRANCH   9  14
ENDBRANCH   1   4
BRANCH   1  24
ATOM     17  C   UNL     1      18.620   1.405  51.094  0.00  0.00    +0.000 A 
ATOM     18  N   UNL     1      17.685   1.406  50.112  0.00  0.00    +0.000 NA
ATOM     19  C   UNL     1      17.208   2.623  49.766  0.00  0.00    +0.000 A 
ATOM     20 BR   UNL     1      15.936   2.729  48.372  0.00  0.00    +0.000 Br
ATOM     21  C   UNL     1      17.631   3.783  50.403  0.00  0.00    +0.000 A 
ATOM     22  N   UNL     1      18.550   3.806  51.393  0.00  0.00    +0.000 NA
ATOM     23  C   UNL     1      19.042   2.593  51.712  0.00  0.00    +0.000 A 
ATOM     24  N   UNL     1      20.084   2.665  52.664  0.00  0.00    +0.000 N 
ATOM     25  H   UNL     1      19.941   2.577  53.634  0.00  0.00    +0.000 HD
BRANCH  17  27
ATOM     26  C   UNL     1      18.215  -0.518  52.375  0.00  0.00    +0.000 C 
ATOM     27  O   UNL     1      19.126   0.205  51.554  0.00  0.00    +0.000 OA
ENDBRANCH  17  27
ENDBRANCH   1  24
TORSDOF 4
ENDMDL
MODEL 2
REMARK VINA RESULT:    -7.641      1.415      2.594
REMARK INTER + INTRA:          -9.948
REMARK INTER:                  -9.742
REMARK INTRA:                  -0.205
REMARK UNBOUND:                -0.520
REMARK  Name = 
REMARK  7 active torsions:
REMARK  status: ('A' for Active; 'I' for Inactive)
REMARK    1  A    between atoms: C_1  and  O_2
REMARK    2  A    between atoms: O_2  and  C_3
REMARK    3  A    between atoms: N_10  and  S_11
REMARK    4  A    between atoms: S_11  and  C_14
REMARK    5  A    between atoms: C_19  and  N_20
REMARK    6  A    between atoms: N_20  and  C_21
REMARK    7  A    between atoms: N_20  and  C_22
REMARK                            x       y       z     vdW  Elec       q    Type
REMARK                         _______ _______ _______ _____ _____    ______ ____
ROOT
ATOM      1  S   UNL     1      22.479   2.408  50.754  0.00  0.00    +0.000 S 
ATOM      2  O   UNL     1      22.108   1.181  50.083  0.00  0.00    +0.000 OA
ATOM      3  O   UNL     1      22.347   3.679  50.069  0.00  0.00    +0.000 OA
ENDROOT
BRANCH   1   4
ATOM      4  C   UNL     1      24.200   2.231  51.277  0.00  0.00    +0.000 A 
ATOM      5  C   UNL     1      25.135   3.002  50.578  0.00  0.00    +0.000 A 
ATOM      6  C   UNL     1      26.486   2.822  50.813  0.00  0.00    +0.000 A 
ATOM      7  C   UNL     1      26.908   1.859  51.731  0.00  0.00    +0.000 A 
ATOM      8  C   UNL     1      26.018   1.065  52.498  0.00  0.00    +0.000 A 
ATOM      9  C   UNL     1      26.464   0.046  53.424  0.00  0.00    +0.000 A 
ATOM     10  C   UNL     1      25.469  -0.728  54.054  0.00  0.00    +0.000 A 
ATOM     11  C   UNL     1      24.117  -0.522  53.841  0.00  0.00    +0.000 A 
ATOM     12  C   UNL     1      23.700   0.459  52.960  0.00  0.00    +0.000 A 
ATOM     13  C   UNL     1      24.613   1.264  52.248  0.00  0.00    +0.000 A 
BRANCH   9  14
ATOM     14  N   UNL     1      27.810  -0.255  53.689  0.00  0.00    +0.000 N 
ATOM     15  C   UNL     1      28.567   0.359  54.771  0.00  0.00    +0.000 C 
ATOM     16  C   UNL     1      28.418  -1.457  53.114  0.00  0.00    +0.000 C 
ENDBRANCH   9  14
ENDBRANCH   1   4
BRANCH   1  24
ATOM     17  C   UNL     1      19.500   1.147  51.980  0.00  0.00    +0.000 A 
ATOM     18  N   UNL     1      18.179   1.084  51.679  0.00  0.00    +0.000 NA
ATOM     19  C   UNL     1      17.596   2.267  51.380  0.00  0.00    +0.000 A 
ATOM     20 BR   UNL     1      15.768   2.272  50.900  0.00  0.00    +0.000 Br
ATOM     21  C   UNL     1      18.304   3.462  51.415  0.00  0.00    +0.000 A 
ATOM     22  N   UNL     1      19.615   3.551  51.726  0.00  0.00    +0.000 NA
ATOM     23  C   UNL     1      20.196   2.365  51.994  0.00  0.00    +0.000 A 
ATOM     24  N   UNL     1      21.590   2.481  52.197  0.00  0.00    +0.000 N 
ATOM     25  H   UNL     1      22.003   2.592  53.085  0.00  0.00    +0.000 HD
BRANCH  17  27
ATOM     26  C   UNL     1      20.050  -0.306  53.738  0.00  0.00    +0.000 C 
ATOM     27  O   UNL     1      20.171  -0.002  52.353  0.00  0.00    +0.000 OA
ENDBRANCH  17  27
ENDBRANCH   1  24
TORSDOF 4
ENDMDL
MODEL 3
REMARK VINA RESULT:    -7.379      3.357      4.925
REMARK INTER + INTRA:          -9.624
REMARK INTER:                  -9.175
REMARK INTRA:                  -0.449
REMARK UNBOUND:                -0.520
REMARK  Name = 
REMARK  7 active torsions:
REMARK  status: ('A' for Active; 'I' for Inactive)
REMARK    1  A    between atoms: C_1  and  O_2
REMARK    2  A    between atoms: O_2  and  C_3
REMARK    3  A    between atoms: N_10  and  S_11
REMARK    4  A    between atoms: S_11  and  C_14
REMARK    5  A    between atoms: C_19  and  N_20
REMARK    6  A    between atoms: N_20  and  C_21
REMARK    7  A    between atoms: N_20  and  C_22
REMARK                            x       y       z     vdW  Elec       q    Type
REMARK                         _______ _______ _______ _____ _____    ______ ____
ROOT
ATOM      1  S   UNL     1      22.562   3.304  49.778  0.00  0.00    +0.000 S 
ATOM      2  O   UNL     1      21.667   3.812  50.796  0.00  0.00    +0.000 OA
ATOM      3  O   UNL     1      22.119   2.256  48.879  0.00  0.00    +0.000 OA
ENDROOT
BRANCH   1   4
ATOM      4  C   UNL     1      24.053   2.726  50.620  0.00  0.00    +0.000 A 
ATOM      5  C   UNL     1      25.262   3.266  50.164  0.00  0.00    +0.000 A 
ATOM      6  C   UNL     1      26.459   2.773  50.650  0.00  0.00    +0.000 A 
ATOM      7  C   UNL     1      26.455   1.729  51.577  0.00  0.00    +0.000 A 
ATOM      8  C   UNL     1      25.271   1.156  52.105  0.00  0.00    +0.000 A 
ATOM      9  C   UNL     1      25.276   0.051  53.040  0.00  0.00    +0.000 A 
ATOM     10  C   UNL     1      24.024  -0.477  53.416  0.00  0.00    +0.000 A 
ATOM     11  C   UNL     1      22.826   0.040  52.952  0.00  0.00    +0.000 A 
ATOM     12  C   UNL     1      22.832   1.101  52.065  0.00  0.00    +0.000 A 
ATOM     13  C   UNL     1      24.029   1.679  51.595  0.00  0.00    +0.000 A 
BRANCH   9  14
ATOM     14  N   UNL     1      26.434  -0.558  53.547  0.00  0.00    +0.000 N 
ATOM     15  C   UNL     1      27.155  -1.610  52.844  0.00  0.00    +0.000 C 
ATOM     16  C   UNL     1      27.176   0.074  54.640  0.00  0.00    +0.000 C 
ENDBRANCH   9  14
ENDBRANCH   1   4
BRANCH   1  24
ATOM     17  C   UNL     1      22.692   6.745  50.102  0.00  0.00    +0.000 A 
ATOM     18  N   UNL     1      21.898   7.807  50.389  0.00  0.00    +0.000 NA
ATOM     19  C   UNL     1      20.750   7.882  49.679  0.00  0.00    +0.000 A 
ATOM     20 BR   UNL     1      19.557   9.302  50.045  0.00  0.00    +0.000 Br
ATOM     21  C   UNL     1      20.431   6.948  48.701  0.00  0.00    +0.000 A 
ATOM     22  N   UNL     1      21.212   5.892  48.387  0.00  0.00    +0.000 NA
ATOM     23  C   UNL     1      22.340   5.807  49.119  0.00  0.00    +0.000 A 
ATOM     24  N   UNL     1      23.072   4.628  48.849  0.00  0.00    +0.000 N 
ATOM     25  H   UNL     1      23.803   4.581  48.190  0.00  0.00    +0.000 HD
BRANCH  17  27
ATOM     26  C   UNL     1      24.873   7.579  50.325  0.00  0.00    +0.000 C 
ATOM     27  O   UNL     1      23.912   6.613  50.736  0.00  0.00    +0.000 OA
ENDBRANCH  17  27
ENDBRANCH   1  24
TORSDOF 4
ENDMDL
MODEL 4
REMARK VINA RESULT:    -7.318      2.819      4.024
REMARK INTER + INTRA:          -9.549
REMARK INTER:                  -9.401
REMARK INTRA:                  -0.148
REMARK UNBOUND:                -0.520
REMARK  Name = 
REMARK  7 active torsions:
REMARK  status: ('A' for Active; 'I' for Inactive)
REMARK    1  A    between atoms: C_1  and  O_2
REMARK    2  A    between atoms: O_2  and  C_3
REMARK    3  A    between atoms: N_10  and  S_11
REMARK    4  A    between atoms: S_11  and  C_14
REMARK    5  A    between atoms: C_19  and  N_20
REMARK    6  A    between atoms: N_20  and  C_21
REMARK    7  A    between atoms: N_20  and  C_22
REMARK                            x       y       z     vdW  Elec       q    Type
REMARK                         _______ _______ _______ _____ _____    ______ ____
ROOT
ATOM      1  S   UNL     1      22.511   2.341  50.699  0.00  0.00    +0.000 S 
ATOM      2  O   UNL     1      21.848   1.067  50.878  0.00  0.00    +0.000 OA
ATOM      3  O   UNL     1      22.543   2.966  49.390  0.00  0.00    +0.000 OA
ENDROOT
BRANCH   1   4
ATOM      4  C   UNL     1      24.216   2.139  51.263  0.00  0.00    +0.000 A 
ATOM      5  C   UNL     1      25.186   2.851  50.548  0.00  0.00    +0.000 A 
ATOM      6  C   UNL     1      26.527   2.642  50.817  0.00  0.00    +0.000 A 
ATOM      7  C   UNL     1      26.903   1.711  51.787  0.00  0.00    +0.000 A 
ATOM      8  C   UNL     1      25.976   0.980  52.571  0.00  0.00    +0.000 A 
ATOM      9  C   UNL     1      26.375  -0.008  53.552  0.00  0.00    +0.000 A 
ATOM     10  C   UNL     1      25.346  -0.723  54.197  0.00  0.00    +0.000 A 
ATOM     11  C   UNL     1      24.004  -0.489  53.947  0.00  0.00    +0.000 A 
ATOM     12  C   UNL     1      23.633   0.462  53.015  0.00  0.00    +0.000 A 
ATOM     13  C   UNL     1      24.583   1.207  52.285  0.00  0.00    +0.000 A 
BRANCH   9  14
ATOM     14  N   UNL     1      27.705  -0.335  53.856  0.00  0.00    +0.000 N 
ATOM     15  C   UNL     1      28.489  -1.290  53.084  0.00  0.00    +0.000 C 
ATOM     16  C   UNL     1      28.485   0.524  54.749  0.00  0.00    +0.000 C 
ENDBRANCH   9  14
ENDBRANCH   1   4
BRANCH   1  24
ATOM     17  C   UNL     1      20.510   5.160  50.571  0.00  0.00    +0.000 A 
ATOM     18  N   UNL     1      20.448   6.382  49.988  0.00  0.00    +0.000 NA
ATOM     19  C   UNL     1      21.564   7.137  50.105  0.00  0.00    +0.000 A 
ATOM     20 BR   UNL     1      21.589   8.838  49.282  0.00  0.00    +0.000 Br
ATOM     21  C   UNL     1      22.679   6.693  50.805  0.00  0.00    +0.000 A 
ATOM     22  N   UNL     1      22.758   5.486  51.407  0.00  0.00    +0.000 NA
ATOM     23  C   UNL     1      21.653   4.728  51.261  0.00  0.00    +0.000 A 
ATOM     24  N   UNL     1      21.815   3.430  51.797  0.00  0.00    +0.000 N 
ATOM     25  H   UNL     1      21.550   3.184  52.713  0.00  0.00    +0.000 HD
BRANCH  17  27
ATOM     26  C   UNL     1      18.954   4.014  49.241  0.00  0.00    +0.000 C 
ATOM     27  O   UNL     1      19.399   4.337  50.553  0.00  0.00    +0.000 OA
ENDBRANCH  17  27
ENDBRANCH   1  24
TORSDOF 4
ENDMDL
MODEL 5
REMARK VINA RESULT:    -7.304      3.907      5.088
REMARK INTER + INTRA:          -9.532
REMARK INTER:                  -9.261
REMARK INTRA:                  -0.272
REMARK UNBOUND:                -0.520
REMARK  Name = 
REMARK  7 active torsions:
REMARK  status: ('A' for Active; 'I' for Inactive)
REMARK    1  A    between atoms: C_1  and  O_2
REMARK    2  A    between atoms: O_2  and  C_3
REMARK    3  A    between atoms: N_10  and  S_11
REMARK    4  A    between atoms: S_11  and  C_14
REMARK    5  A    between atoms: C_19  and  N_20
REMARK    6  A    between atoms: N_20  and  C_21
REMARK    7  A    between atoms: N_20  and  C_22
REMARK                            x       y       z     vdW  Elec       q    Type
REMARK                         _______ _______ _______ _____ _____    ______ ____
ROOT
ATOM      1  S   UNL     1      22.078   4.073  50.928  0.00  0.00    +0.000 S 
ATOM      2  O   UNL     1      20.634   4.013  51.008  0.00  0.00    +0.000 OA
ATOM      3  O   UNL     1      22.729   4.202  49.638  0.00  0.00    +0.000 OA
ENDROOT
BRANCH   1   4
ATOM      4  C   UNL     1      22.718   2.586  51.731  0.00  0.00    +0.000 A 
ATOM      5  C   UNL     1      21.801   1.864  52.503  0.00  0.00    +0.000 A 
ATOM      6  C   UNL     1      22.238   0.798  53.269  0.00  0.00    +0.000 A 
ATOM      7  C   UNL     1      23.592   0.461  53.280  0.00  0.00    +0.000 A 
ATOM      8  C   UNL     1      24.571   1.126  52.500  0.00  0.00    +0.000 A 
ATOM      9  C   UNL     1      25.979   0.792  52.542  0.00  0.00    +0.000 A 
ATOM     10  C   UNL     1      26.852   1.594  51.780  0.00  0.00    +0.000 A 
ATOM     11  C   UNL     1      26.407   2.640  50.990  0.00  0.00    +0.000 A 
ATOM     12  C   UNL     1      25.058   2.946  50.949  0.00  0.00    +0.000 A 
ATOM     13  C   UNL     1      24.105   2.233  51.704  0.00  0.00    +0.000 A 
BRANCH   9  14
ATOM     14  N   UNL     1      26.531  -0.231  53.329  0.00  0.00    +0.000 N 
ATOM     15  C   UNL     1      26.878  -1.544  52.802  0.00  0.00    +0.000 C 
ATOM     16  C   UNL     1      27.111   0.083  54.636  0.00  0.00    +0.000 C 
ENDBRANCH   9  14
ENDBRANCH   1   4
BRANCH   1  24
ATOM     17  C   UNL     1      22.596   7.479  50.619  0.00  0.00    +0.000 A 
ATOM     18  N   UNL     1      23.263   8.378  49.853  0.00  0.00    +0.000 NA
ATOM     19  C   UNL     1      24.580   8.126  49.678  0.00  0.00    +0.000 A 
ATOM     20 BR   UNL     1      25.582   9.298  48.586  0.00  0.00    +0.000 Br
ATOM     21  C   UNL     1      25.203   7.037  50.275  0.00  0.00    +0.000 A 
ATOM     22  N   UNL     1      24.563   6.137  51.052  0.00  0.00    +0.000 NA
ATOM     23  C   UNL     1      23.245   6.378  51.198  0.00  0.00    +0.000 A 
ATOM     24  N   UNL     1      22.585   5.354  51.916  0.00  0.00    +0.000 N 
ATOM     25  H   UNL     1      22.435   5.383  52.889  0.00  0.00    +0.000 HD
BRANCH  17  27
ATOM     26  C   UNL     1      20.409   7.515  49.770  0.00  0.00    +0.000 C 
ATOM     27  O   UNL     1      21.258   7.681  50.900  0.00  0.00    +0.000 OA
ENDBRANCH  17  27
ENDBRANCH   1  24
TORSDOF 4
ENDMDL
MODEL 6
REMARK VINA RESULT:    -7.231      1.767      3.173
REMARK INTER + INTRA:          -9.441
REMARK INTER:                  -9.121
REMARK INTRA:                  -0.320
REMARK UNBOUND:                -0.520
REMARK  Name = 
REMARK  7 active torsions:
REMARK  status: ('A' for Active; 'I' for Inactive)
REMARK    1  A    between atoms: C_1  and  O_2
REMARK    2  A    between atoms: O_2  and  C_3
REMARK    3  A    between atoms: N_10  and  S_11
REMARK    4  A    between atoms: S_11  and  C_14
REMARK    5  A    between atoms: C_19  and  N_20
REMARK    6  A    between atoms: N_20  and  C_21
REMARK    7  A    between atoms: N_20  and  C_22
REMARK                            x       y       z     vdW  Elec       q    Type
REMARK                         _______ _______ _______ _____ _____    ______ ____
ROOT
ATOM      1  S   UNL     1      22.204   2.754  50.959  0.00  0.00    +0.000 S 
ATOM      2  O   UNL     1      22.237   3.879  50.050  0.00  0.00    +0.000 OA
ATOM      3  O   UNL     1      21.454   2.842  52.197  0.00  0.00    +0.000 OA
ENDROOT
BRANCH   1   4
ATOM      4  C   UNL     1      23.917   2.352  51.372  0.00  0.00    +0.000 A 
ATOM      5  C   UNL     1      24.899   3.013  50.624  0.00  0.00    +0.000 A 
ATOM      6  C   UNL     1      26.228   2.659  50.772  0.00  0.00    +0.000 A 
ATOM      7  C   UNL     1      26.579   1.634  51.652  0.00  0.00    +0.000 A 
ATOM      8  C   UNL     1      25.644   0.944  52.463  0.00  0.00    +0.000 A 
ATOM      9  C   UNL     1      26.013  -0.141  53.348  0.00  0.00    +0.000 A 
ATOM     10  C   UNL     1      24.968  -0.796  54.030  0.00  0.00    +0.000 A 
ATOM     11  C   UNL     1      23.641  -0.418  53.904  0.00  0.00    +0.000 A 
ATOM     12  C   UNL     1      23.300   0.625  53.062  0.00  0.00    +0.000 A 
ATOM     13  C   UNL     1      24.263   1.322  52.304  0.00  0.00    +0.000 A 
BRANCH   9  14
ATOM     14  N   UNL     1      27.322  -0.614  53.525  0.00  0.00    +0.000 N 
ATOM     15  C   UNL     1      28.222  -0.108  54.553  0.00  0.00    +0.000 C 
ATOM     16  C   UNL     1      27.732  -1.881  52.916  0.00  0.00    +0.000 C 
ENDBRANCH   9  14
ENDBRANCH   1   4
BRANCH   1  24
ATOM     17  C   UNL     1      19.161   1.504  49.890  0.00  0.00    +0.000 A 
ATOM     18  N   UNL     1      17.938   1.160  50.365  0.00  0.00    +0.000 NA
ATOM     19  C   UNL     1      17.943   0.331  51.433  0.00  0.00    +0.000 A 
ATOM     20 BR   UNL     1      16.285  -0.164  52.194  0.00  0.00    +0.000 Br
ATOM     21  C   UNL     1      19.125  -0.155  51.977  0.00  0.00    +0.000 A 
ATOM     22  N   UNL     1      20.353   0.161  51.513  0.00  0.00    +0.000 NA
ATOM     23  C   UNL     1      20.342   1.011  50.467  0.00  0.00    +0.000 A 
ATOM     24  N   UNL     1      21.641   1.414  50.084  0.00  0.00    +0.000 N 
ATOM     25  H   UNL     1      22.166   0.964  49.382  0.00  0.00    +0.000 HD
BRANCH  17  27
ATOM     26  C   UNL     1      18.890   3.658  49.000  0.00  0.00    +0.000 C 
ATOM     27  O   UNL     1      19.258   2.303  48.767  0.00  0.00    +0.000 OA
ENDBRANCH  17  27
ENDBRANCH   1  24
TORSDOF 4
ENDMDL
MODEL 7
REMARK VINA RESULT:    -7.212      2.002      2.607
REMARK INTER + INTRA:          -9.418
REMARK INTER:                  -9.246
REMARK INTRA:                  -0.172
REMARK UNBOUND:                -0.520
REMARK  Name = 
REMARK  7 active torsions:
REMARK  status: ('A' for Active; 'I' for Inactive)
REMARK    1  A    between atoms: C_1  and  O_2
REMARK    2  A    between atoms: O_2  and  C_3
REMARK    3  A    between atoms: N_10  and  S_11
REMARK    4  A    between atoms: S_11  and  C_14
REMARK    5  A    between atoms: C_19  and  N_20
REMARK    6  A    between atoms: N_20  and  C_21
REMARK    7  A    between atoms: N_20  and  C_22
REMARK                            x       y       z     vdW  Elec       q    Type
REMARK                         _______ _______ _______ _____ _____    ______ ____
ROOT
ATOM      1  S   UNL     1      19.953   0.944  51.834  0.00  0.00    +0.000 S 
ATOM      2  O   UNL     1      18.811   0.148  52.227  0.00  0.00    +0.000 OA
ATOM      3  O   UNL     1      20.238   1.161  50.429  0.00  0.00    +0.000 OA
ENDROOT
BRANCH   1   4
ATOM      4  C   UNL     1      21.413   0.194  52.591  0.00  0.00    +0.000 A 
ATOM      5  C   UNL     1      21.165  -0.752  53.593  0.00  0.00    +0.000 A 
ATOM      6  C   UNL     1      22.219  -1.268  54.325  0.00  0.00    +0.000 A 
ATOM      7  C   UNL     1      23.520  -0.828  54.073  0.00  0.00    +0.000 A 
ATOM      8  C   UNL     1      23.848   0.102  53.055  0.00  0.00    +0.000 A 
ATOM      9  C   UNL     1      25.195   0.578  52.822  0.00  0.00    +0.000 A 
ATOM     10  C   UNL     1      25.364   1.569  51.833  0.00  0.00    +0.000 A 
ATOM     11  C   UNL     1      24.310   2.059  51.080  0.00  0.00    +0.000 A 
ATOM     12  C   UNL     1      23.028   1.592  51.305  0.00  0.00    +0.000 A 
ATOM     13  C   UNL     1      22.743   0.631  52.296  0.00  0.00    +0.000 A 
BRANCH   9  14
ATOM     14  N   UNL     1      26.323   0.163  53.547  0.00  0.00    +0.000 N 
ATOM     15  C   UNL     1      26.552   0.522  54.940  0.00  0.00    +0.000 C 
ATOM     16  C   UNL     1      27.149  -0.939  53.050  0.00  0.00    +0.000 C 
ENDBRANCH   9  14
ENDBRANCH   1   4
BRANCH   1  24
ATOM     17  C   UNL     1      18.278   3.917  51.269  0.00  0.00    +0.000 A 
ATOM     18  N   UNL     1      18.105   4.864  50.313  0.00  0.00    +0.000 NA
ATOM     19  C   UNL     1      19.242   5.363  49.778  0.00  0.00    +0.000 A 
ATOM     20 BR   UNL     1      19.100   6.652  48.404  0.00  0.00    +0.000 Br
ATOM     21  C   UNL     1      20.497   4.950  50.210  0.00  0.00    +0.000 A 
ATOM     22  N   UNL     1      20.694   4.021  51.170  0.00  0.00    +0.000 NA
ATOM     23  C   UNL     1      19.556   3.507  51.677  0.00  0.00    +0.000 A 
ATOM     24  N   UNL     1      19.798   2.455  52.590  0.00  0.00    +0.000 N 
ATOM     25  H   UNL     1      19.869   2.585  53.564  0.00  0.00    +0.000 HD
BRANCH  17  27
ATOM     26  C   UNL     1      16.360   2.581  51.072  0.00  0.00    +0.000 C 
ATOM     27  O   UNL     1      17.176   3.388  51.913  0.00  0.00    +0.000 OA
ENDBRANCH  17  27
ENDBRANCH   1  24
TORSDOF 4
ENDMDL
MODEL 8
REMARK VINA RESULT:    -7.208      4.871      6.846
REMARK INTER + INTRA:          -9.413
REMARK INTER:                  -9.064
REMARK INTRA:                  -0.350
REMARK UNBOUND:                -0.520
REMARK  Name = 
REMARK  7 active torsions:
REMARK  status: ('A' for Active; 'I' for Inactive)
REMARK    1  A    between atoms: C_1  and  O_2
REMARK    2  A    between atoms: O_2  and  C_3
REMARK    3  A    between atoms: N_10  and  S_11
REMARK    4  A    between atoms: S_11  and  C_14
REMARK    5  A    between atoms: C_19  and  N_20
REMARK    6  A    between atoms: N_20  and  C_21
REMARK    7  A    between atoms: N_20  and  C_22
REMARK                            x       y       z     vdW  Elec       q    Type
REMARK                         _______ _______ _______ _____ _____    ______ ____
ROOT
ATOM      1  S   UNL     1      23.844   3.789  50.954  0.00  0.00    +0.000 S 
ATOM      2  O   UNL     1      22.562   4.277  50.492  0.00  0.00    +0.000 OA
ATOM      3  O   UNL     1      24.189   3.874  52.360  0.00  0.00    +0.000 OA
ENDROOT
BRANCH   1   4
ATOM      4  C   UNL     1      25.117   4.658  50.012  0.00  0.00    +0.000 A 
ATOM      5  C   UNL     1      26.130   3.859  49.468  0.00  0.00    +0.000 A 
ATOM      6  C   UNL     1      27.220   4.453  48.858  0.00  0.00    +0.000 A 
ATOM      7  C   UNL     1      27.311   5.845  48.805  0.00  0.00    +0.000 A 
ATOM      8  C   UNL     1      26.311   6.715  49.305  0.00  0.00    +0.000 A 
ATOM      9  C   UNL     1      26.429   8.157  49.276  0.00  0.00    +0.000 A 
ATOM     10  C   UNL     1      25.398   8.899  49.887  0.00  0.00    +0.000 A 
ATOM     11  C   UNL     1      24.292   8.301  50.469  0.00  0.00    +0.000 A 
ATOM     12  C   UNL     1      24.184   6.922  50.485  0.00  0.00    +0.000 A 
ATOM     13  C   UNL     1      25.178   6.086  49.936  0.00  0.00    +0.000 A 
BRANCH   9  14
ATOM     14  N   UNL     1      27.520   8.856  48.734  0.00  0.00    +0.000 N 
ATOM     15  C   UNL     1      27.530   9.392  47.380  0.00  0.00    +0.000 C 
ATOM     16  C   UNL     1      28.561   9.386  49.616  0.00  0.00    +0.000 C 
ENDBRANCH   9  14
ENDBRANCH   1   4
BRANCH   1  24
ATOM     17  C   UNL     1      22.031   0.866  51.324  0.00  0.00    +0.000 A 
ATOM     18  N   UNL     1      21.483   0.081  52.285  0.00  0.00    +0.000 NA
ATOM     19  C   UNL     1      22.313  -0.265  53.295  0.00  0.00    +0.000 A 
ATOM     20 BR   UNL     1      21.624  -1.318  54.705  0.00  0.00    +0.000 Br
ATOM     21  C   UNL     1      23.643   0.136  53.319  0.00  0.00    +0.000 A 
ATOM     22  N   UNL     1      24.215   0.904  52.368  0.00  0.00    +0.000 NA
ATOM     23  C   UNL     1      23.375   1.269  51.380  0.00  0.00    +0.000 A 
ATOM     24  N   UNL     1      23.971   2.169  50.467  0.00  0.00    +0.000 N 
ATOM     25  H   UNL     1      24.415   1.885  49.634  0.00  0.00    +0.000 HD
BRANCH  17  27
ATOM     26  C   UNL     1      20.009   1.776  50.559  0.00  0.00    +0.000 C 
ATOM     27  O   UNL     1      21.278   1.225  50.223  0.00  0.00    +0.000 OA
ENDBRANCH  17  27
ENDBRANCH   1  24
TORSDOF 4
ENDMDL
MODEL 9
REMARK VINA RESULT:    -7.032      1.608      2.382
REMARK INTER + INTRA:          -9.196
REMARK INTER:                  -8.992
REMARK INTRA:                  -0.204
REMARK UNBOUND:                -0.520
REMARK  Name = 
REMARK  7 active torsions:
REMARK  status: ('A' for Active; 'I' for Inactive)
REMARK    1  A    between atoms: C_1  and  O_2
REMARK    2  A    between atoms: O_2  and  C_3
REMARK    3  A    between atoms: N_10  and  S_11
REMARK    4  A    between atoms: S_11  and  C_14
REMARK    5  A    between atoms: C_19  and  N_20
REMARK    6  A    between atoms: N_20  and  C_21
REMARK    7  A    between atoms: N_20  and  C_22
REMARK                            x       y       z     vdW  Elec       q    Type
REMARK                         _______ _______ _______ _____ _____    ______ ____
ROOT
ATOM      1  S   UNL     1      21.235   0.843  52.831  0.00  0.00    +0.000 S 
ATOM      2  O   UNL     1      21.427   2.269  52.679  0.00  0.00    +0.000 OA
ATOM      3  O   UNL     1      20.195   0.339  53.707  0.00  0.00    +0.000 OA
ENDROOT
BRANCH   1   4
ATOM      4  C   UNL     1      22.811   0.148  53.379  0.00  0.00    +0.000 A 
ATOM      5  C   UNL     1      22.750  -0.718  54.477  0.00  0.00    +0.000 A 
ATOM      6  C   UNL     1      23.920  -1.179  55.052  0.00  0.00    +0.000 A 
ATOM      7  C   UNL     1      25.153  -0.763  54.546  0.00  0.00    +0.000 A 
ATOM      8  C   UNL     1      25.291   0.085  53.419  0.00  0.00    +0.000 A 
ATOM      9  C   UNL     1      26.572   0.538  52.921  0.00  0.00    +0.000 A 
ATOM     10  C   UNL     1      26.557   1.449  51.846  0.00  0.00    +0.000 A 
ATOM     11  C   UNL     1      25.385   1.884  51.252  0.00  0.00    +0.000 A 
ATOM     12  C   UNL     1      24.165   1.439  51.730  0.00  0.00    +0.000 A 
ATOM     13  C   UNL     1      24.066   0.557  52.825  0.00  0.00    +0.000 A 
BRANCH   9  14
ATOM     14  N   UNL     1      27.813   0.176  53.470  0.00  0.00    +0.000 N 
ATOM     15  C   UNL     1      28.446  -1.113  53.230  0.00  0.00    +0.000 C 
ATOM     16  C   UNL     1      28.696   1.204  54.024  0.00  0.00    +0.000 C 
ENDBRANCH   9  14
ENDBRANCH   1   4
BRANCH   1  24
ATOM     17  C   UNL     1      20.049   1.940  49.773  0.00  0.00    +0.000 A 
ATOM     18  N   UNL     1      18.970   2.547  49.217  0.00  0.00    +0.000 NA
ATOM     19  C   UNL     1      17.774   1.996  49.522  0.00  0.00    +0.000 A 
ATOM     20 BR   UNL     1      16.210   2.802  48.833  0.00  0.00    +0.000 Br
ATOM     21  C   UNL     1      17.672   0.866  50.325  0.00  0.00    +0.000 A 
ATOM     22  N   UNL     1      18.731   0.236  50.877  0.00  0.00    +0.000 NA
ATOM     23  C   UNL     1      19.918   0.808  50.592  0.00  0.00    +0.000 A 
ATOM     24  N   UNL     1      20.991   0.199  51.281  0.00  0.00    +0.000 N 
ATOM     25  H   UNL     1      21.540  -0.525  50.900  0.00  0.00    +0.000 HD
BRANCH  17  27
ATOM     26  C   UNL     1      21.430   3.816  49.495  0.00  0.00    +0.000 C 
ATOM     27  O   UNL     1      21.318   2.397  49.474  0.00  0.00    +0.000 OA
ENDBRANCH  17  27
ENDBRANCH   1  24
TORSDOF 4
ENDMDL
