MODEL 1
REMARK VINA RESULT:   -10.136      0.000      0.000
REMARK INTER + INTRA:         -11.545
REMARK INTER:                 -11.618
REMARK INTRA:                   0.073
REMARK UNBOUND:                 0.073
REMARK  Name = 
REMARK  4 active torsions:
REMARK  status: ('A' for Active; 'I' for Inactive)
REMARK    1  A    between atoms: C_1  and  C_2
REMARK    2  A    between atoms: C_7  and  O_8
REMARK    3  A    between atoms: C_11  and  S_12
REMARK    4  A    between atoms: S_12  and  C_15
REMARK                            x       y       z     vdW  Elec       q    Type
REMARK                         _______ _______ _______ _____ _____    ______ ____
ROOT
ATOM      1  C   UNL     1      16.724  -1.826  52.005  0.00  0.00    +0.000 C 
ATOM      2  C   UNL     1      17.097  -2.614  53.233  0.00  0.00    +0.000 C 
ATOM      3  O   UNL     1      16.380  -3.535  53.634  0.00  0.00    +0.000 OA
ATOM      4  N   UNL     1      18.267  -2.363  53.873  0.00  0.00    +0.000 N 
ATOM      5  C   UNL     1      19.162  -1.340  53.632  0.00  0.00    +0.000 A 
ATOM      6  N   UNL     1      18.763  -0.252  52.968  0.00  0.00    +0.000 NA
ATOM      7  C   UNL     1      19.710   0.642  52.701  0.00  0.00    +0.000 A 
ATOM      8  C   UNL     1      21.044   0.500  53.018  0.00  0.00    +0.000 A 
ATOM      9  C   UNL     1      22.035   1.423  52.648  0.00  0.00    +0.000 A 
ATOM     10  C   UNL     1      23.364   1.140  52.938  0.00  0.00    +0.000 A 
ATOM     11  C   UNL     1      23.701  -0.023  53.628  0.00  0.00    +0.000 A 
ATOM     12  C   UNL     1      22.688  -0.906  54.023  0.00  0.00    +0.000 A 
ATOM     13  C   UNL     1      21.351  -0.666  53.721  0.00  0.00    +0.000 A 
ATOM     14  N   UNL     1      20.411  -1.557  54.069  0.00  0.00    +0.000 NA
ATOM     15  H   UNL     1      18.507  -2.986  54.597  0.00  0.00    +0.000 HD
ENDROOT
BRANCH  10  16
ATOM     16  S   UNL     1      24.608   2.305  52.444  0.00  0.00    +0.000 S 
ATOM     17  O   UNL     1      24.481   2.483  51.011  0.00  0.00    +0.000 OA
ATOM     18  O   UNL     1      24.507   3.446  53.338  0.00  0.00    +0.000 OA
BRANCH  16  19
ATOM     19  C   UNL     1      26.170   1.517  52.753  0.00  0.00    +0.000 A 
ATOM     20  C   UNL     1      27.225   2.260  53.286  0.00  0.00    +0.000 A 
ATOM     21  C   UNL     1      28.430   1.621  53.581  0.00  0.00    +0.000 A 
ATOM     22  C   UNL     1      28.578   0.239  53.380  0.00  0.00    +0.000 A 
ATOM     23  C   UNL     1      29.761  -0.427  53.734  0.00  0.00    +0.000 A 
ATOM     24  C   UNL     1      29.873  -1.810  53.583  0.00  0.00    +0.000 A 
ATOM     25  C   UNL     1      28.817  -2.541  53.046  0.00  0.00    +0.000 A 
ATOM     26  C   UNL     1      27.642  -1.891  52.664  0.00  0.00    +0.000 A 
ATOM     27  C   UNL     1      27.501  -0.506  52.840  0.00  0.00    +0.000 A 
ATOM     28  C   UNL     1      26.303   0.146  52.518  0.00  0.00    +0.000 A 
ENDBRANCH  16  19
ENDBRANCH  10  16
BRANCH   7  29
ATOM     29  O   UNL     1      19.255   1.717  52.003  0.00  0.00    +0.000 OA
ATOM     30  H   UNL     1      18.889   2.450  52.457  0.00  0.00    +0.000 HD
ENDBRANCH   7  29
TORSDOF 3
ENDMDL
MODEL 2
REMARK VINA RESULT:    -9.936      5.868      8.788
REMARK INTER + INTRA:         -11.316
REMARK INTER:                 -10.833
REMARK INTRA:                  -0.483
REMARK UNBOUND:                 0.073
REMARK  Name = 
REMARK  4 active torsions:
REMARK  status: ('A' for Active; 'I' for Inactive)
REMARK    1  A    between atoms: C_1  and  C_2
REMARK    2  A    between atoms: C_7  and  O_8
REMARK    3  A    between atoms: C_11  and  S_12
REMARK    4  A    between atoms: S_12  and  C_15
REMARK                            x       y       z     vdW  Elec       q    Type
REMARK                         _______ _______ _______ _____ _____    ______ ____
ROOT
ATOM      1  C   UNL     1      27.620  10.433  49.126  0.00  0.00    +0.000 C 
ATOM      2  C   UNL     1      28.059   9.751  47.858  0.00  0.00    +0.000 C 
ATOM      3  O   UNL     1      28.739  10.351  47.021  0.00  0.00    +0.000 OA
ATOM      4  N   UNL     1      27.768   8.441  47.653  0.00  0.00    +0.000 N 
ATOM      5  C   UNL     1      26.965   7.622  48.422  0.00  0.00    +0.000 A 
ATOM      6  N   UNL     1      26.076   8.161  49.260  0.00  0.00    +0.000 NA
ATOM      7  C   UNL     1      25.410   7.304  50.026  0.00  0.00    +0.000 A 
ATOM      8  C   UNL     1      25.603   5.939  50.039  0.00  0.00    +0.000 A 
ATOM      9  C   UNL     1      24.943   5.067  50.921  0.00  0.00    +0.000 A 
ATOM     10  C   UNL     1      25.279   3.718  50.914  0.00  0.00    +0.000 A 
ATOM     11  C   UNL     1      26.225   3.233  50.013  0.00  0.00    +0.000 A 
ATOM     12  C   UNL     1      26.838   4.119  49.116  0.00  0.00    +0.000 A 
ATOM     13  C   UNL     1      26.546   5.479  49.118  0.00  0.00    +0.000 A 
ATOM     14  N   UNL     1      27.187   6.308  48.281  0.00  0.00    +0.000 NA
ATOM     15  H   UNL     1      28.180   8.024  46.862  0.00  0.00    +0.000 HD
ENDROOT
BRANCH  10  16
ATOM     16  S   UNL     1      24.453   2.632  52.048  0.00  0.00    +0.000 S 
ATOM     17  O   UNL     1      24.176   3.398  53.248  0.00  0.00    +0.000 OA
ATOM     18  O   UNL     1      23.372   1.992  51.319  0.00  0.00    +0.000 OA
BRANCH  16  19
ATOM     19  C   UNL     1      25.634   1.375  52.473  0.00  0.00    +0.000 A 
ATOM     20  C   UNL     1      25.311   0.031  52.281  0.00  0.00    +0.000 A 
ATOM     21  C   UNL     1      26.265  -0.949  52.561  0.00  0.00    +0.000 A 
ATOM     22  C   UNL     1      27.552  -0.593  52.999  0.00  0.00    +0.000 A 
ATOM     23  C   UNL     1      28.540  -1.564  53.220  0.00  0.00    +0.000 A 
ATOM     24  C   UNL     1      29.831  -1.192  53.599  0.00  0.00    +0.000 A 
ATOM     25  C   UNL     1      30.142   0.151  53.793  0.00  0.00    +0.000 A 
ATOM     26  C   UNL     1      29.164   1.128  53.602  0.00  0.00    +0.000 A 
ATOM     27  C   UNL     1      27.870   0.774  53.189  0.00  0.00    +0.000 A 
ATOM     28  C   UNL     1      26.898   1.751  52.935  0.00  0.00    +0.000 A 
ENDBRANCH  16  19
ENDBRANCH  10  16
BRANCH   7  29
ATOM     29  O   UNL     1      24.536   7.906  50.876  0.00  0.00    +0.000 OA
ATOM     30  H   UNL     1      24.854   8.362  51.631  0.00  0.00    +0.000 HD
ENDBRANCH   7  29
TORSDOF 3
ENDMDL
MODEL 3
REMARK VINA RESULT:    -9.843      6.647     10.006
REMARK INTER + INTRA:         -11.208
REMARK INTER:                 -10.619
REMARK INTRA:                  -0.589
REMARK UNBOUND:                 0.073
REMARK  Name = 
REMARK  4 active torsions:
REMARK  status: ('A' for Active; 'I' for Inactive)
REMARK    1  A    between atoms: C_1  and  C_2
REMARK    2  A    between atoms: C_7  and  O_8
REMARK    3  A    between atoms: C_11  and  S_12
REMARK    4  A    between atoms: S_12  and  C_15
REMARK                            x       y       z     vdW  Elec       q    Type
REMARK                         _______ _______ _______ _____ _____    ______ ____
ROOT
ATOM      1  C   UNL     1      30.574   9.954  49.592  0.00  0.00    +0.000 C 
ATOM      2  C   UNL     1      30.875   9.113  48.380  0.00  0.00    +0.000 C 
ATOM      3  O   UNL     1      31.931   9.259  47.758  0.00  0.00    +0.000 OA
ATOM      4  N   UNL     1      30.015   8.135  47.998  0.00  0.00    +0.000 N 
ATOM      5  C   UNL     1      28.761   7.864  48.508  0.00  0.00    +0.000 A 
ATOM      6  N   UNL     1      28.108   8.804  49.196  0.00  0.00    +0.000 NA
ATOM      7  C   UNL     1      26.948   8.430  49.727  0.00  0.00    +0.000 A 
ATOM      8  C   UNL     1      26.416   7.160  49.651  0.00  0.00    +0.000 A 
ATOM      9  C   UNL     1      25.229   6.773  50.295  0.00  0.00    +0.000 A 
ATOM     10  C   UNL     1      24.828   5.444  50.229  0.00  0.00    +0.000 A 
ATOM     11  C   UNL     1      25.570   4.521  49.495  0.00  0.00    +0.000 A 
ATOM     12  C   UNL     1      26.728   4.944  48.828  0.00  0.00    +0.000 A 
ATOM     13  C   UNL     1      27.173   6.260  48.899  0.00  0.00    +0.000 A 
ATOM     14  N   UNL     1      28.312   6.621  48.291  0.00  0.00    +0.000 NA
ATOM     15  H   UNL     1      30.323   7.548  47.271  0.00  0.00    +0.000 HD
ENDROOT
BRANCH  10  16
ATOM     16  S   UNL     1      23.338   4.965  51.065  0.00  0.00    +0.000 S 
ATOM     17  O   UNL     1      23.145   5.895  52.161  0.00  0.00    +0.000 OA
ATOM     18  O   UNL     1      22.311   4.799  50.051  0.00  0.00    +0.000 OA
BRANCH  16  19
ATOM     19  C   UNL     1      23.663   3.366  51.769  0.00  0.00    +0.000 A 
ATOM     20  C   UNL     1      22.899   2.267  51.368  0.00  0.00    +0.000 A 
ATOM     21  C   UNL     1      23.197   1.004  51.880  0.00  0.00    +0.000 A 
ATOM     22  C   UNL     1      24.276   0.824  52.762  0.00  0.00    +0.000 A 
ATOM     23  C   UNL     1      24.628  -0.451  53.231  0.00  0.00    +0.000 A 
ATOM     24  C   UNL     1      25.737  -0.623  54.061  0.00  0.00    +0.000 A 
ATOM     25  C   UNL     1      26.490   0.479  54.458  0.00  0.00    +0.000 A 
ATOM     26  C   UNL     1      26.138   1.757  54.021  0.00  0.00    +0.000 A 
ATOM     27  C   UNL     1      25.046   1.944  53.161  0.00  0.00    +0.000 A 
ATOM     28  C   UNL     1      24.722   3.215  52.666  0.00  0.00    +0.000 A 
ENDBRANCH  16  19
ENDBRANCH  10  16
BRANCH   7  29
ATOM     29  O   UNL     1      26.337   9.415  50.437  0.00  0.00    +0.000 OA
ATOM     30  H   UNL     1      25.480   9.707  50.193  0.00  0.00    +0.000 HD
ENDBRANCH   7  29
TORSDOF 3
ENDMDL
MODEL 4
REMARK VINA RESULT:    -9.704      5.001      8.151
REMARK INTER + INTRA:         -11.049
REMARK INTER:                 -10.387
REMARK INTRA:                  -0.662
REMARK UNBOUND:                 0.073
REMARK  Name = 
REMARK  4 active torsions:
REMARK  status: ('A' for Active; 'I' for Inactive)
REMARK    1  A    between atoms: C_1  and  C_2
REMARK    2  A    between atoms: C_7  and  O_8
REMARK    3  A    between atoms: C_11  and  S_12
REMARK    4  A    between atoms: S_12  and  C_15
REMARK                            x       y       z     vdW  Elec       q    Type
REMARK                         _______ _______ _______ _____ _____    ______ ____
ROOT
ATOM      1  C   UNL     1      29.763  -0.496  53.681  0.00  0.00    +0.000 C 
ATOM      2  C   UNL     1      28.968  -1.751  53.438  0.00  0.00    +0.000 C 
ATOM      3  O   UNL     1      29.465  -2.862  53.643  0.00  0.00    +0.000 OA
ATOM      4  N   UNL     1      27.668  -1.672  53.056  0.00  0.00    +0.000 N 
ATOM      5  C   UNL     1      26.957  -0.542  52.705  0.00  0.00    +0.000 A 
ATOM      6  N   UNL     1      27.608   0.567  52.343  0.00  0.00    +0.000 NA
ATOM      7  C   UNL     1      26.849   1.632  52.109  0.00  0.00    +0.000 A 
ATOM      8  C   UNL     1      25.479   1.676  52.255  0.00  0.00    +0.000 A 
ATOM      9  C   UNL     1      24.713   2.841  52.083  0.00  0.00    +0.000 A 
ATOM     10  C   UNL     1      23.349   2.797  52.343  0.00  0.00    +0.000 A 
ATOM     11  C   UNL     1      22.744   1.601  52.726  0.00  0.00    +0.000 A 
ATOM     12  C   UNL     1      23.525   0.444  52.850  0.00  0.00    +0.000 A 
ATOM     13  C   UNL     1      24.898   0.461  52.625  0.00  0.00    +0.000 A 
ATOM     14  N   UNL     1      25.625  -0.651  52.802  0.00  0.00    +0.000 NA
ATOM     15  H   UNL     1      27.173  -2.521  53.025  0.00  0.00    +0.000 HD
ENDROOT
BRANCH  10  16
ATOM     16  S   UNL     1      22.398   4.281  52.143  0.00  0.00    +0.000 S 
ATOM     17  O   UNL     1      21.064   3.882  51.739  0.00  0.00    +0.000 OA
ATOM     18  O   UNL     1      22.595   5.082  53.339  0.00  0.00    +0.000 OA
BRANCH  16  19
ATOM     19  C   UNL     1      23.134   5.156  50.783  0.00  0.00    +0.000 A 
ATOM     20  C   UNL     1      22.935   4.698  49.479  0.00  0.00    +0.000 A 
ATOM     21  C   UNL     1      23.465   5.423  48.411  0.00  0.00    +0.000 A 
ATOM     22  C   UNL     1      24.164   6.621  48.634  0.00  0.00    +0.000 A 
ATOM     23  C   UNL     1      24.645   7.394  47.566  0.00  0.00    +0.000 A 
ATOM     24  C   UNL     1      25.287   8.611  47.800  0.00  0.00    +0.000 A 
ATOM     25  C   UNL     1      25.484   9.056  49.104  0.00  0.00    +0.000 A 
ATOM     26  C   UNL     1      25.036   8.288  50.179  0.00  0.00    +0.000 A 
ATOM     27  C   UNL     1      24.359   7.078  49.961  0.00  0.00    +0.000 A 
ATOM     28  C   UNL     1      23.850   6.330  51.030  0.00  0.00    +0.000 A 
ENDBRANCH  16  19
ENDBRANCH  10  16
BRANCH   7  29
ATOM     29  O   UNL     1      27.563   2.739  51.768  0.00  0.00    +0.000 OA
ATOM     30  H   UNL     1      27.972   3.257  52.433  0.00  0.00    +0.000 HD
ENDBRANCH   7  29
TORSDOF 3
ENDMDL
MODEL 5
REMARK VINA RESULT:    -9.662      5.235      7.579
REMARK INTER + INTRA:         -11.001
REMARK INTER:                 -10.552
REMARK INTRA:                  -0.449
REMARK UNBOUND:                 0.073
REMARK  Name = 
REMARK  4 active torsions:
REMARK  status: ('A' for Active; 'I' for Inactive)
REMARK    1  A    between atoms: C_1  and  C_2
REMARK    2  A    between atoms: C_7  and  O_8
REMARK    3  A    between atoms: C_11  and  S_12
REMARK    4  A    between atoms: S_12  and  C_15
REMARK                            x       y       z     vdW  Elec       q    Type
REMARK                         _______ _______ _______ _____ _____    ______ ____
ROOT
ATOM      1  C   UNL     1      25.945   9.616  49.058  0.00  0.00    +0.000 C 
ATOM      2  C   UNL     1      25.090   9.332  47.851  0.00  0.00    +0.000 C 
ATOM      3  O   UNL     1      25.074  10.109  46.893  0.00  0.00    +0.000 OA
ATOM      4  N   UNL     1      24.379   8.178  47.775  0.00  0.00    +0.000 N 
ATOM      5  C   UNL     1      24.206   7.225  48.758  0.00  0.00    +0.000 A 
ATOM      6  N   UNL     1      24.426   7.542  50.037  0.00  0.00    +0.000 NA
ATOM      7  C   UNL     1      24.324   6.542  50.906  0.00  0.00    +0.000 A 
ATOM      8  C   UNL     1      24.056   5.231  50.577  0.00  0.00    +0.000 A 
ATOM      9  C   UNL     1      24.037   4.181  51.509  0.00  0.00    +0.000 A 
ATOM     10  C   UNL     1      23.847   2.880  51.058  0.00  0.00    +0.000 A 
ATOM     11  C   UNL     1      23.631   2.630  49.704  0.00  0.00    +0.000 A 
ATOM     12  C   UNL     1      23.613   3.701  48.801  0.00  0.00    +0.000 A 
ATOM     13  C   UNL     1      23.830   5.011  49.216  0.00  0.00    +0.000 A 
ATOM     14  N   UNL     1      23.857   6.007  48.320  0.00  0.00    +0.000 NA
ATOM     15  H   UNL     1      23.934   7.999  46.916  0.00  0.00    +0.000 HD
ENDROOT
BRANCH  10  16
ATOM     16  S   UNL     1      23.848   1.561  52.245  0.00  0.00    +0.000 S 
ATOM     17  O   UNL     1      23.255   2.081  53.461  0.00  0.00    +0.000 OA
ATOM     18  O   UNL     1      23.281   0.394  51.590  0.00  0.00    +0.000 OA
BRANCH  16  19
ATOM     19  C   UNL     1      25.556   1.210  52.586  0.00  0.00    +0.000 A 
ATOM     20  C   UNL     1      26.405   2.241  52.992  0.00  0.00    +0.000 A 
ATOM     21  C   UNL     1      27.731   1.948  53.316  0.00  0.00    +0.000 A 
ATOM     22  C   UNL     1      28.205   0.626  53.271  0.00  0.00    +0.000 A 
ATOM     23  C   UNL     1      29.515   0.309  53.658  0.00  0.00    +0.000 A 
ATOM     24  C   UNL     1      29.955  -1.016  53.664  0.00  0.00    +0.000 A 
ATOM     25  C   UNL     1      29.102  -2.036  53.254  0.00  0.00    +0.000 A 
ATOM     26  C   UNL     1      27.803  -1.736  52.841  0.00  0.00    +0.000 A 
ATOM     27  C   UNL     1      27.334  -0.413  52.860  0.00  0.00    +0.000 A 
ATOM     28  C   UNL     1      26.013  -0.108  52.507  0.00  0.00    +0.000 A 
ENDBRANCH  16  19
ENDBRANCH  10  16
BRANCH   7  29
ATOM     29  O   UNL     1      24.581   6.914  52.189  0.00  0.00    +0.000 OA
ATOM     30  H   UNL     1      25.295   6.525  52.656  0.00  0.00    +0.000 HD
ENDBRANCH   7  29
TORSDOF 3
ENDMDL
MODEL 6
REMARK VINA RESULT:    -9.642      1.675      2.586
REMARK INTER + INTRA:         -10.978
REMARK INTER:                 -10.627
REMARK INTRA:                  -0.351
REMARK UNBOUND:                 0.073
REMARK  Name = 
REMARK  4 active torsions:
REMARK  status: ('A' for Active; 'I' for Inactive)
REMARK    1  A    between atoms: C_1  and  C_2
REMARK    2  A    between atoms: C_7  and  O_8
REMARK    3  A    between atoms: C_11  and  S_12
REMARK    4  A    between atoms: S_12  and  C_15
REMARK                            x       y       z     vdW  Elec       q    Type
REMARK                         _______ _______ _______ _____ _____    ______ ____
ROOT
ATOM      1  C   UNL     1      16.209  -0.284  52.889  0.00  0.00    +0.000 C 
ATOM      2  C   UNL     1      16.282  -0.662  51.434  0.00  0.00    +0.000 C 
ATOM      3  O   UNL     1      15.284  -1.075  50.838  0.00  0.00    +0.000 OA
ATOM      4  N   UNL     1      17.436  -0.485  50.741  0.00  0.00    +0.000 N 
ATOM      5  C   UNL     1      18.671  -0.112  51.234  0.00  0.00    +0.000 A 
ATOM      6  N   UNL     1      18.936  -0.253  52.535  0.00  0.00    +0.000 NA
ATOM      7  C   UNL     1      20.113   0.215  52.939  0.00  0.00    +0.000 A 
ATOM      8  C   UNL     1      21.029   0.856  52.132  0.00  0.00    +0.000 A 
ATOM      9  C   UNL     1      22.227   1.415  52.605  0.00  0.00    +0.000 A 
ATOM     10  C   UNL     1      23.038   2.120  51.723  0.00  0.00    +0.000 A 
ATOM     11  C   UNL     1      22.686   2.230  50.379  0.00  0.00    +0.000 A 
ATOM     12  C   UNL     1      21.506   1.627  49.926  0.00  0.00    +0.000 A 
ATOM     13  C   UNL     1      20.658   0.939  50.789  0.00  0.00    +0.000 A 
ATOM     14  N   UNL     1      19.510   0.417  50.333  0.00  0.00    +0.000 NA
ATOM     15  H   UNL     1      17.387  -0.642  49.771  0.00  0.00    +0.000 HD
ENDROOT
BRANCH  10  16
ATOM     16  S   UNL     1      24.538   2.840  52.340  0.00  0.00    +0.000 S 
ATOM     17  O   UNL     1      25.111   3.621  51.261  0.00  0.00    +0.000 OA
ATOM     18  O   UNL     1      24.222   3.464  53.613  0.00  0.00    +0.000 OA
BRANCH  16  19
ATOM     19  C   UNL     1      25.637   1.483  52.663  0.00  0.00    +0.000 A 
ATOM     20  C   UNL     1      25.198   0.173  52.457  0.00  0.00    +0.000 A 
ATOM     21  C   UNL     1      26.085  -0.885  52.657  0.00  0.00    +0.000 A 
ATOM     22  C   UNL     1      27.418  -0.644  53.026  0.00  0.00    +0.000 A 
ATOM     23  C   UNL     1      28.338  -1.695  53.165  0.00  0.00    +0.000 A 
ATOM     24  C   UNL     1      29.674  -1.436  53.477  0.00  0.00    +0.000 A 
ATOM     25  C   UNL     1      30.101  -0.127  53.685  0.00  0.00    +0.000 A 
ATOM     26  C   UNL     1      29.194   0.928  53.576  0.00  0.00    +0.000 A 
ATOM     27  C   UNL     1      27.855   0.688  53.232  0.00  0.00    +0.000 A 
ATOM     28  C   UNL     1      26.951   1.745  53.059  0.00  0.00    +0.000 A 
ENDBRANCH  16  19
ENDBRANCH  10  16
BRANCH   7  29
ATOM     29  O   UNL     1      20.323   0.068  54.274  0.00  0.00    +0.000 OA
ATOM     30  H   UNL     1      20.510   0.817  54.805  0.00  0.00    +0.000 HD
ENDBRANCH   7  29
TORSDOF 3
ENDMDL
MODEL 7
REMARK VINA RESULT:    -9.544      6.605      9.759
REMARK INTER + INTRA:         -10.866
REMARK INTER:                 -10.281
REMARK INTRA:                  -0.585
REMARK UNBOUND:                 0.073
REMARK  Name = 
REMARK  4 active torsions:
REMARK  status: ('A' for Active; 'I' for Inactive)
REMARK    1  A    between atoms: C_1  and  C_2
REMARK    2  A    between atoms: C_7  and  O_8
REMARK    3  A    between atoms: C_11  and  S_12
REMARK    4  A    between atoms: S_12  and  C_15
REMARK                            x       y       z     vdW  Elec       q    Type
REMARK                         _______ _______ _______ _____ _____    ______ ____
ROOT
ATOM      1  C   UNL     1      29.102  10.118  47.565  0.00  0.00    +0.000 C 
ATOM      2  C   UNL     1      28.836  10.808  48.877  0.00  0.00    +0.000 C 
ATOM      3  O   UNL     1      29.346  11.904  49.128  0.00  0.00    +0.000 OA
ATOM      4  N   UNL     1      27.975  10.262  49.772  0.00  0.00    +0.000 N 
ATOM      5  C   UNL     1      27.367   9.024  49.715  0.00  0.00    +0.000 A 
ATOM      6  N   UNL     1      27.877   8.070  48.932  0.00  0.00    +0.000 NA
ATOM      7  C   UNL     1      27.180   6.940  48.868  0.00  0.00    +0.000 A 
ATOM      8  C   UNL     1      25.978   6.715  49.505  0.00  0.00    +0.000 A 
ATOM      9  C   UNL     1      25.222   5.542  49.351  0.00  0.00    +0.000 A 
ATOM     10  C   UNL     1      23.979   5.453  49.966  0.00  0.00    +0.000 A 
ATOM     11  C   UNL     1      23.513   6.498  50.763  0.00  0.00    +0.000 A 
ATOM     12  C   UNL     1      24.307   7.639  50.934  0.00  0.00    +0.000 A 
ATOM     13  C   UNL     1      25.542   7.772  50.307  0.00  0.00    +0.000 A 
ATOM     14  N   UNL     1      26.254   8.898  50.450  0.00  0.00    +0.000 NA
ATOM     15  H   UNL     1      27.756  10.816  50.556  0.00  0.00    +0.000 HD
ENDROOT
BRANCH  10  16
ATOM     16  S   UNL     1      23.025   3.974  49.744  0.00  0.00    +0.000 S 
ATOM     17  O   UNL     1      21.643   4.310  50.029  0.00  0.00    +0.000 OA
ATOM     18  O   UNL     1      23.394   3.415  48.454  0.00  0.00    +0.000 OA
BRANCH  16  19
ATOM     19  C   UNL     1      23.573   2.842  50.998  0.00  0.00    +0.000 A 
ATOM     20  C   UNL     1      22.686   2.436  51.998  0.00  0.00    +0.000 A 
ATOM     21  C   UNL     1      23.106   1.502  52.946  0.00  0.00    +0.000 A 
ATOM     22  C   UNL     1      24.393   0.943  52.882  0.00  0.00    +0.000 A 
ATOM     23  C   UNL     1      24.804  -0.046  53.788  0.00  0.00    +0.000 A 
ATOM     24  C   UNL     1      26.065  -0.634  53.677  0.00  0.00    +0.000 A 
ATOM     25  C   UNL     1      26.943  -0.219  52.680  0.00  0.00    +0.000 A 
ATOM     26  C   UNL     1      26.561   0.782  51.786  0.00  0.00    +0.000 A 
ATOM     27  C   UNL     1      25.285   1.360  51.863  0.00  0.00    +0.000 A 
ATOM     28  C   UNL     1      24.868   2.321  50.932  0.00  0.00    +0.000 A 
ENDBRANCH  16  19
ENDBRANCH  10  16
BRANCH   7  29
ATOM     29  O   UNL     1      27.729   6.013  48.039  0.00  0.00    +0.000 OA
ATOM     30  H   UNL     1      28.595   6.138  47.702  0.00  0.00    +0.000 HD
ENDBRANCH   7  29
TORSDOF 3
ENDMDL
MODEL 8
REMARK VINA RESULT:    -9.237      2.974      8.566
REMARK INTER + INTRA:         -10.514
REMARK INTER:                 -10.961
REMARK INTRA:                   0.446
REMARK UNBOUND:                 0.073
REMARK  Name = 
REMARK  4 active torsions:
REMARK  status: ('A' for Active; 'I' for Inactive)
REMARK    1  A    between atoms: C_1  and  C_2
REMARK    2  A    between atoms: C_7  and  O_8
REMARK    3  A    between atoms: C_11  and  S_12
REMARK    4  A    between atoms: S_12  and  C_15
REMARK                            x       y       z     vdW  Elec       q    Type
REMARK                         _______ _______ _______ _____ _____    ______ ____
ROOT
ATOM      1  C   UNL     1      29.153   1.245  53.914  0.00  0.00    +0.000 C 
ATOM      2  C   UNL     1      28.959  -0.247  53.990  0.00  0.00    +0.000 C 
ATOM      3  O   UNL     1      29.865  -0.981  54.390  0.00  0.00    +0.000 OA
ATOM      4  N   UNL     1      27.755  -0.793  53.684  0.00  0.00    +0.000 N 
ATOM      5  C   UNL     1      26.649  -0.162  53.151  0.00  0.00    +0.000 A 
ATOM      6  N   UNL     1      26.792   1.009  52.524  0.00  0.00    +0.000 NA
ATOM      7  C   UNL     1      25.666   1.590  52.122  0.00  0.00    +0.000 A 
ATOM      8  C   UNL     1      24.398   1.097  52.343  0.00  0.00    +0.000 A 
ATOM      9  C   UNL     1      23.223   1.776  51.980  0.00  0.00    +0.000 A 
ATOM     10  C   UNL     1      21.993   1.233  52.331  0.00  0.00    +0.000 A 
ATOM     11  C   UNL     1      21.928   0.008  52.994  0.00  0.00    +0.000 A 
ATOM     12  C   UNL     1      23.115  -0.668  53.306  0.00  0.00    +0.000 A 
ATOM     13  C   UNL     1      24.363  -0.137  52.995  0.00  0.00    +0.000 A 
ATOM     14  N   UNL     1      25.480  -0.785  53.354  0.00  0.00    +0.000 NA
ATOM     15  H   UNL     1      27.658  -1.756  53.864  0.00  0.00    +0.000 HD
ENDROOT
BRANCH  10  16
ATOM     16  S   UNL     1      20.518   2.113  51.886  0.00  0.00    +0.000 S 
ATOM     17  O   UNL     1      20.308   3.131  52.897  0.00  0.00    +0.000 OA
ATOM     18  O   UNL     1      20.644   2.481  50.486  0.00  0.00    +0.000 OA
BRANCH  16  19
ATOM     19  C   UNL     1      19.189   0.942  52.017  0.00  0.00    +0.000 A 
ATOM     20  C   UNL     1      18.058   1.088  51.212  0.00  0.00    +0.000 A 
ATOM     21  C   UNL     1      17.043   0.132  51.277  0.00  0.00    +0.000 A 
ATOM     22  C   UNL     1      17.166  -0.988  52.116  0.00  0.00    +0.000 A 
ATOM     23  C   UNL     1      16.185  -1.990  52.142  0.00  0.00    +0.000 A 
ATOM     24  C   UNL     1      16.347  -3.126  52.937  0.00  0.00    +0.000 A 
ATOM     25  C   UNL     1      17.476  -3.260  53.740  0.00  0.00    +0.000 A 
ATOM     26  C   UNL     1      18.450  -2.261  53.746  0.00  0.00    +0.000 A 
ATOM     27  C   UNL     1      18.318  -1.128  52.928  0.00  0.00    +0.000 A 
ATOM     28  C   UNL     1      19.320  -0.149  52.880  0.00  0.00    +0.000 A 
ENDBRANCH  16  19
ENDBRANCH  10  16
BRANCH   7  29
ATOM     29  O   UNL     1      25.866   2.789  51.512  0.00  0.00    +0.000 OA
ATOM     30  H   UNL     1      26.735   3.069  51.300  0.00  0.00    +0.000 HD
ENDBRANCH   7  29
TORSDOF 3
ENDMDL
MODEL 9
REMARK VINA RESULT:    -9.180      4.376     10.239
REMARK INTER + INTRA:         -10.449
REMARK INTER:                  -9.869
REMARK INTRA:                  -0.580
REMARK UNBOUND:                 0.073
REMARK  Name = 
REMARK  4 active torsions:
REMARK  status: ('A' for Active; 'I' for Inactive)
REMARK    1  A    between atoms: C_1  and  C_2
REMARK    2  A    between atoms: C_7  and  O_8
REMARK    3  A    between atoms: C_11  and  S_12
REMARK    4  A    between atoms: S_12  and  C_15
REMARK                            x       y       z     vdW  Elec       q    Type
REMARK                         _______ _______ _______ _____ _____    ______ ____
ROOT
ATOM      1  C   UNL     1      24.972  -0.687  53.586  0.00  0.00    +0.000 C 
ATOM      2  C   UNL     1      25.270   0.457  52.653  0.00  0.00    +0.000 C 
ATOM      3  O   UNL     1      26.434   0.805  52.434  0.00  0.00    +0.000 OA
ATOM      4  N   UNL     1      24.261   1.074  51.988  0.00  0.00    +0.000 N 
ATOM      5  C   UNL     1      22.903   0.887  52.148  0.00  0.00    +0.000 A 
ATOM      6  N   UNL     1      22.437   0.331  53.269  0.00  0.00    +0.000 NA
ATOM      7  C   UNL     1      21.128   0.106  53.302  0.00  0.00    +0.000 A 
ATOM      8  C   UNL     1      20.255   0.362  52.266  0.00  0.00    +0.000 A 
ATOM      9  C   UNL     1      18.889   0.035  52.299  0.00  0.00    +0.000 A 
ATOM     10  C   UNL     1      18.115   0.254  51.166  0.00  0.00    +0.000 A 
ATOM     11  C   UNL     1      18.678   0.832  50.030  0.00  0.00    +0.000 A 
ATOM     12  C   UNL     1      20.033   1.187  50.039  0.00  0.00    +0.000 A 
ATOM     13  C   UNL     1      20.843   0.954  51.147  0.00  0.00    +0.000 A 
ATOM     14  N   UNL     1      22.147   1.259  51.105  0.00  0.00    +0.000 NA
ATOM     15  H   UNL     1      24.530   1.734  51.309  0.00  0.00    +0.000 HD
ENDROOT
BRANCH  10  16
ATOM     16  S   UNL     1      16.396  -0.185  51.214  0.00  0.00    +0.000 S 
ATOM     17  O   UNL     1      15.934  -0.253  49.841  0.00  0.00    +0.000 OA
ATOM     18  O   UNL     1      16.272  -1.338  52.089  0.00  0.00    +0.000 OA
BRANCH  16  19
ATOM     19  C   UNL     1      15.563   1.175  51.995  0.00  0.00    +0.000 A 
ATOM     20  C   UNL     1      15.984   2.482  51.738  0.00  0.00    +0.000 A 
ATOM     21  C   UNL     1      15.288   3.549  52.308  0.00  0.00    +0.000 A 
ATOM     22  C   UNL     1      14.153   3.322  53.104  0.00  0.00    +0.000 A 
ATOM     23  C   UNL     1      13.406   4.388  53.628  0.00  0.00    +0.000 A 
ATOM     24  C   UNL     1      12.248   4.148  54.370  0.00  0.00    +0.000 A 
ATOM     25  C   UNL     1      11.840   2.842  54.625  0.00  0.00    +0.000 A 
ATOM     26  C   UNL     1      12.586   1.770  54.134  0.00  0.00    +0.000 A 
ATOM     27  C   UNL     1      13.734   1.993  53.358  0.00  0.00    +0.000 A 
ATOM     28  C   UNL     1      14.455   0.925  52.807  0.00  0.00    +0.000 A 
ENDBRANCH  16  19
ENDBRANCH  10  16
BRANCH   7  29
ATOM     29  O   UNL     1      20.710  -0.484  54.454  0.00  0.00    +0.000 OA
ATOM     30  H   UNL     1      21.106  -0.250  55.271  0.00  0.00    +0.000 HD
ENDBRANCH   7  29
TORSDOF 3
ENDMDL
