MODEL 1
REMARK VINA RESULT:    -7.641      0.000      0.000
REMARK INTER + INTRA:         -12.342
REMARK INTER:                 -10.544
REMARK INTRA:                  -1.798
REMARK UNBOUND:                -1.798
REMARK  Name = 
REMARK  11 active torsions:
REMARK  status: ('A' for Active; 'I' for Inactive)
REMARK    1  A    between atoms: C_1  and  C_2
REMARK    2  A    between atoms: C_2  and  C_3
REMARK    3  A    between atoms: C_2  and  N_4
REMARK    4  A    between atoms: N_4  and  C_5
REMARK    5  A    between atoms: N_4  and  C_26
REMARK    6  A    between atoms: C_5  and  C_6
REMARK    7  A    between atoms: C_6  and  N_7
REMARK    8  A    between atoms: N_7  and  C_8
REMARK    9  A    between atoms: C_18  and  O_19
REMARK   10  A    between atoms: C_26  and  C_27
REMARK   11  A    between atoms: C_26  and  C_28
REMARK                            x       y       z     vdW  Elec       q    Type
REMARK                         _______ _______ _______ _____ _____    ______ ____
ROOT
ATOM      1  C   UNL     1      26.045   2.105  51.589  0.00  0.00    +0.000 A 
ATOM      2  C   UNL     1      27.305   2.325  52.158  0.00  0.00    +0.000 A 
ATOM      3  C   UNL     1      27.710   1.709  53.392  0.00  0.00    +0.000 A 
ATOM      4  C   UNL     1      26.822   0.828  54.028  0.00  0.00    +0.000 A 
ATOM      5  N   UNL     1      26.897   0.050  55.161  0.00  0.00    +0.000 NA
ATOM      6  C   UNL     1      25.718  -0.562  55.261  0.00  0.00    +0.000 A 
ATOM      7  N   UNL     1      24.892  -0.207  54.224  0.00  0.00    +0.000 N 
ATOM      8  C   UNL     1      23.543  -0.480  53.931  0.00  0.00    +0.000 A 
ATOM      9  C   UNL     1      22.818  -1.516  54.496  0.00  0.00    +0.000 A 
ATOM     10  C   UNL     1      21.434  -1.444  54.327  0.00  0.00    +0.000 A 
ATOM     11  C   UNL     1      20.873  -0.216  53.997  0.00  0.00    +0.000 A 
ATOM     12  C   UNL     1      21.538   0.564  53.077  0.00  0.00    +0.000 A 
ATOM     13  C   UNL     1      22.912   0.387  53.020  0.00  0.00    +0.000 A 
ATOM     14  C   UNL     1      23.711   1.146  52.041  0.00  0.00    +0.000 A 
ATOM     15  O   UNL     1      23.191   1.527  50.985  0.00  0.00    +0.000 OA
ATOM     16  C   UNL     1      25.139   1.343  52.339  0.00  0.00    +0.000 A 
ATOM     17  C   UNL     1      25.570   0.685  53.463  0.00  0.00    +0.000 A 
ENDROOT
BRANCH   1  18
ATOM     18  N   UNL     1      25.609   2.618  50.391  0.00  0.00    +0.000 N 
ATOM     19  H   UNL     1      25.063   2.001  49.853  0.00  0.00    +0.000 HD
BRANCH  18  20
ATOM     20  C   UNL     1      25.822   3.918  49.794  0.00  0.00    +0.000 C 
BRANCH  20  21
ATOM     21  C   UNL     1      24.682   4.938  50.037  0.00  0.00    +0.000 C 
BRANCH  21  22
ATOM     22  N   UNL     1      23.267   4.561  50.262  0.00  0.00    +0.000 N 
ATOM     23  H   UNL     1      23.409   3.559  50.390  0.00  0.00    +0.000 HD
BRANCH  22  25
ATOM     24  C   UNL     1      22.380   5.915  48.253  0.00  0.00    +0.000 C 
ATOM     25  C   UNL     1      22.354   4.635  49.093  0.00  0.00    +0.000 C 
ATOM     26  C   UNL     1      22.479   3.411  48.177  0.00  0.00    +0.000 C 
ENDBRANCH  22  25
BRANCH  22  27
ATOM     27  C   UNL     1      22.641   4.974  51.540  0.00  0.00    +0.000 C 
ATOM     28  C   UNL     1      21.281   4.265  51.754  0.00  0.00    +0.000 C 
ATOM     29  C   UNL     1      23.434   4.683  52.830  0.00  0.00    +0.000 C 
ENDBRANCH  22  27
ENDBRANCH  21  22
ENDBRANCH  20  21
ENDBRANCH  18  20
ENDBRANCH   1  18
BRANCH  11  30
ATOM     30  O   UNL     1      20.440   0.538  55.098  0.00  0.00    +0.000 OA
ATOM     31  H   UNL     1      20.095   0.107  55.854  0.00  0.00    +0.000 HD
ENDBRANCH  11  30
TORSDOF 7
ENDMDL
MODEL 2
REMARK VINA RESULT:    -7.585      1.114      1.992
REMARK INTER + INTRA:         -12.266
REMARK INTER:                 -11.028
REMARK INTRA:                  -1.237
REMARK UNBOUND:                -1.798
REMARK  Name = 
REMARK  11 active torsions:
REMARK  status: ('A' for Active; 'I' for Inactive)
REMARK    1  A    between atoms: C_1  and  C_2
REMARK    2  A    between atoms: C_2  and  C_3
REMARK    3  A    between atoms: C_2  and  N_4
REMARK    4  A    between atoms: N_4  and  C_5
REMARK    5  A    between atoms: N_4  and  C_26
REMARK    6  A    between atoms: C_5  and  C_6
REMARK    7  A    between atoms: C_6  and  N_7
REMARK    8  A    between atoms: N_7  and  C_8
REMARK    9  A    between atoms: C_18  and  O_19
REMARK   10  A    between atoms: C_26  and  C_27
REMARK   11  A    between atoms: C_26  and  C_28
REMARK                            x       y       z     vdW  Elec       q    Type
REMARK                         _______ _______ _______ _____ _____    ______ ____
ROOT
ATOM      1  C   UNL     1      26.031   2.103  51.599  0.00  0.00    +0.000 A 
ATOM      2  C   UNL     1      27.295   2.303  52.167  0.00  0.00    +0.000 A 
ATOM      3  C   UNL     1      27.693   1.679  53.398  0.00  0.00    +0.000 A 
ATOM      4  C   UNL     1      26.793   0.808  54.033  0.00  0.00    +0.000 A 
ATOM      5  N   UNL     1      26.859   0.026  55.163  0.00  0.00    +0.000 NA
ATOM      6  C   UNL     1      25.672  -0.571  55.263  0.00  0.00    +0.000 A 
ATOM      7  N   UNL     1      24.849  -0.201  54.228  0.00  0.00    +0.000 N 
ATOM      8  C   UNL     1      23.497  -0.454  53.936  0.00  0.00    +0.000 A 
ATOM      9  C   UNL     1      22.758  -1.482  54.498  0.00  0.00    +0.000 A 
ATOM     10  C   UNL     1      21.374  -1.391  54.331  0.00  0.00    +0.000 A 
ATOM     11  C   UNL     1      20.830  -0.154  54.006  0.00  0.00    +0.000 A 
ATOM     12  C   UNL     1      21.506   0.619  53.087  0.00  0.00    +0.000 A 
ATOM     13  C   UNL     1      22.876   0.424  53.028  0.00  0.00    +0.000 A 
ATOM     14  C   UNL     1      23.685   1.175  52.051  0.00  0.00    +0.000 A 
ATOM     15  O   UNL     1      23.169   1.566  50.996  0.00  0.00    +0.000 OA
ATOM     16  C   UNL     1      25.116   1.351  52.348  0.00  0.00    +0.000 A 
ATOM     17  C   UNL     1      25.539   0.684  53.468  0.00  0.00    +0.000 A 
ENDROOT
BRANCH   1  18
ATOM     18  N   UNL     1      25.601   2.625  50.403  0.00  0.00    +0.000 N 
ATOM     19  H   UNL     1      24.755   2.248  50.069  0.00  0.00    +0.000 HD
BRANCH  18  20
ATOM     20  C   UNL     1      26.190   3.639  49.556  0.00  0.00    +0.000 C 
BRANCH  20  21
ATOM     21  C   UNL     1      25.354   4.936  49.420  0.00  0.00    +0.000 C 
BRANCH  21  22
ATOM     22  N   UNL     1      24.911   5.761  50.567  0.00  0.00    +0.000 N 
ATOM     23  H   UNL     1      25.483   5.318  51.286  0.00  0.00    +0.000 HD
BRANCH  22  25
ATOM     24  C   UNL     1      22.527   4.896  50.095  0.00  0.00    +0.000 C 
ATOM     25  C   UNL     1      23.523   5.556  51.052  0.00  0.00    +0.000 C 
ATOM     26  C   UNL     1      23.480   4.849  52.413  0.00  0.00    +0.000 C 
ENDBRANCH  22  25
BRANCH  22  27
ATOM     27  C   UNL     1      25.360   7.173  50.611  0.00  0.00    +0.000 C 
ATOM     28  C   UNL     1      26.434   7.455  49.530  0.00  0.00    +0.000 C 
ATOM     29  C   UNL     1      24.286   8.253  50.376  0.00  0.00    +0.000 C 
ENDBRANCH  22  27
ENDBRANCH  21  22
ENDBRANCH  20  21
ENDBRANCH  18  20
ENDBRANCH   1  18
BRANCH  11  30
ATOM     30  O   UNL     1      20.409   0.603  55.109  0.00  0.00    +0.000 OA
ATOM     31  H   UNL     1      20.336   1.533  55.038  0.00  0.00    +0.000 HD
ENDBRANCH  11  30
TORSDOF 7
ENDMDL
MODEL 3
REMARK VINA RESULT:    -7.358      1.940      4.319
REMARK INTER + INTRA:         -11.952
REMARK INTER:                 -10.826
REMARK INTRA:                  -1.126
REMARK UNBOUND:                -1.798
REMARK  Name = 
REMARK  11 active torsions:
REMARK  status: ('A' for Active; 'I' for Inactive)
REMARK    1  A    between atoms: C_1  and  C_2
REMARK    2  A    between atoms: C_2  and  C_3
REMARK    3  A    between atoms: C_2  and  N_4
REMARK    4  A    between atoms: N_4  and  C_5
REMARK    5  A    between atoms: N_4  and  C_26
REMARK    6  A    between atoms: C_5  and  C_6
REMARK    7  A    between atoms: C_6  and  N_7
REMARK    8  A    between atoms: N_7  and  C_8
REMARK    9  A    between atoms: C_18  and  O_19
REMARK   10  A    between atoms: C_26  and  C_27
REMARK   11  A    between atoms: C_26  and  C_28
REMARK                            x       y       z     vdW  Elec       q    Type
REMARK                         _______ _______ _______ _____ _____    ______ ____
ROOT
ATOM      1  C   UNL     1      22.713   1.531  50.831  0.00  0.00    +0.000 A 
ATOM      2  C   UNL     1      21.428   0.979  50.901  0.00  0.00    +0.000 A 
ATOM      3  C   UNL     1      21.034   0.078  51.949  0.00  0.00    +0.000 A 
ATOM      4  C   UNL     1      21.962  -0.230  52.956  0.00  0.00    +0.000 A 
ATOM      5  N   UNL     1      21.910  -0.993  54.100  0.00  0.00    +0.000 NA
ATOM      6  C   UNL     1      23.123  -0.915  54.645  0.00  0.00    +0.000 A 
ATOM      7  N   UNL     1      23.950  -0.121  53.890  0.00  0.00    +0.000 N 
ATOM      8  C   UNL     1      25.319   0.190  53.966  0.00  0.00    +0.000 A 
ATOM      9  C   UNL     1      26.096   0.013  55.099  0.00  0.00    +0.000 A 
ATOM     10  C   UNL     1      27.477   0.079  54.899  0.00  0.00    +0.000 A 
ATOM     11  C   UNL     1      27.965  -0.092  53.609  0.00  0.00    +0.000 A 
ATOM     12  C   UNL     1      27.273   0.507  52.580  0.00  0.00    +0.000 A 
ATOM     13  C   UNL     1      25.915   0.689  52.792  0.00  0.00    +0.000 A 
ATOM     14  C   UNL     1      25.093   1.355  51.768  0.00  0.00    +0.000 A 
ATOM     15  O   UNL     1      25.612   2.173  50.997  0.00  0.00    +0.000 OA
ATOM     16  C   UNL     1      23.648   1.072  51.768  0.00  0.00    +0.000 A 
ATOM     17  C   UNL     1      23.233   0.291  52.816  0.00  0.00    +0.000 A 
ENDROOT
BRANCH   1  18
ATOM     18  N   UNL     1      23.143   2.435  49.890  0.00  0.00    +0.000 N 
ATOM     19  H   UNL     1      24.117   2.448  49.745  0.00  0.00    +0.000 HD
BRANCH  18  20
ATOM     20  C   UNL     1      22.397   3.371  49.078  0.00  0.00    +0.000 C 
BRANCH  20  21
ATOM     21  C   UNL     1      23.072   4.753  48.893  0.00  0.00    +0.000 C 
BRANCH  21  22
ATOM     22  N   UNL     1      24.050   5.330  49.843  0.00  0.00    +0.000 N 
ATOM     23  H   UNL     1      24.431   4.454  50.201  0.00  0.00    +0.000 HD
BRANCH  22  25
ATOM     24  C   UNL     1      22.161   6.714  50.926  0.00  0.00    +0.000 C 
ATOM     25  C   UNL     1      23.505   5.992  51.056  0.00  0.00    +0.000 C 
ATOM     26  C   UNL     1      23.474   5.053  52.268  0.00  0.00    +0.000 C 
ENDBRANCH  22  25
BRANCH  22  27
ATOM     27  C   UNL     1      25.242   6.004  49.277  0.00  0.00    +0.000 C 
ATOM     28  C   UNL     1      25.710   7.172  50.182  0.00  0.00    +0.000 C 
ATOM     29  C   UNL     1      26.504   5.139  49.083  0.00  0.00    +0.000 C 
ENDBRANCH  22  27
ENDBRANCH  21  22
ENDBRANCH  20  21
ENDBRANCH  18  20
ENDBRANCH   1  18
BRANCH  11  30
ATOM     30  O   UNL     1      28.322  -1.411  53.294  0.00  0.00    +0.000 OA
ATOM     31  H   UNL     1      28.444  -1.662  52.400  0.00  0.00    +0.000 HD
ENDBRANCH  11  30
TORSDOF 7
ENDMDL
MODEL 4
REMARK VINA RESULT:    -7.123      3.054      5.005
REMARK INTER + INTRA:         -11.628
REMARK INTER:                 -10.532
REMARK INTRA:                  -1.096
REMARK UNBOUND:                -1.798
REMARK  Name = 
REMARK  11 active torsions:
REMARK  status: ('A' for Active; 'I' for Inactive)
REMARK    1  A    between atoms: C_1  and  C_2
REMARK    2  A    between atoms: C_2  and  C_3
REMARK    3  A    between atoms: C_2  and  N_4
REMARK    4  A    between atoms: N_4  and  C_5
REMARK    5  A    between atoms: N_4  and  C_26
REMARK    6  A    between atoms: C_5  and  C_6
REMARK    7  A    between atoms: C_6  and  N_7
REMARK    8  A    between atoms: N_7  and  C_8
REMARK    9  A    between atoms: C_18  and  O_19
REMARK   10  A    between atoms: C_26  and  C_27
REMARK   11  A    between atoms: C_26  and  C_28
REMARK                            x       y       z     vdW  Elec       q    Type
REMARK                         _______ _______ _______ _____ _____    ______ ____
ROOT
ATOM      1  C   UNL     1      25.401   3.996  49.901  0.00  0.00    +0.000 A 
ATOM      2  C   UNL     1      24.302   4.325  49.098  0.00  0.00    +0.000 A 
ATOM      3  C   UNL     1      23.049   3.628  49.188  0.00  0.00    +0.000 A 
ATOM      4  C   UNL     1      22.913   2.607  50.141  0.00  0.00    +0.000 A 
ATOM      5  N   UNL     1      21.873   1.790  50.523  0.00  0.00    +0.000 NA
ATOM      6  C   UNL     1      22.362   1.000  51.478  0.00  0.00    +0.000 A 
ATOM      7  N   UNL     1      23.681   1.289  51.725  0.00  0.00    +0.000 N 
ATOM      8  C   UNL     1      24.661   0.691  52.537  0.00  0.00    +0.000 A 
ATOM      9  C   UNL     1      24.384  -0.168  53.587  0.00  0.00    +0.000 A 
ATOM     10  C   UNL     1      25.472  -0.897  54.073  0.00  0.00    +0.000 A 
ATOM     11  C   UNL     1      26.594  -1.025  53.262  0.00  0.00    +0.000 A 
ATOM     12  C   UNL     1      27.000   0.084  52.554  0.00  0.00    +0.000 A 
ATOM     13  C   UNL     1      26.001   0.986  52.223  0.00  0.00    +0.000 A 
ATOM     14  C   UNL     1      26.339   2.224  51.499  0.00  0.00    +0.000 A 
ATOM     15  O   UNL     1      27.467   2.719  51.617  0.00  0.00    +0.000 OA
ATOM     16  C   UNL     1      25.266   2.871  50.724  0.00  0.00    +0.000 A 
ATOM     17  C   UNL     1      24.038   2.279  50.871  0.00  0.00    +0.000 A 
ENDROOT
BRANCH   1  18
ATOM     18  N   UNL     1      26.611   4.649  49.905  0.00  0.00    +0.000 N 
ATOM     19  H   UNL     1      26.924   4.930  50.795  0.00  0.00    +0.000 HD
BRANCH  18  20
ATOM     20  C   UNL     1      27.497   4.988  48.814  0.00  0.00    +0.000 C 
BRANCH  20  21
ATOM     21  C   UNL     1      27.503   6.487  48.424  0.00  0.00    +0.000 C 
BRANCH  21  22
ATOM     22  N   UNL     1      27.106   7.582  49.338  0.00  0.00    +0.000 N 
ATOM     23  H   UNL     1      27.136   7.053  50.210  0.00  0.00    +0.000 HD
BRANCH  22  25
ATOM     24  C   UNL     1      24.898   7.691  48.008  0.00  0.00    +0.000 C 
ATOM     25  C   UNL     1      25.698   8.049  49.264  0.00  0.00    +0.000 C 
ATOM     26  C   UNL     1      24.894   7.676  50.516  0.00  0.00    +0.000 C 
ENDBRANCH  22  25
BRANCH  22  27
ATOM     27  C   UNL     1      28.087   8.667  49.576  0.00  0.00    +0.000 C 
ATOM     28  C   UNL     1      29.387   8.437  48.765  0.00  0.00    +0.000 C 
ATOM     29  C   UNL     1      27.648  10.097  49.201  0.00  0.00    +0.000 C 
ENDBRANCH  22  27
ENDBRANCH  21  22
ENDBRANCH  20  21
ENDBRANCH  18  20
ENDBRANCH   1  18
BRANCH  11  30
ATOM     30  O   UNL     1      26.605  -2.181  52.466  0.00  0.00    +0.000 OA
ATOM     31  H   UNL     1      26.053  -2.904  52.684  0.00  0.00    +0.000 HD
ENDBRANCH  11  30
TORSDOF 7
ENDMDL
MODEL 5
REMARK VINA RESULT:    -6.946      2.051      4.091
REMARK INTER + INTRA:         -11.384
REMARK INTER:                 -10.199
REMARK INTRA:                  -1.184
REMARK UNBOUND:                -1.798
REMARK  Name = 
REMARK  11 active torsions:
REMARK  status: ('A' for Active; 'I' for Inactive)
REMARK    1  A    between atoms: C_1  and  C_2
REMARK    2  A    between atoms: C_2  and  C_3
REMARK    3  A    between atoms: C_2  and  N_4
REMARK    4  A    between atoms: N_4  and  C_5
REMARK    5  A    between atoms: N_4  and  C_26
REMARK    6  A    between atoms: C_5  and  C_6
REMARK    7  A    between atoms: C_6  and  N_7
REMARK    8  A    between atoms: N_7  and  C_8
REMARK    9  A    between atoms: C_18  and  O_19
REMARK   10  A    between atoms: C_26  and  C_27
REMARK   11  A    between atoms: C_26  and  C_28
REMARK                            x       y       z     vdW  Elec       q    Type
REMARK                         _______ _______ _______ _____ _____    ______ ____
ROOT
ATOM      1  C   UNL     1      23.226   1.707  50.831  0.00  0.00    +0.000 A 
ATOM      2  C   UNL     1      21.929   1.180  50.810  0.00  0.00    +0.000 A 
ATOM      3  C   UNL     1      21.462   0.245  51.797  0.00  0.00    +0.000 A 
ATOM      4  C   UNL     1      22.328  -0.123  52.838  0.00  0.00    +0.000 A 
ATOM      5  N   UNL     1      22.199  -0.930  53.945  0.00  0.00    +0.000 NA
ATOM      6  C   UNL     1      23.382  -0.900  54.557  0.00  0.00    +0.000 A 
ATOM      7  N   UNL     1      24.263  -0.093  53.882  0.00  0.00    +0.000 N 
ATOM      8  C   UNL     1      25.632   0.186  54.043  0.00  0.00    +0.000 A 
ATOM      9  C   UNL     1      26.342  -0.054  55.208  0.00  0.00    +0.000 A 
ATOM     10  C   UNL     1      27.733  -0.008  55.085  0.00  0.00    +0.000 A 
ATOM     11  C   UNL     1      28.287  -0.136  53.817  0.00  0.00    +0.000 A 
ATOM     12  C   UNL     1      27.663   0.518  52.778  0.00  0.00    +0.000 A 
ATOM     13  C   UNL     1      26.300   0.719  52.925  0.00  0.00    +0.000 A 
ATOM     14  C   UNL     1      25.547   1.444  51.886  0.00  0.00    +0.000 A 
ATOM     15  O   UNL     1      26.122   2.281  51.180  0.00  0.00    +0.000 OA
ATOM     16  C   UNL     1      24.099   1.191  51.798  0.00  0.00    +0.000 A 
ATOM     17  C   UNL     1      23.614   0.376  52.789  0.00  0.00    +0.000 A 
ENDROOT
BRANCH   1  18
ATOM     18  N   UNL     1      23.723   2.640  49.954  0.00  0.00    +0.000 N 
ATOM     19  H   UNL     1      24.649   2.922  50.133  0.00  0.00    +0.000 HD
BRANCH  18  20
ATOM     20  C   UNL     1      23.107   3.273  48.809  0.00  0.00    +0.000 C 
BRANCH  20  21
ATOM     21  C   UNL     1      22.265   4.531  49.139  0.00  0.00    +0.000 C 
BRANCH  21  22
ATOM     22  N   UNL     1      21.581   4.754  50.434  0.00  0.00    +0.000 N 
ATOM     23  H   UNL     1      21.762   3.839  50.846  0.00  0.00    +0.000 HD
BRANCH  22  25
ATOM     24  C   UNL     1      19.404   4.730  49.050  0.00  0.00    +0.000 C 
ATOM     25  C   UNL     1      20.099   4.837  50.410  0.00  0.00    +0.000 C 
ATOM     26  C   UNL     1      19.445   3.869  51.405  0.00  0.00    +0.000 C 
ENDBRANCH  22  25
BRANCH  22  27
ATOM     27  C   UNL     1      22.219   5.683  51.396  0.00  0.00    +0.000 C 
ATOM     28  C   UNL     1      22.922   4.910  52.540  0.00  0.00    +0.000 C 
ATOM     29  C   UNL     1      23.308   6.622  50.841  0.00  0.00    +0.000 C 
ENDBRANCH  22  27
ENDBRANCH  21  22
ENDBRANCH  20  21
ENDBRANCH  18  20
ENDBRANCH   1  18
BRANCH  11  30
ATOM     30  O   UNL     1      28.636  -1.449  53.467  0.00  0.00    +0.000 OA
ATOM     31  H   UNL     1      28.590  -1.723  52.573  0.00  0.00    +0.000 HD
ENDBRANCH  11  30
TORSDOF 7
ENDMDL
MODEL 6
REMARK VINA RESULT:    -6.885      2.403      4.653
REMARK INTER + INTRA:         -11.300
REMARK INTER:                  -9.728
REMARK INTRA:                  -1.572
REMARK UNBOUND:                -1.798
REMARK  Name = 
REMARK  11 active torsions:
REMARK  status: ('A' for Active; 'I' for Inactive)
REMARK    1  A    between atoms: C_1  and  C_2
REMARK    2  A    between atoms: C_2  and  C_3
REMARK    3  A    between atoms: C_2  and  N_4
REMARK    4  A    between atoms: N_4  and  C_5
REMARK    5  A    between atoms: N_4  and  C_26
REMARK    6  A    between atoms: C_5  and  C_6
REMARK    7  A    between atoms: C_6  and  N_7
REMARK    8  A    between atoms: N_7  and  C_8
REMARK    9  A    between atoms: C_18  and  O_19
REMARK   10  A    between atoms: C_26  and  C_27
REMARK   11  A    between atoms: C_26  and  C_28
REMARK                            x       y       z     vdW  Elec       q    Type
REMARK                         _______ _______ _______ _____ _____    ______ ____
ROOT
ATOM      1  C   UNL     1      22.092   3.666  51.871  0.00  0.00    +0.000 A 
ATOM      2  C   UNL     1      22.370   4.892  51.255  0.00  0.00    +0.000 A 
ATOM      3  C   UNL     1      23.659   5.200  50.701  0.00  0.00    +0.000 A 
ATOM      4  C   UNL     1      24.664   4.221  50.750  0.00  0.00    +0.000 A 
ATOM      5  N   UNL     1      25.959   4.160  50.287  0.00  0.00    +0.000 NA
ATOM      6  C   UNL     1      26.420   2.965  50.654  0.00  0.00    +0.000 A 
ATOM      7  N   UNL     1      25.459   2.255  51.330  0.00  0.00    +0.000 N 
ATOM      8  C   UNL     1      25.470   1.021  52.005  0.00  0.00    +0.000 A 
ATOM      9  C   UNL     1      26.432   0.042  51.820  0.00  0.00    +0.000 A 
ATOM     10  C   UNL     1      26.457  -0.967  52.786  0.00  0.00    +0.000 A 
ATOM     11  C   UNL     1      25.847  -0.723  54.010  0.00  0.00    +0.000 A 
ATOM     12  C   UNL     1      24.640  -0.058  54.001  0.00  0.00    +0.000 A 
ATOM     13  C   UNL     1      24.437   0.807  52.937  0.00  0.00    +0.000 A 
ATOM     14  C   UNL     1      23.163   1.537  52.815  0.00  0.00    +0.000 A 
ATOM     15  O   UNL     1      22.130   1.058  53.300  0.00  0.00    +0.000 OA
ATOM     16  C   UNL     1      23.169   2.784  52.032  0.00  0.00    +0.000 A 
ATOM     17  C   UNL     1      24.365   3.049  51.415  0.00  0.00    +0.000 A 
ENDROOT
BRANCH   1  18
ATOM     18  N   UNL     1      20.873   3.283  52.375  0.00  0.00    +0.000 N 
ATOM     19  H   UNL     1      20.886   3.001  53.318  0.00  0.00    +0.000 HD
BRANCH  18  20
ATOM     20  C   UNL     1      19.572   3.229  51.745  0.00  0.00    +0.000 C 
BRANCH  20  21
ATOM     21  C   UNL     1      19.523   2.415  50.427  0.00  0.00    +0.000 C 
BRANCH  21  22
ATOM     22  N   UNL     1      20.114   2.873  49.149  0.00  0.00    +0.000 N 
ATOM     23  H   UNL     1      20.704   3.615  49.527  0.00  0.00    +0.000 HD
BRANCH  22  25
ATOM     24  C   UNL     1      17.746   3.168  48.171  0.00  0.00    +0.000 C 
ATOM     25  C   UNL     1      19.218   3.588  48.206  0.00  0.00    +0.000 C 
ATOM     26  C   UNL     1      19.318   5.112  48.349  0.00  0.00    +0.000 C 
ENDBRANCH  22  25
BRANCH  22  27
ATOM     27  C   UNL     1      21.092   1.978  48.486  0.00  0.00    +0.000 C 
ATOM     28  C   UNL     1      22.386   2.741  48.108  0.00  0.00    +0.000 C 
ATOM     29  C   UNL     1      21.586   0.763  49.296  0.00  0.00    +0.000 C 
ENDBRANCH  22  27
ENDBRANCH  21  22
ENDBRANCH  20  21
ENDBRANCH  18  20
ENDBRANCH   1  18
BRANCH  11  30
ATOM     30  O   UNL     1      26.707  -0.221  54.998  0.00  0.00    +0.000 OA
ATOM     31  H   UNL     1      26.415   0.459  55.571  0.00  0.00    +0.000 HD
ENDBRANCH  11  30
TORSDOF 7
ENDMDL
MODEL 7
REMARK VINA RESULT:    -6.846      2.304      6.934
REMARK INTER + INTRA:         -11.246
REMARK INTER:                 -10.177
REMARK INTRA:                  -1.069
REMARK UNBOUND:                -1.798
REMARK  Name = 
REMARK  11 active torsions:
REMARK  status: ('A' for Active; 'I' for Inactive)
REMARK    1  A    between atoms: C_1  and  C_2
REMARK    2  A    between atoms: C_2  and  C_3
REMARK    3  A    between atoms: C_2  and  N_4
REMARK    4  A    between atoms: N_4  and  C_5
REMARK    5  A    between atoms: N_4  and  C_26
REMARK    6  A    between atoms: C_5  and  C_6
REMARK    7  A    between atoms: C_6  and  N_7
REMARK    8  A    between atoms: N_7  and  C_8
REMARK    9  A    between atoms: C_18  and  O_19
REMARK   10  A    between atoms: C_26  and  C_27
REMARK   11  A    between atoms: C_26  and  C_28
REMARK                            x       y       z     vdW  Elec       q    Type
REMARK                         _______ _______ _______ _____ _____    ______ ____
ROOT
ATOM      1  C   UNL     1      22.625   1.148  51.792  0.00  0.00    +0.000 A 
ATOM      2  C   UNL     1      21.775   0.325  51.043  0.00  0.00    +0.000 A 
ATOM      3  C   UNL     1      21.366   0.655  49.705  0.00  0.00    +0.000 A 
ATOM      4  C   UNL     1      21.869   1.827  49.118  0.00  0.00    +0.000 A 
ATOM      5  N   UNL     1      21.731   2.407  47.878  0.00  0.00    +0.000 NA
ATOM      6  C   UNL     1      22.440   3.534  47.922  0.00  0.00    +0.000 A 
ATOM      7  N   UNL     1      23.034   3.692  49.150  0.00  0.00    +0.000 N 
ATOM      8  C   UNL     1      23.778   4.733  49.733  0.00  0.00    +0.000 A 
ATOM      9  C   UNL     1      24.395   5.745  49.017  0.00  0.00    +0.000 A 
ATOM     10  C   UNL     1      24.816   6.845  49.768  0.00  0.00    +0.000 A 
ATOM     11  C   UNL     1      24.256   7.037  51.025  0.00  0.00    +0.000 A 
ATOM     12  C   UNL     1      24.063   5.926  51.815  0.00  0.00    +0.000 A 
ATOM     13  C   UNL     1      23.862   4.733  51.138  0.00  0.00    +0.000 A 
ATOM     14  C   UNL     1      23.684   3.480  51.893  0.00  0.00    +0.000 A 
ATOM     15  O   UNL     1      24.189   3.361  53.016  0.00  0.00    +0.000 OA
ATOM     16  C   UNL     1      22.973   2.379  51.222  0.00  0.00    +0.000 A 
ATOM     17  C   UNL     1      22.657   2.636  49.912  0.00  0.00    +0.000 A 
ENDROOT
BRANCH   1  18
ATOM     18  N   UNL     1      23.095   0.873  53.053  0.00  0.00    +0.000 N 
ATOM     19  H   UNL     1      22.806   1.506  53.749  0.00  0.00    +0.000 HD
BRANCH  18  20
ATOM     20  C   UNL     1      23.947  -0.198  53.523  0.00  0.00    +0.000 C 
BRANCH  20  21
ATOM     21  C   UNL     1      25.391   0.232  53.882  0.00  0.00    +0.000 C 
BRANCH  21  22
ATOM     22  N   UNL     1      26.562   0.014  53.003  0.00  0.00    +0.000 N 
ATOM     23  H   UNL     1      26.054  -0.225  52.151  0.00  0.00    +0.000 HD
BRANCH  22  25
ATOM     24  C   UNL     1      27.146  -2.422  52.385  0.00  0.00    +0.000 C 
ATOM     25  C   UNL     1      27.389  -1.191  53.263  0.00  0.00    +0.000 C 
ATOM     26  C   UNL     1      28.889  -0.871  53.305  0.00  0.00    +0.000 C 
ENDBRANCH  22  25
BRANCH  22  27
ATOM     27  C   UNL     1      27.347   1.204  52.597  0.00  0.00    +0.000 C 
ATOM     28  C   UNL     1      26.743   1.873  51.337  0.00  0.00    +0.000 C 
ATOM     29  C   UNL     1      27.458   2.348  53.624  0.00  0.00    +0.000 C 
ENDBRANCH  22  27
ENDBRANCH  21  22
ENDBRANCH  20  21
ENDBRANCH  18  20
ENDBRANCH   1  18
BRANCH  11  30
ATOM     30  O   UNL     1      23.136   7.882  51.038  0.00  0.00    +0.000 OA
ATOM     31  H   UNL     1      22.511   7.842  50.342  0.00  0.00    +0.000 HD
ENDBRANCH  11  30
TORSDOF 7
ENDMDL
MODEL 8
REMARK VINA RESULT:    -6.823      2.184      3.568
REMARK INTER + INTRA:         -11.214
REMARK INTER:                  -9.467
REMARK INTRA:                  -1.747
REMARK UNBOUND:                -1.798
REMARK  Name = 
REMARK  11 active torsions:
REMARK  status: ('A' for Active; 'I' for Inactive)
REMARK    1  A    between atoms: C_1  and  C_2
REMARK    2  A    between atoms: C_2  and  C_3
REMARK    3  A    between atoms: C_2  and  N_4
REMARK    4  A    between atoms: N_4  and  C_5
REMARK    5  A    between atoms: N_4  and  C_26
REMARK    6  A    between atoms: C_5  and  C_6
REMARK    7  A    between atoms: C_6  and  N_7
REMARK    8  A    between atoms: N_7  and  C_8
REMARK    9  A    between atoms: C_18  and  O_19
REMARK   10  A    between atoms: C_26  and  C_27
REMARK   11  A    between atoms: C_26  and  C_28
REMARK                            x       y       z     vdW  Elec       q    Type
REMARK                         _______ _______ _______ _____ _____    ______ ____
ROOT
ATOM      1  C   UNL     1      22.668   2.324  49.244  0.00  0.00    +0.000 A 
ATOM      2  C   UNL     1      23.692   3.251  49.017  0.00  0.00    +0.000 A 
ATOM      3  C   UNL     1      24.784   3.432  49.933  0.00  0.00    +0.000 A 
ATOM      4  C   UNL     1      24.842   2.623  51.079  0.00  0.00    +0.000 A 
ATOM      5  N   UNL     1      25.742   2.496  52.112  0.00  0.00    +0.000 NA
ATOM      6  C   UNL     1      25.239   1.563  52.920  0.00  0.00    +0.000 A 
ATOM      7  N   UNL     1      24.049   1.083  52.433  0.00  0.00    +0.000 N 
ATOM      8  C   UNL     1      23.088   0.193  52.946  0.00  0.00    +0.000 A 
ATOM      9  C   UNL     1      23.329  -0.706  53.971  0.00  0.00    +0.000 A 
ATOM     10  C   UNL     1      22.193  -1.279  54.549  0.00  0.00    +0.000 A 
ATOM     11  C   UNL     1      20.970  -0.645  54.366  0.00  0.00    +0.000 A 
ATOM     12  C   UNL     1      20.700  -0.128  53.118  0.00  0.00    +0.000 A 
ATOM     13  C   UNL     1      21.803   0.260  52.375  0.00  0.00    +0.000 A 
ATOM     14  C   UNL     1      21.623   0.790  51.012  0.00  0.00    +0.000 A 
ATOM     15  O   UNL     1      20.641   0.446  50.343  0.00  0.00    +0.000 OA
ATOM     16  C   UNL     1      22.688   1.653  50.474  0.00  0.00    +0.000 A 
ATOM     17  C   UNL     1      23.783   1.763  51.292  0.00  0.00    +0.000 A 
ENDROOT
BRANCH   1  18
ATOM     18  N   UNL     1      21.624   2.062  48.391  0.00  0.00    +0.000 N 
ATOM     19  H   UNL     1      21.426   1.107  48.262  0.00  0.00    +0.000 HD
BRANCH  18  20
ATOM     20  C   UNL     1      20.768   2.964  47.652  0.00  0.00    +0.000 C 
BRANCH  20  21
ATOM     21  C   UNL     1      19.647   3.629  48.490  0.00  0.00    +0.000 C 
BRANCH  21  22
ATOM     22  N   UNL     1      19.557   3.545  49.966  0.00  0.00    +0.000 N 
ATOM     23  H   UNL     1      20.262   2.822  50.107  0.00  0.00    +0.000 HD
BRANCH  22  25
ATOM     24  C   UNL     1      17.315   3.888  51.196  0.00  0.00    +0.000 C 
ATOM     25  C   UNL     1      18.324   2.944  50.535  0.00  0.00    +0.000 C 
ATOM     26  C   UNL     1      17.604   2.033  49.533  0.00  0.00    +0.000 C 
ENDBRANCH  22  25
BRANCH  22  27
ATOM     27  C   UNL     1      20.088   4.684  50.752  0.00  0.00    +0.000 C 
ATOM     28  C   UNL     1      20.920   4.191  51.963  0.00  0.00    +0.000 C 
ATOM     29  C   UNL     1      21.024   5.663  50.015  0.00  0.00    +0.000 C 
ENDBRANCH  22  27
ENDBRANCH  21  22
ENDBRANCH  20  21
ENDBRANCH  18  20
ENDBRANCH   1  18
BRANCH  11  30
ATOM     30  O   UNL     1      20.624   0.254  55.385  0.00  0.00    +0.000 OA
ATOM     31  H   UNL     1      21.257   0.864  55.706  0.00  0.00    +0.000 HD
ENDBRANCH  11  30
TORSDOF 7
ENDMDL
MODEL 9
REMARK VINA RESULT:    -6.462      2.206      3.630
REMARK INTER + INTRA:         -10.716
REMARK INTER:                  -9.732
REMARK INTRA:                  -0.984
REMARK UNBOUND:                -1.798
REMARK  Name = 
REMARK  11 active torsions:
REMARK  status: ('A' for Active; 'I' for Inactive)
REMARK    1  A    between atoms: C_1  and  C_2
REMARK    2  A    between atoms: C_2  and  C_3
REMARK    3  A    between atoms: C_2  and  N_4
REMARK    4  A    between atoms: N_4  and  C_5
REMARK    5  A    between atoms: N_4  and  C_26
REMARK    6  A    between atoms: C_5  and  C_6
REMARK    7  A    between atoms: C_6  and  N_7
REMARK    8  A    between atoms: N_7  and  C_8
REMARK    9  A    between atoms: C_18  and  O_19
REMARK   10  A    between atoms: C_26  and  C_27
REMARK   11  A    between atoms: C_26  and  C_28
REMARK                            x       y       z     vdW  Elec       q    Type
REMARK                         _______ _______ _______ _____ _____    ______ ____
ROOT
ATOM      1  C   UNL     1      24.431   1.059  52.041  0.00  0.00    +0.000 A 
ATOM      2  C   UNL     1      25.099   0.482  53.127  0.00  0.00    +0.000 A 
ATOM      3  C   UNL     1      24.419  -0.302  54.121  0.00  0.00    +0.000 A 
ATOM      4  C   UNL     1      23.041  -0.525  53.974  0.00  0.00    +0.000 A 
ATOM      5  N   UNL     1      22.110  -1.246  54.688  0.00  0.00    +0.000 NA
ATOM      6  C   UNL     1      20.949  -1.061  54.062  0.00  0.00    +0.000 A 
ATOM      7  N   UNL     1      21.107  -0.251  52.965  0.00  0.00    +0.000 N 
ATOM      8  C   UNL     1      20.202   0.324  52.054  0.00  0.00    +0.000 A 
ATOM      9  C   UNL     1      18.904  -0.117  51.864  0.00  0.00    +0.000 A 
ATOM     10  C   UNL     1      18.068   0.754  51.161  0.00  0.00    +0.000 A 
ATOM     11  C   UNL     1      18.437   2.091  51.070  0.00  0.00    +0.000 A 
ATOM     12  C   UNL     1      19.767   2.373  50.849  0.00  0.00    +0.000 A 
ATOM     13  C   UNL     1      20.668   1.432  51.322  0.00  0.00    +0.000 A 
ATOM     14  C   UNL     1      22.113   1.622  51.102  0.00  0.00    +0.000 A 
ATOM     15  O   UNL     1      22.507   2.275  50.127  0.00  0.00    +0.000 OA
ATOM     16  C   UNL     1      23.035   0.939  52.024  0.00  0.00    +0.000 A 
ATOM     17  C   UNL     1      22.413   0.109  52.921  0.00  0.00    +0.000 A 
ENDROOT
BRANCH   1  18
ATOM     18  N   UNL     1      25.022   1.776  51.029  0.00  0.00    +0.000 N 
ATOM     19  H   UNL     1      24.846   1.433  50.123  0.00  0.00    +0.000 HD
BRANCH  18  20
ATOM     20  C   UNL     1      25.860   2.954  51.080  0.00  0.00    +0.000 C 
BRANCH  20  21
ATOM     21  C   UNL     1      25.359   4.144  50.222  0.00  0.00    +0.000 C 
BRANCH  21  22
ATOM     22  N   UNL     1      25.020   5.476  50.772  0.00  0.00    +0.000 N 
ATOM     23  H   UNL     1      25.520   5.393  51.657  0.00  0.00    +0.000 HD
BRANCH  22  25
ATOM     24  C   UNL     1      22.519   5.474  50.141  0.00  0.00    +0.000 C 
ATOM     25  C   UNL     1      23.612   5.697  51.189  0.00  0.00    +0.000 C 
ATOM     26  C   UNL     1      23.259   4.939  52.476  0.00  0.00    +0.000 C 
ENDBRANCH  22  25
BRANCH  22  27
ATOM     27  C   UNL     1      25.653   6.660  50.144  0.00  0.00    +0.000 C 
ATOM     28  C   UNL     1      25.914   6.422  48.635  0.00  0.00    +0.000 C 
ATOM     29  C   UNL     1      24.860   7.982  50.193  0.00  0.00    +0.000 C 
ENDBRANCH  22  27
ENDBRANCH  21  22
ENDBRANCH  20  21
ENDBRANCH  18  20
ENDBRANCH   1  18
BRANCH  11  30
ATOM     30  O   UNL     1      17.893   2.912  52.069  0.00  0.00    +0.000 OA
ATOM     31  H   UNL     1      17.465   3.711  51.835  0.00  0.00    +0.000 HD
ENDBRANCH  11  30
TORSDOF 7
ENDMDL
