MODEL 1
REMARK VINA RESULT:    -8.157      0.000      0.000
REMARK INTER + INTRA:         -11.593
REMARK INTER:                 -10.541
REMARK INTRA:                  -1.052
REMARK UNBOUND:                -1.052
REMARK  Name = 
REMARK  7 active torsions:
REMARK  status: ('A' for Active; 'I' for Inactive)
REMARK    1  A    between atoms: C_1  and  O_2
REMARK    2  A    between atoms: O_2  and  C_3
REMARK    3  A    between atoms: C_5  and  N_6
REMARK    4  A    between atoms: N_6  and  S_7
REMARK    5  A    between atoms: S_7  and  C_8
REMARK    6  A    between atoms: C_13  and  N_14
REMARK    7  A    between atoms: N_14  and  C_15
REMARK                            x       y       z     vdW  Elec       q    Type
REMARK                         _______ _______ _______ _____ _____    ______ ____
ROOT
ATOM      1  N   UNL     1      23.336   3.257  52.245  0.00  0.00    +0.000 N 
ATOM      2  H   UNL     1      23.076   4.205  52.196  0.00  0.00    +0.000 HD
ENDROOT
BRANCH   1   3
ATOM      3  C   UNL     1      22.216   2.391  52.153  0.00  0.00    +0.000 A 
ATOM      4  C   UNL     1      22.000   1.182  52.898  0.00  0.00    +0.000 A 
ATOM      5  C   UNL     1      22.893   0.095  53.058  0.00  0.00    +0.000 A 
ATOM      6  C   UNL     1      22.447  -1.158  53.507  0.00  0.00    +0.000 A 
ATOM      7  C   UNL     1      21.139  -1.311  53.967  0.00  0.00    +0.000 A 
ATOM      8  C   UNL     1      20.246  -0.268  53.799  0.00  0.00    +0.000 A 
ATOM      9  C   UNL     1      20.657   0.804  53.042  0.00  0.00    +0.000 A 
ATOM     10  N   UNL     1      19.811   1.128  52.091  0.00  0.00    +0.000 NA
ATOM     11  C   UNL     1      20.420   1.497  50.963  0.00  0.00    +0.000 A 
ATOM     12  C   UNL     1      20.573   0.598  49.908  0.00  0.00    +0.000 A 
ATOM     13  C   UNL     1      21.340   0.939  48.796  0.00  0.00    +0.000 A 
ATOM     14  C   UNL     1      21.781   2.251  48.677  0.00  0.00    +0.000 A 
ATOM     15  C   UNL     1      21.740   3.083  49.792  0.00  0.00    +0.000 A 
ATOM     16  C   UNL     1      21.365   2.497  51.004  0.00  0.00    +0.000 A 
ENDBRANCH   1   3
BRANCH   1  22
ATOM     17  C   UNL     1      25.558   2.917  51.254  0.00  0.00    +0.000 A 
ATOM     18  C   UNL     1      26.794   2.264  51.369  0.00  0.00    +0.000 A 
ATOM     19  C   UNL     1      27.247   1.872  52.624  0.00  0.00    +0.000 A 
ATOM     20  C   UNL     1      26.549   2.252  53.763  0.00  0.00    +0.000 A 
ATOM     21  C   UNL     1      25.313   2.899  53.631  0.00  0.00    +0.000 A 
ATOM     22  C   UNL     1      24.738   3.094  52.391  0.00  0.00    +0.000 A 
BRANCH  17  24
ATOM     23  C   UNL     1      25.527   4.546  49.568  0.00  0.00    +0.000 C 
ATOM     24  O   UNL     1      25.148   3.224  49.975  0.00  0.00    +0.000 OA
ENDBRANCH  17  24
BRANCH  19  25
ATOM     25  N   UNL     1      28.333   0.945  52.749  0.00  0.00    +0.000 N 
ATOM     26  H   UNL     1      29.206   1.096  52.318  0.00  0.00    +0.000 HD
BRANCH  25  27
ATOM     27  S   UNL     1      28.008  -0.440  53.696  0.00  0.00    +0.000 S 
ATOM     28  C   UNL     1      29.343  -1.514  53.221  0.00  0.00    +0.000 C 
ATOM     29  O   UNL     1      28.241  -0.031  55.067  0.00  0.00    +0.000 OA
ATOM     30  O   UNL     1      26.755  -1.048  53.304  0.00  0.00    +0.000 OA
ENDBRANCH  25  27
ENDBRANCH  19  25
ENDBRANCH   1  22
TORSDOF 5
ENDMDL
MODEL 2
REMARK VINA RESULT:    -7.716      4.480      8.006
REMARK INTER + INTRA:         -11.023
REMARK INTER:                 -10.141
REMARK INTRA:                  -0.882
REMARK UNBOUND:                -1.052
REMARK  Name = 
REMARK  7 active torsions:
REMARK  status: ('A' for Active; 'I' for Inactive)
REMARK    1  A    between atoms: C_1  and  O_2
REMARK    2  A    between atoms: O_2  and  C_3
REMARK    3  A    between atoms: C_5  and  N_6
REMARK    4  A    between atoms: N_6  and  S_7
REMARK    5  A    between atoms: S_7  and  C_8
REMARK    6  A    between atoms: C_13  and  N_14
REMARK    7  A    between atoms: N_14  and  C_15
REMARK                            x       y       z     vdW  Elec       q    Type
REMARK                         _______ _______ _______ _____ _____    ______ ____
ROOT
ATOM      1  N   UNL     1      21.830   0.413  51.800  0.00  0.00    +0.000 N 
ATOM      2  H   UNL     1      22.190  -0.404  51.383  0.00  0.00    +0.000 HD
ENDROOT
BRANCH   1   3
ATOM      3  C   UNL     1      22.835   1.391  52.010  0.00  0.00    +0.000 A 
ATOM      4  C   UNL     1      23.109   2.534  51.183  0.00  0.00    +0.000 A 
ATOM      5  C   UNL     1      23.304   2.560  49.782  0.00  0.00    +0.000 A 
ATOM      6  C   UNL     1      23.900   3.659  49.146  0.00  0.00    +0.000 A 
ATOM      7  C   UNL     1      24.161   4.825  49.865  0.00  0.00    +0.000 A 
ATOM      8  C   UNL     1      23.999   4.813  51.239  0.00  0.00    +0.000 A 
ATOM      9  C   UNL     1      23.742   3.602  51.837  0.00  0.00    +0.000 A 
ATOM     10  N   UNL     1      24.543   3.334  52.841  0.00  0.00    +0.000 NA
ATOM     11  C   UNL     1      24.893   2.048  52.894  0.00  0.00    +0.000 A 
ATOM     12  C   UNL     1      26.117   1.619  52.382  0.00  0.00    +0.000 A 
ATOM     13  C   UNL     1      26.411   0.260  52.302  0.00  0.00    +0.000 A 
ATOM     14  C   UNL     1      25.547  -0.639  52.914  0.00  0.00    +0.000 A 
ATOM     15  C   UNL     1      24.278  -0.210  53.290  0.00  0.00    +0.000 A 
ATOM     16  C   UNL     1      23.910   1.084  52.908  0.00  0.00    +0.000 A 
ENDBRANCH   1   3
BRANCH   1  22
ATOM     17  C   UNL     1      19.955  -0.281  53.226  0.00  0.00    +0.000 A 
ATOM     18  C   UNL     1      18.669  -0.839  53.264  0.00  0.00    +0.000 A 
ATOM     19  C   UNL     1      17.836  -0.718  52.155  0.00  0.00    +0.000 A 
ATOM     20  C   UNL     1      18.225   0.071  51.081  0.00  0.00    +0.000 A 
ATOM     21  C   UNL     1      19.515   0.616  51.055  0.00  0.00    +0.000 A 
ATOM     22  C   UNL     1      20.436   0.319  52.041  0.00  0.00    +0.000 A 
BRANCH  17  24
ATOM     23  C   UNL     1      21.250  -1.828  54.420  0.00  0.00    +0.000 C 
ATOM     24  O   UNL     1      20.742  -0.490  54.338  0.00  0.00    +0.000 OA
ENDBRANCH  17  24
BRANCH  19  25
ATOM     25  N   UNL     1      16.658  -1.525  52.039  0.00  0.00    +0.000 N 
ATOM     26  H   UNL     1      16.692  -2.509  52.043  0.00  0.00    +0.000 HD
BRANCH  25  27
ATOM     27  S   UNL     1      15.191  -0.660  51.892  0.00  0.00    +0.000 S 
ATOM     28  C   UNL     1      14.014  -1.860  52.473  0.00  0.00    +0.000 C 
ATOM     29  O   UNL     1      15.267   0.395  52.883  0.00  0.00    +0.000 OA
ATOM     30  O   UNL     1      14.908  -0.360  50.506  0.00  0.00    +0.000 OA
ENDBRANCH  25  27
ENDBRANCH  19  25
ENDBRANCH   1  22
TORSDOF 5
ENDMDL
MODEL 3
REMARK VINA RESULT:    -7.604      1.902      3.727
REMARK INTER + INTRA:         -10.879
REMARK INTER:                 -10.068
REMARK INTRA:                  -0.811
REMARK UNBOUND:                -1.052
REMARK  Name = 
REMARK  7 active torsions:
REMARK  status: ('A' for Active; 'I' for Inactive)
REMARK    1  A    between atoms: C_1  and  O_2
REMARK    2  A    between atoms: O_2  and  C_3
REMARK    3  A    between atoms: C_5  and  N_6
REMARK    4  A    between atoms: N_6  and  S_7
REMARK    5  A    between atoms: S_7  and  C_8
REMARK    6  A    between atoms: C_13  and  N_14
REMARK    7  A    between atoms: N_14  and  C_15
REMARK                            x       y       z     vdW  Elec       q    Type
REMARK                         _______ _______ _______ _____ _____    ______ ____
ROOT
ATOM      1  N   UNL     1      23.162   1.694  52.224  0.00  0.00    +0.000 N 
ATOM      2  H   UNL     1      22.631   2.181  52.895  0.00  0.00    +0.000 HD
ENDROOT
BRANCH   1   3
ATOM      3  C   UNL     1      22.510   1.639  50.966  0.00  0.00    +0.000 A 
ATOM      4  C   UNL     1      22.595   2.610  49.910  0.00  0.00    +0.000 A 
ATOM      5  C   UNL     1      22.405   4.009  50.006  0.00  0.00    +0.000 A 
ATOM      6  C   UNL     1      22.171   4.796  48.868  0.00  0.00    +0.000 A 
ATOM      7  C   UNL     1      22.289   4.237  47.596  0.00  0.00    +0.000 A 
ATOM      8  C   UNL     1      22.452   2.868  47.481  0.00  0.00    +0.000 A 
ATOM      9  C   UNL     1      22.328   2.115  48.624  0.00  0.00    +0.000 A 
ATOM     10  N   UNL     1      21.492   1.111  48.502  0.00  0.00    +0.000 NA
ATOM     11  C   UNL     1      20.763   0.909  49.601  0.00  0.00    +0.000 A 
ATOM     12  C   UNL     1      19.463   1.401  49.695  0.00  0.00    +0.000 A 
ATOM     13  C   UNL     1      18.762   1.320  50.897  0.00  0.00    +0.000 A 
ATOM     14  C   UNL     1      19.313   0.573  51.931  0.00  0.00    +0.000 A 
ATOM     15  C   UNL     1      20.656   0.214  51.867  0.00  0.00    +0.000 A 
ATOM     16  C   UNL     1      21.401   0.744  50.810  0.00  0.00    +0.000 A 
ENDBRANCH   1   3
BRANCH   1  22
ATOM     17  C   UNL     1      25.615   1.781  52.328  0.00  0.00    +0.000 A 
ATOM     18  C   UNL     1      26.801   1.038  52.418  0.00  0.00    +0.000 A 
ATOM     19  C   UNL     1      26.778  -0.220  53.013  0.00  0.00    +0.000 A 
ATOM     20  C   UNL     1      25.622  -0.669  53.638  0.00  0.00    +0.000 A 
ATOM     21  C   UNL     1      24.444   0.082  53.533  0.00  0.00    +0.000 A 
ATOM     22  C   UNL     1      24.389   1.221  52.754  0.00  0.00    +0.000 A 
BRANCH  17  24
ATOM     23  C   UNL     1      26.400   2.905  50.426  0.00  0.00    +0.000 C 
ATOM     24  O   UNL     1      25.703   2.992  51.676  0.00  0.00    +0.000 OA
ENDBRANCH  17  24
BRANCH  19  25
ATOM     25  N   UNL     1      27.878  -1.122  52.849  0.00  0.00    +0.000 N 
ATOM     26  H   UNL     1      27.816  -1.932  52.292  0.00  0.00    +0.000 HD
BRANCH  25  27
ATOM     27  S   UNL     1      29.306  -0.695  53.687  0.00  0.00    +0.000 S 
ATOM     28  C   UNL     1      28.641   0.040  55.163  0.00  0.00    +0.000 C 
ATOM     29  O   UNL     1      29.921  -1.953  54.062  0.00  0.00    +0.000 OA
ATOM     30  O   UNL     1      30.049   0.308  52.957  0.00  0.00    +0.000 OA
ENDBRANCH  25  27
ENDBRANCH  19  25
ENDBRANCH   1  22
TORSDOF 5
ENDMDL
MODEL 4
REMARK VINA RESULT:    -7.494      4.285      5.889
REMARK INTER + INTRA:         -10.736
REMARK INTER:                 -10.018
REMARK INTRA:                  -0.719
REMARK UNBOUND:                -1.052
REMARK  Name = 
REMARK  7 active torsions:
REMARK  status: ('A' for Active; 'I' for Inactive)
REMARK    1  A    between atoms: C_1  and  O_2
REMARK    2  A    between atoms: O_2  and  C_3
REMARK    3  A    between atoms: C_5  and  N_6
REMARK    4  A    between atoms: N_6  and  S_7
REMARK    5  A    between atoms: S_7  and  C_8
REMARK    6  A    between atoms: C_13  and  N_14
REMARK    7  A    between atoms: N_14  and  C_15
REMARK                            x       y       z     vdW  Elec       q    Type
REMARK                         _______ _______ _______ _____ _____    ______ ____
ROOT
ATOM      1  N   UNL     1      24.992   4.864  49.048  0.00  0.00    +0.000 N 
ATOM      2  H   UNL     1      24.464   5.035  48.235  0.00  0.00    +0.000 HD
ENDROOT
BRANCH   1   3
ATOM      3  C   UNL     1      24.283   4.073  49.987  0.00  0.00    +0.000 A 
ATOM      4  C   UNL     1      24.850   3.262  51.030  0.00  0.00    +0.000 A 
ATOM      5  C   UNL     1      25.877   2.295  50.911  0.00  0.00    +0.000 A 
ATOM      6  C   UNL     1      26.099   1.336  51.911  0.00  0.00    +0.000 A 
ATOM      7  C   UNL     1      25.418   1.423  53.125  0.00  0.00    +0.000 A 
ATOM      8  C   UNL     1      24.396   2.346  53.253  0.00  0.00    +0.000 A 
ATOM      9  C   UNL     1      24.001   3.018  52.121  0.00  0.00    +0.000 A 
ATOM     10  N   UNL     1      22.707   2.972  51.908  0.00  0.00    +0.000 NA
ATOM     11  C   UNL     1      22.401   2.845  50.616  0.00  0.00    +0.000 A 
ATOM     12  C   UNL     1      22.085   1.599  50.076  0.00  0.00    +0.000 A 
ATOM     13  C   UNL     1      21.915   1.448  48.701  0.00  0.00    +0.000 A 
ATOM     14  C   UNL     1      21.876   2.591  47.913  0.00  0.00    +0.000 A 
ATOM     15  C   UNL     1      22.329   3.796  48.443  0.00  0.00    +0.000 A 
ATOM     16  C   UNL     1      22.915   3.747  49.711  0.00  0.00    +0.000 A 
ENDBRANCH   1   3
BRANCH   1  22
ATOM     17  C   UNL     1      26.394   6.868  48.817  0.00  0.00    +0.000 A 
ATOM     18  C   UNL     1      27.558   7.413  48.258  0.00  0.00    +0.000 A 
ATOM     19  C   UNL     1      28.630   6.577  47.957  0.00  0.00    +0.000 A 
ATOM     20  C   UNL     1      28.596   5.243  48.342  0.00  0.00    +0.000 A 
ATOM     21  C   UNL     1      27.423   4.713  48.894  0.00  0.00    +0.000 A 
ATOM     22  C   UNL     1      26.272   5.471  48.990  0.00  0.00    +0.000 A 
BRANCH  17  24
ATOM     23  C   UNL     1      25.702   8.817  49.923  0.00  0.00    +0.000 C 
ATOM     24  O   UNL     1      25.355   7.747  49.034  0.00  0.00    +0.000 OA
ENDBRANCH  17  24
BRANCH  19  25
ATOM     25  N   UNL     1      29.695   7.034  47.115  0.00  0.00    +0.000 N 
ATOM     26  H   UNL     1      29.696   6.887  46.141  0.00  0.00    +0.000 HD
BRANCH  25  27
ATOM     27  S   UNL     1      30.964   7.850  47.919  0.00  0.00    +0.000 S 
ATOM     28  C   UNL     1      32.034   6.497  48.352  0.00  0.00    +0.000 C 
ATOM     29  O   UNL     1      31.631   8.626  46.893  0.00  0.00    +0.000 OA
ATOM     30  O   UNL     1      30.485   8.475  49.132  0.00  0.00    +0.000 OA
ENDBRANCH  25  27
ENDBRANCH  19  25
ENDBRANCH   1  22
TORSDOF 5
ENDMDL
MODEL 5
REMARK VINA RESULT:    -7.423      1.185      3.269
REMARK INTER + INTRA:         -10.644
REMARK INTER:                  -9.965
REMARK INTRA:                  -0.679
REMARK UNBOUND:                -1.052
REMARK  Name = 
REMARK  7 active torsions:
REMARK  status: ('A' for Active; 'I' for Inactive)
REMARK    1  A    between atoms: C_1  and  O_2
REMARK    2  A    between atoms: O_2  and  C_3
REMARK    3  A    between atoms: C_5  and  N_6
REMARK    4  A    between atoms: N_6  and  S_7
REMARK    5  A    between atoms: S_7  and  C_8
REMARK    6  A    between atoms: C_13  and  N_14
REMARK    7  A    between atoms: N_14  and  C_15
REMARK                            x       y       z     vdW  Elec       q    Type
REMARK                         _______ _______ _______ _____ _____    ______ ____
ROOT
ATOM      1  N   UNL     1      23.240   3.082  51.909  0.00  0.00    +0.000 N 
ATOM      2  H   UNL     1      22.767   3.756  52.448  0.00  0.00    +0.000 HD
ENDROOT
BRANCH   1   3
ATOM      3  C   UNL     1      22.372   2.415  51.006  0.00  0.00    +0.000 A 
ATOM      4  C   UNL     1      21.535   3.025  50.009  0.00  0.00    +0.000 A 
ATOM      5  C   UNL     1      20.621   4.091  50.184  0.00  0.00    +0.000 A 
ATOM      6  C   UNL     1      19.624   4.363  49.235  0.00  0.00    +0.000 A 
ATOM      7  C   UNL     1      19.619   3.689  48.014  0.00  0.00    +0.000 A 
ATOM      8  C   UNL     1      20.490   2.629  47.833  0.00  0.00    +0.000 A 
ATOM      9  C   UNL     1      21.201   2.197  48.927  0.00  0.00    +0.000 A 
ATOM     10  N   UNL     1      21.109   0.904  49.134  0.00  0.00    +0.000 NA
ATOM     11  C   UNL     1      21.034   0.593  50.429  0.00  0.00    +0.000 A 
ATOM     12  C   UNL     1      19.805   0.326  51.030  0.00  0.00    +0.000 A 
ATOM     13  C   UNL     1      19.716   0.151  52.409  0.00  0.00    +0.000 A 
ATOM     14  C   UNL     1      20.894   0.057  53.138  0.00  0.00    +0.000 A 
ATOM     15  C   UNL     1      22.089   0.462  52.551  0.00  0.00    +0.000 A 
ATOM     16  C   UNL     1      22.002   1.060  51.290  0.00  0.00    +0.000 A 
ENDBRANCH   1   3
BRANCH   1  22
ATOM     17  C   UNL     1      25.591   3.020  51.199  0.00  0.00    +0.000 A 
ATOM     18  C   UNL     1      26.857   2.459  51.421  0.00  0.00    +0.000 A 
ATOM     19  C   UNL     1      27.182   1.981  52.687  0.00  0.00    +0.000 A 
ATOM     20  C   UNL     1      26.313   2.189  53.750  0.00  0.00    +0.000 A 
ATOM     21  C   UNL     1      25.050   2.745  53.510  0.00  0.00    +0.000 A 
ATOM     22  C   UNL     1      24.621   3.017  52.227  0.00  0.00    +0.000 A 
BRANCH  17  24
ATOM     23  C   UNL     1      26.066   4.578  49.513  0.00  0.00    +0.000 C 
ATOM     24  O   UNL     1      25.320   3.420  49.909  0.00  0.00    +0.000 OA
ENDBRANCH  17  24
BRANCH  19  25
ATOM     25  N   UNL     1      28.324   1.135  52.874  0.00  0.00    +0.000 N 
ATOM     26  H   UNL     1      29.213   1.365  52.517  0.00  0.00    +0.000 HD
BRANCH  25  27
ATOM     27  S   UNL     1      28.035  -0.299  53.757  0.00  0.00    +0.000 S 
ATOM     28  C   UNL     1      29.461  -1.271  53.328  0.00  0.00    +0.000 C 
ATOM     29  O   UNL     1      28.163   0.077  55.151  0.00  0.00    +0.000 OA
ATOM     30  O   UNL     1      26.848  -0.970  53.274  0.00  0.00    +0.000 OA
ENDBRANCH  25  27
ENDBRANCH  19  25
ENDBRANCH   1  22
TORSDOF 5
ENDMDL
MODEL 6
REMARK VINA RESULT:    -7.390      3.579      5.281
REMARK INTER + INTRA:         -10.602
REMARK INTER:                  -9.585
REMARK INTRA:                  -1.017
REMARK UNBOUND:                -1.052
REMARK  Name = 
REMARK  7 active torsions:
REMARK  status: ('A' for Active; 'I' for Inactive)
REMARK    1  A    between atoms: C_1  and  O_2
REMARK    2  A    between atoms: O_2  and  C_3
REMARK    3  A    between atoms: C_5  and  N_6
REMARK    4  A    between atoms: N_6  and  S_7
REMARK    5  A    between atoms: S_7  and  C_8
REMARK    6  A    between atoms: C_13  and  N_14
REMARK    7  A    between atoms: N_14  and  C_15
REMARK                            x       y       z     vdW  Elec       q    Type
REMARK                         _______ _______ _______ _____ _____    ______ ____
ROOT
ATOM      1  N   UNL     1      22.841   4.628  51.774  0.00  0.00    +0.000 N 
ATOM      2  H   UNL     1      22.167   5.160  52.256  0.00  0.00    +0.000 HD
ENDROOT
BRANCH   1   3
ATOM      3  C   UNL     1      22.764   3.249  52.099  0.00  0.00    +0.000 A 
ATOM      4  C   UNL     1      23.865   2.365  52.365  0.00  0.00    +0.000 A 
ATOM      5  C   UNL     1      25.024   2.167  51.578  0.00  0.00    +0.000 A 
ATOM      6  C   UNL     1      25.846   1.044  51.754  0.00  0.00    +0.000 A 
ATOM      7  C   UNL     1      25.630   0.182  52.829  0.00  0.00    +0.000 A 
ATOM      8  C   UNL     1      24.491   0.345  53.597  0.00  0.00    +0.000 A 
ATOM      9  C   UNL     1      23.553   1.250  53.159  0.00  0.00    +0.000 A 
ATOM     10  N   UNL     1      22.339   0.756  53.093  0.00  0.00    +0.000 NA
ATOM     11  C   UNL     1      21.659   1.195  52.032  0.00  0.00    +0.000 A 
ATOM     12  C   UNL     1      21.558   0.419  50.879  0.00  0.00    +0.000 A 
ATOM     13  C   UNL     1      20.979   0.942  49.725  0.00  0.00    +0.000 A 
ATOM     14  C   UNL     1      20.339   2.172  49.808  0.00  0.00    +0.000 A 
ATOM     15  C   UNL     1      20.571   2.983  50.915  0.00  0.00    +0.000 A 
ATOM     16  C   UNL     1      21.543   2.550  51.821  0.00  0.00    +0.000 A 
ENDBRANCH   1   3
BRANCH   1  22
ATOM     17  C   UNL     1      24.052   4.949  49.661  0.00  0.00    +0.000 A 
ATOM     18  C   UNL     1      25.210   5.450  49.050  0.00  0.00    +0.000 A 
ATOM     19  C   UNL     1      25.912   6.486  49.659  0.00  0.00    +0.000 A 
ATOM     20  C   UNL     1      25.387   7.112  50.783  0.00  0.00    +0.000 A 
ATOM     21  C   UNL     1      24.232   6.595  51.384  0.00  0.00    +0.000 A 
ATOM     22  C   UNL     1      23.650   5.429  50.928  0.00  0.00    +0.000 A 
BRANCH  17  24
ATOM     23  C   UNL     1      22.595   4.287  47.947  0.00  0.00    +0.000 C 
ATOM     24  O   UNL     1      23.443   3.885  49.031  0.00  0.00    +0.000 OA
ENDBRANCH  17  24
BRANCH  19  25
ATOM     25  N   UNL     1      27.243   6.809  49.238  0.00  0.00    +0.000 N 
ATOM     26  H   UNL     1      28.011   6.224  49.428  0.00  0.00    +0.000 HD
BRANCH  25  27
ATOM     27  S   UNL     1      27.403   8.282  48.384  0.00  0.00    +0.000 S 
ATOM     28  C   UNL     1      28.083   9.344  49.638  0.00  0.00    +0.000 C 
ATOM     29  O   UNL     1      28.441   8.044  47.401  0.00  0.00    +0.000 OA
ATOM     30  O   UNL     1      26.108   8.791  47.991  0.00  0.00    +0.000 OA
ENDBRANCH  25  27
ENDBRANCH  19  25
ENDBRANCH   1  22
TORSDOF 5
ENDMDL
MODEL 7
REMARK VINA RESULT:    -7.387      3.138      4.725
REMARK INTER + INTRA:         -10.599
REMARK INTER:                  -9.968
REMARK INTRA:                  -0.631
REMARK UNBOUND:                -1.052
REMARK  Name = 
REMARK  7 active torsions:
REMARK  status: ('A' for Active; 'I' for Inactive)
REMARK    1  A    between atoms: C_1  and  O_2
REMARK    2  A    between atoms: O_2  and  C_3
REMARK    3  A    between atoms: C_5  and  N_6
REMARK    4  A    between atoms: N_6  and  S_7
REMARK    5  A    between atoms: S_7  and  C_8
REMARK    6  A    between atoms: C_13  and  N_14
REMARK    7  A    between atoms: N_14  and  C_15
REMARK                            x       y       z     vdW  Elec       q    Type
REMARK                         _______ _______ _______ _____ _____    ______ ____
ROOT
ATOM      1  N   UNL     1      22.776   4.014  52.215  0.00  0.00    +0.000 N 
ATOM      2  H   UNL     1      22.784   4.391  53.124  0.00  0.00    +0.000 HD
ENDROOT
BRANCH   1   3
ATOM      3  C   UNL     1      22.062   2.790  52.150  0.00  0.00    +0.000 A 
ATOM      4  C   UNL     1      22.367   1.579  52.861  0.00  0.00    +0.000 A 
ATOM      5  C   UNL     1      23.612   0.910  52.934  0.00  0.00    +0.000 A 
ATOM      6  C   UNL     1      23.702  -0.424  53.360  0.00  0.00    +0.000 A 
ATOM      7  C   UNL     1      22.580  -1.068  53.882  0.00  0.00    +0.000 A 
ATOM      8  C   UNL     1      21.351  -0.440  53.800  0.00  0.00    +0.000 A 
ATOM      9  C   UNL     1      21.277   0.718  53.061  0.00  0.00    +0.000 A 
ATOM     10  N   UNL     1      20.314   0.710  52.169  0.00  0.00    +0.000 NA
ATOM     11  C   UNL     1      20.667   1.297  51.024  0.00  0.00    +0.000 A 
ATOM     12  C   UNL     1      21.082   0.538  49.931  0.00  0.00    +0.000 A 
ATOM     13  C   UNL     1      21.591   1.160  48.793  0.00  0.00    +0.000 A 
ATOM     14  C   UNL     1      21.496   2.543  48.700  0.00  0.00    +0.000 A 
ATOM     15  C   UNL     1      21.213   3.282  49.844  0.00  0.00    +0.000 A 
ATOM     16  C   UNL     1      21.165   2.580  51.052  0.00  0.00    +0.000 A 
ENDBRANCH   1   3
BRANCH   1  22
ATOM     17  C   UNL     1      24.600   4.321  50.599  0.00  0.00    +0.000 A 
ATOM     18  C   UNL     1      25.585   5.191  50.110  0.00  0.00    +0.000 A 
ATOM     19  C   UNL     1      25.407   6.566  50.234  0.00  0.00    +0.000 A 
ATOM     20  C   UNL     1      24.201   7.068  50.707  0.00  0.00    +0.000 A 
ATOM     21  C   UNL     1      23.231   6.185  51.197  0.00  0.00    +0.000 A 
ATOM     22  C   UNL     1      23.480   4.830  51.293  0.00  0.00    +0.000 A 
BRANCH  17  24
ATOM     23  C   UNL     1      26.222   2.645  50.843  0.00  0.00    +0.000 C 
ATOM     24  O   UNL     1      24.872   2.974  50.493  0.00  0.00    +0.000 OA
ENDBRANCH  17  24
BRANCH  19  25
ATOM     25  N   UNL     1      26.507   7.463  50.034  0.00  0.00    +0.000 N 
ATOM     26  H   UNL     1      27.045   7.810  50.782  0.00  0.00    +0.000 HD
BRANCH  25  27
ATOM     27  S   UNL     1      26.818   7.888  48.408  0.00  0.00    +0.000 S 
ATOM     28  C   UNL     1      28.146   6.778  48.001  0.00  0.00    +0.000 C 
ATOM     29  O   UNL     1      25.646   7.460  47.669  0.00  0.00    +0.000 OA
ATOM     30  O   UNL     1      27.299   9.249  48.316  0.00  0.00    +0.000 OA
ENDBRANCH  25  27
ENDBRANCH  19  25
ENDBRANCH   1  22
TORSDOF 5
ENDMDL
MODEL 8
REMARK VINA RESULT:    -7.214      3.946      5.950
REMARK INTER + INTRA:         -10.375
REMARK INTER:                  -9.811
REMARK INTRA:                  -0.564
REMARK UNBOUND:                -1.052
REMARK  Name = 
REMARK  7 active torsions:
REMARK  status: ('A' for Active; 'I' for Inactive)
REMARK    1  A    between atoms: C_1  and  O_2
REMARK    2  A    between atoms: O_2  and  C_3
REMARK    3  A    between atoms: C_5  and  N_6
REMARK    4  A    between atoms: N_6  and  S_7
REMARK    5  A    between atoms: S_7  and  C_8
REMARK    6  A    between atoms: C_13  and  N_14
REMARK    7  A    between atoms: N_14  and  C_15
REMARK                            x       y       z     vdW  Elec       q    Type
REMARK                         _______ _______ _______ _____ _____    ______ ____
ROOT
ATOM      1  N   UNL     1      24.591   5.205  51.475  0.00  0.00    +0.000 N 
ATOM      2  H   UNL     1      24.909   5.581  52.327  0.00  0.00    +0.000 HD
ENDROOT
BRANCH   1   3
ATOM      3  C   UNL     1      24.079   3.891  51.630  0.00  0.00    +0.000 A 
ATOM      4  C   UNL     1      24.813   2.725  52.041  0.00  0.00    +0.000 A 
ATOM      5  C   UNL     1      26.035   2.244  51.513  0.00  0.00    +0.000 A 
ATOM      6  C   UNL     1      26.467   0.930  51.750  0.00  0.00    +0.000 A 
ATOM      7  C   UNL     1      25.780   0.121  52.655  0.00  0.00    +0.000 A 
ATOM      8  C   UNL     1      24.573   0.565  53.165  0.00  0.00    +0.000 A 
ATOM      9  C   UNL     1      24.039   1.712  52.626  0.00  0.00    +0.000 A 
ATOM     10  N   UNL     1      22.791   1.578  52.243  0.00  0.00    +0.000 NA
ATOM     11  C   UNL     1      22.526   2.229  51.109  0.00  0.00    +0.000 A 
ATOM     12  C   UNL     1      22.507   1.558  49.888  0.00  0.00    +0.000 A 
ATOM     13  C   UNL     1      22.380   2.265  48.694  0.00  0.00    +0.000 A 
ATOM     14  C   UNL     1      22.084   3.621  48.761  0.00  0.00    +0.000 A 
ATOM     15  C   UNL     1      22.246   4.292  49.969  0.00  0.00    +0.000 A 
ATOM     16  C   UNL     1      22.823   3.571  51.019  0.00  0.00    +0.000 A 
ENDBRANCH   1   3
BRANCH   1  22
ATOM     17  C   UNL     1      25.676   5.826  49.361  0.00  0.00    +0.000 A 
ATOM     18  C   UNL     1      26.229   6.867  48.600  0.00  0.00    +0.000 A 
ATOM     19  C   UNL     1      25.798   8.173  48.812  0.00  0.00    +0.000 A 
ATOM     20  C   UNL     1      24.731   8.420  49.666  0.00  0.00    +0.000 A 
ATOM     21  C   UNL     1      24.194   7.371  50.422  0.00  0.00    +0.000 A 
ATOM     22  C   UNL     1      24.757   6.110  50.396  0.00  0.00    +0.000 A 
BRANCH  17  24
ATOM     23  C   UNL     1      27.575   4.589  48.758  0.00  0.00    +0.000 C 
ATOM     24  O   UNL     1      26.192   4.568  49.136  0.00  0.00    +0.000 OA
ENDBRANCH  17  24
BRANCH  19  25
ATOM     25  N   UNL     1      26.544   9.279  48.288  0.00  0.00    +0.000 N 
ATOM     26  H   UNL     1      26.352   9.672  47.407  0.00  0.00    +0.000 HD
BRANCH  25  27
ATOM     27  S   UNL     1      27.790   9.866  49.301  0.00  0.00    +0.000 S 
ATOM     28  C   UNL     1      29.211   9.033  48.632  0.00  0.00    +0.000 C 
ATOM     29  O   UNL     1      27.914  11.274  48.979  0.00  0.00    +0.000 OA
ATOM     30  O   UNL     1      27.591   9.430  50.666  0.00  0.00    +0.000 OA
ENDBRANCH  25  27
ENDBRANCH  19  25
ENDBRANCH   1  22
TORSDOF 5
ENDMDL
MODEL 9
REMARK VINA RESULT:    -6.966      5.461      8.399
REMARK INTER + INTRA:         -10.053
REMARK INTER:                  -8.911
REMARK INTRA:                  -1.142
REMARK UNBOUND:                -1.052
REMARK  Name = 
REMARK  7 active torsions:
REMARK  status: ('A' for Active; 'I' for Inactive)
REMARK    1  A    between atoms: C_1  and  O_2
REMARK    2  A    between atoms: O_2  and  C_3
REMARK    3  A    between atoms: C_5  and  N_6
REMARK    4  A    between atoms: N_6  and  S_7
REMARK    5  A    between atoms: S_7  and  C_8
REMARK    6  A    between atoms: C_13  and  N_14
REMARK    7  A    between atoms: N_14  and  C_15
REMARK                            x       y       z     vdW  Elec       q    Type
REMARK                         _______ _______ _______ _____ _____    ______ ____
ROOT
ATOM      1  N   UNL     1      19.262   0.706  50.421  0.00  0.00    +0.000 N 
ATOM      2  H   UNL     1      19.337   0.750  49.440  0.00  0.00    +0.000 HD
ENDROOT
BRANCH   1   3
ATOM      3  C   UNL     1      20.522   0.837  51.058  0.00  0.00    +0.000 A 
ATOM      4  C   UNL     1      20.959   0.159  52.248  0.00  0.00    +0.000 A 
ATOM      5  C   UNL     1      20.282   0.070  53.488  0.00  0.00    +0.000 A 
ATOM      6  C   UNL     1      20.952  -0.311  54.661  0.00  0.00    +0.000 A 
ATOM      7  C   UNL     1      22.266  -0.774  54.596  0.00  0.00    +0.000 A 
ATOM      8  C   UNL     1      22.951  -0.674  53.399  0.00  0.00    +0.000 A 
ATOM      9  C   UNL     1      22.349   0.025  52.379  0.00  0.00    +0.000 A 
ATOM     10  N   UNL     1      23.119   0.947  51.851  0.00  0.00    +0.000 NA
ATOM     11  C   UNL     1      22.452   2.059  51.536  0.00  0.00    +0.000 A 
ATOM     12  C   UNL     1      22.465   3.164  52.386  0.00  0.00    +0.000 A 
ATOM     13  C   UNL     1      21.648   4.263  52.128  0.00  0.00    +0.000 A 
ATOM     14  C   UNL     1      20.972   4.310  50.915  0.00  0.00    +0.000 A 
ATOM     15  C   UNL     1      20.860   3.150  50.156  0.00  0.00    +0.000 A 
ATOM     16  C   UNL     1      21.338   1.970  50.732  0.00  0.00    +0.000 A 
ENDBRANCH   1   3
BRANCH   1  22
ATOM     17  C   UNL     1      17.069   1.644  51.008  0.00  0.00    +0.000 A 
ATOM     18  C   UNL     1      15.971   1.576  51.878  0.00  0.00    +0.000 A 
ATOM     19  C   UNL     1      15.674   0.374  52.513  0.00  0.00    +0.000 A 
ATOM     20  C   UNL     1      16.372  -0.779  52.174  0.00  0.00    +0.000 A 
ATOM     21  C   UNL     1      17.469  -0.692  51.308  0.00  0.00    +0.000 A 
ATOM     22  C   UNL     1      17.921   0.528  50.847  0.00  0.00    +0.000 A 
BRANCH  17  24
ATOM     23  C   UNL     1      17.363   3.931  51.437  0.00  0.00    +0.000 C 
ATOM     24  O   UNL     1      17.336   2.881  50.461  0.00  0.00    +0.000 OA
ENDBRANCH  17  24
BRANCH  19  25
ATOM     25  N   UNL     1      14.771   0.342  53.624  0.00  0.00    +0.000 N 
ATOM     26  H   UNL     1      15.058   0.078  54.528  0.00  0.00    +0.000 HD
BRANCH  25  27
ATOM     27  S   UNL     1      13.160   0.793  53.271  0.00  0.00    +0.000 S 
ATOM     28  C   UNL     1      12.272  -0.014  54.583  0.00  0.00    +0.000 C 
ATOM     29  O   UNL     1      13.100   2.221  53.514  0.00  0.00    +0.000 OA
ATOM     30  O   UNL     1      12.736   0.235  52.006  0.00  0.00    +0.000 OA
ENDBRANCH  25  27
ENDBRANCH  19  25
ENDBRANCH   1  22
TORSDOF 5
ENDMDL
