MODEL 1
REMARK VINA RESULT:    -8.033      0.000      0.000
REMARK INTER + INTRA:          -9.831
REMARK INTER:                  -9.442
REMARK INTRA:                  -0.389
REMARK UNBOUND:                -0.389
REMARK  Name = 
REMARK  5 active torsions:
REMARK  status: ('A' for Active; 'I' for Inactive)
REMARK    1  A    between atoms: C_1  and  N_2
REMARK    2  A    between atoms: N_2  and  C_3
REMARK    3  A    between atoms: N_2  and  C_4
REMARK    4  A    between atoms: C_9  and  S_10
REMARK    5  A    between atoms: S_10  and  N_13
REMARK                            x       y       z     vdW  Elec       q    Type
REMARK                         _______ _______ _______ _____ _____    ______ ____
ROOT
ATOM      1  C   UNL     1      26.215   0.020  53.363  0.00  0.00    +0.000 A 
ATOM      2  C   UNL     1      26.259   0.955  52.308  0.00  0.00    +0.000 A 
ATOM      3  C   UNL     1      25.119   1.596  51.841  0.00  0.00    +0.000 A 
ATOM      4  C   UNL     1      23.874   1.229  52.327  0.00  0.00    +0.000 A 
ATOM      5  C   UNL     1      23.725   0.217  53.296  0.00  0.00    +0.000 A 
ATOM      6  C   UNL     1      22.459  -0.265  53.736  0.00  0.00    +0.000 A 
ATOM      7  C   UNL     1      22.356  -1.072  54.876  0.00  0.00    +0.000 A 
ATOM      8  C   UNL     1      23.500  -1.440  55.564  0.00  0.00    +0.000 A 
ATOM      9  C   UNL     1      24.750  -1.079  55.067  0.00  0.00    +0.000 A 
ATOM     10  C   UNL     1      24.918  -0.305  53.895  0.00  0.00    +0.000 A 
ENDROOT
BRANCH   1  12
ATOM     11  C   UNL     1      28.248   0.374  54.711  0.00  0.00    +0.000 C 
ATOM     12  N   UNL     1      27.424  -0.511  53.883  0.00  0.00    +0.000 N 
ATOM     13  C   UNL     1      28.190  -1.426  53.027  0.00  0.00    +0.000 C 
ENDBRANCH   1  12
BRANCH   6  14
ATOM     14  S   UNL     1      20.911   0.110  52.904  0.00  0.00    +0.000 S 
ATOM     15  O   UNL     1      21.169   0.102  51.477  0.00  0.00    +0.000 OA
ATOM     16  O   UNL     1      19.914  -0.787  53.454  0.00  0.00    +0.000 OA
BRANCH  14  17
ATOM     17  N   UNL     1      20.429   1.643  53.320  0.00  0.00    +0.000 N 
ATOM     18  C   UNL     1      20.131   2.550  52.320  0.00  0.00    +0.000 A 
ATOM     19  N   UNL     1      18.949   2.500  51.694  0.00  0.00    +0.000 NA
ATOM     20  C   UNL     1      18.715   3.529  50.840  0.00  0.00    +0.000 A 
ATOM     21  C   UNL     1      19.628   4.528  50.568  0.00  0.00    +0.000 A 
ATOM     22 BR   UNL     1      19.284   5.908  49.343  0.00  0.00    +0.000 Br
ATOM     23  C   UNL     1      20.812   4.450  51.260  0.00  0.00    +0.000 A 
ATOM     24  N   UNL     1      21.073   3.481  52.166  0.00  0.00    +0.000 NA
ATOM     25  H   UNL     1      20.356   1.904  54.267  0.00  0.00    +0.000 HD
ENDBRANCH  14  17
ENDBRANCH   6  14
TORSDOF 3
ENDMDL
MODEL 2
REMARK VINA RESULT:    -7.697      1.222      1.421
REMARK INTER + INTRA:          -9.436
REMARK INTER:                  -9.156
REMARK INTRA:                  -0.280
REMARK UNBOUND:                -0.389
REMARK  Name = 
REMARK  5 active torsions:
REMARK  status: ('A' for Active; 'I' for Inactive)
REMARK    1  A    between atoms: C_1  and  N_2
REMARK    2  A    between atoms: N_2  and  C_3
REMARK    3  A    between atoms: N_2  and  C_4
REMARK    4  A    between atoms: C_9  and  S_10
REMARK    5  A    between atoms: S_10  and  N_13
REMARK                            x       y       z     vdW  Elec       q    Type
REMARK                         _______ _______ _______ _____ _____    ______ ____
ROOT
ATOM      1  C   UNL     1      26.768   0.361  53.254  0.00  0.00    +0.000 A 
ATOM      2  C   UNL     1      27.076   1.402  52.355  0.00  0.00    +0.000 A 
ATOM      3  C   UNL     1      26.094   2.199  51.782  0.00  0.00    +0.000 A 
ATOM      4  C   UNL     1      24.757   1.902  51.990  0.00  0.00    +0.000 A 
ATOM      5  C   UNL     1      24.355   0.805  52.778  0.00  0.00    +0.000 A 
ATOM      6  C   UNL     1      22.997   0.400  52.924  0.00  0.00    +0.000 A 
ATOM      7  C   UNL     1      22.624  -0.518  53.913  0.00  0.00    +0.000 A 
ATOM      8  C   UNL     1      23.589  -1.071  54.737  0.00  0.00    +0.000 A 
ATOM      9  C   UNL     1      24.933  -0.779  54.518  0.00  0.00    +0.000 A 
ATOM     10  C   UNL     1      25.374   0.104  53.505  0.00  0.00    +0.000 A 
ENDROOT
BRANCH   1  12
ATOM     11  C   UNL     1      28.711   0.433  54.769  0.00  0.00    +0.000 C 
ATOM     12  N   UNL     1      27.816  -0.341  53.904  0.00  0.00    +0.000 N 
ATOM     13  C   UNL     1      28.476  -1.421  53.161  0.00  0.00    +0.000 C 
ENDBRANCH   1  12
BRANCH   6  14
ATOM     14  S   UNL     1      21.663   1.017  51.889  0.00  0.00    +0.000 S 
ATOM     15  O   UNL     1      22.226   1.328  50.590  0.00  0.00    +0.000 OA
ATOM     16  O   UNL     1      20.582   0.056  51.986  0.00  0.00    +0.000 OA
BRANCH  14  17
ATOM     17  N   UNL     1      21.081   2.429  52.538  0.00  0.00    +0.000 N 
ATOM     18  C   UNL     1      21.113   3.584  51.778  0.00  0.00    +0.000 A 
ATOM     19  N   UNL     1      20.186   3.798  50.838  0.00  0.00    +0.000 NA
ATOM     20  C   UNL     1      20.234   5.028  50.263  0.00  0.00    +0.000 A 
ATOM     21  C   UNL     1      21.190   5.979  50.556  0.00  0.00    +0.000 A 
ATOM     22 BR   UNL     1      21.251   7.650  49.703  0.00  0.00    +0.000 Br
ATOM     23  C   UNL     1      22.099   5.623  51.523  0.00  0.00    +0.000 A 
ATOM     24  N   UNL     1      22.061   4.437  52.170  0.00  0.00    +0.000 NA
ATOM     25  H   UNL     1      20.717   2.446  53.453  0.00  0.00    +0.000 HD
ENDBRANCH  14  17
ENDBRANCH   6  14
TORSDOF 3
ENDMDL
MODEL 3
REMARK VINA RESULT:    -7.640      4.925      7.767
REMARK INTER + INTRA:          -9.369
REMARK INTER:                  -9.246
REMARK INTRA:                  -0.123
REMARK UNBOUND:                -0.389
REMARK  Name = 
REMARK  5 active torsions:
REMARK  status: ('A' for Active; 'I' for Inactive)
REMARK    1  A    between atoms: C_1  and  N_2
REMARK    2  A    between atoms: N_2  and  C_3
REMARK    3  A    between atoms: N_2  and  C_4
REMARK    4  A    between atoms: C_9  and  S_10
REMARK    5  A    between atoms: S_10  and  N_13
REMARK                            x       y       z     vdW  Elec       q    Type
REMARK                         _______ _______ _______ _____ _____    ______ ____
ROOT
ATOM      1  C   UNL     1      26.119   6.429  49.243  0.00  0.00    +0.000 A 
ATOM      2  C   UNL     1      27.068   5.466  48.845  0.00  0.00    +0.000 A 
ATOM      3  C   UNL     1      26.928   4.119  49.152  0.00  0.00    +0.000 A 
ATOM      4  C   UNL     1      25.895   3.704  49.979  0.00  0.00    +0.000 A 
ATOM      5  C   UNL     1      24.969   4.617  50.522  0.00  0.00    +0.000 A 
ATOM      6  C   UNL     1      23.966   4.247  51.463  0.00  0.00    +0.000 A 
ATOM      7  C   UNL     1      22.914   5.119  51.770  0.00  0.00    +0.000 A 
ATOM      8  C   UNL     1      22.866   6.372  51.183  0.00  0.00    +0.000 A 
ATOM      9  C   UNL     1      23.909   6.789  50.361  0.00  0.00    +0.000 A 
ATOM     10  C   UNL     1      25.021   5.971  50.053  0.00  0.00    +0.000 A 
ENDROOT
BRANCH   1  12
ATOM     11  C   UNL     1      26.385   7.991  47.354  0.00  0.00    +0.000 C 
ATOM     12  N   UNL     1      26.248   7.770  48.797  0.00  0.00    +0.000 N 
ATOM     13  C   UNL     1      27.033   8.692  49.627  0.00  0.00    +0.000 C 
ENDBRANCH   1  12
BRANCH   6  14
ATOM     14  S   UNL     1      23.944   2.667  52.320  0.00  0.00    +0.000 S 
ATOM     15  O   UNL     1      22.623   2.498  52.893  0.00  0.00    +0.000 OA
ATOM     16  O   UNL     1      24.448   1.679  51.385  0.00  0.00    +0.000 OA
BRANCH  14  17
ATOM     17  N   UNL     1      25.035   2.713  53.570  0.00  0.00    +0.000 N 
ATOM     18  C   UNL     1      26.154   1.903  53.518  0.00  0.00    +0.000 A 
ATOM     19  N   UNL     1      27.207   2.255  52.772  0.00  0.00    +0.000 NA
ATOM     20  C   UNL     1      28.298   1.459  52.918  0.00  0.00    +0.000 A 
ATOM     21  C   UNL     1      28.328   0.332  53.714  0.00  0.00    +0.000 A 
ATOM     22 BR   UNL     1      29.841  -0.771  53.850  0.00  0.00    +0.000 Br
ATOM     23  C   UNL     1      27.173   0.068  54.408  0.00  0.00    +0.000 A 
ATOM     24  N   UNL     1      26.079   0.860  54.347  0.00  0.00    +0.000 NA
ATOM     25  H   UNL     1      24.888   3.309  54.340  0.00  0.00    +0.000 HD
ENDBRANCH  14  17
ENDBRANCH   6  14
TORSDOF 3
ENDMDL
MODEL 4
REMARK VINA RESULT:    -7.630      3.794      7.245
REMARK INTER + INTRA:          -9.357
REMARK INTER:                  -9.275
REMARK INTRA:                  -0.082
REMARK UNBOUND:                -0.389
REMARK  Name = 
REMARK  5 active torsions:
REMARK  status: ('A' for Active; 'I' for Inactive)
REMARK    1  A    between atoms: C_1  and  N_2
REMARK    2  A    between atoms: N_2  and  C_3
REMARK    3  A    between atoms: N_2  and  C_4
REMARK    4  A    between atoms: C_9  and  S_10
REMARK    5  A    between atoms: S_10  and  N_13
REMARK                            x       y       z     vdW  Elec       q    Type
REMARK                         _______ _______ _______ _____ _____    ______ ____
ROOT
ATOM      1  C   UNL     1      19.995  -0.097  52.847  0.00  0.00    +0.000 A 
ATOM      2  C   UNL     1      20.882  -1.100  53.290  0.00  0.00    +0.000 A 
ATOM      3  C   UNL     1      22.226  -0.845  53.531  0.00  0.00    +0.000 A 
ATOM      4  C   UNL     1      22.760   0.395  53.214  0.00  0.00    +0.000 A 
ATOM      5  C   UNL     1      21.972   1.419  52.653  0.00  0.00    +0.000 A 
ATOM      6  C   UNL     1      22.505   2.664  52.211  0.00  0.00    +0.000 A 
ATOM      7  C   UNL     1      21.660   3.739  51.910  0.00  0.00    +0.000 A 
ATOM      8  C   UNL     1      20.288   3.584  52.004  0.00  0.00    +0.000 A 
ATOM      9  C   UNL     1      19.755   2.335  52.312  0.00  0.00    +0.000 A 
ATOM     10  C   UNL     1      20.556   1.200  52.580  0.00  0.00    +0.000 A 
ENDROOT
BRANCH   1  12
ATOM     11  C   UNL     1      18.072  -1.452  53.583  0.00  0.00    +0.000 C 
ATOM     12  N   UNL     1      18.610  -0.383  52.737  0.00  0.00    +0.000 N 
ATOM     13  C   UNL     1      18.002  -0.302  51.403  0.00  0.00    +0.000 C 
ENDBRANCH   1  12
BRANCH   6  14
ATOM     14  S   UNL     1      24.263   2.973  52.010  0.00  0.00    +0.000 S 
ATOM     15  O   UNL     1      24.757   2.053  51.004  0.00  0.00    +0.000 OA
ATOM     16  O   UNL     1      24.416   4.401  51.807  0.00  0.00    +0.000 OA
BRANCH  14  17
ATOM     17  N   UNL     1      25.042   2.628  53.435  0.00  0.00    +0.000 N 
ATOM     18  C   UNL     1      26.193   1.862  53.405  0.00  0.00    +0.000 A 
ATOM     19  N   UNL     1      27.362   2.416  53.064  0.00  0.00    +0.000 NA
ATOM     20  C   UNL     1      28.441   1.604  53.216  0.00  0.00    +0.000 A 
ATOM     21  C   UNL     1      28.363   0.288  53.624  0.00  0.00    +0.000 A 
ATOM     22 BR   UNL     1      29.874  -0.816  53.774  0.00  0.00    +0.000 Br
ATOM     23  C   UNL     1      27.101  -0.164  53.921  0.00  0.00    +0.000 A 
ATOM     24  N   UNL     1      26.001   0.618  53.845  0.00  0.00    +0.000 NA
ATOM     25  H   UNL     1      24.689   2.962  54.291  0.00  0.00    +0.000 HD
ENDBRANCH  14  17
ENDBRANCH   6  14
TORSDOF 3
ENDMDL
MODEL 5
REMARK VINA RESULT:    -7.629      2.881      4.108
REMARK INTER + INTRA:          -9.356
REMARK INTER:                  -9.123
REMARK INTRA:                  -0.233
REMARK UNBOUND:                -0.389
REMARK  Name = 
REMARK  5 active torsions:
REMARK  status: ('A' for Active; 'I' for Inactive)
REMARK    1  A    between atoms: C_1  and  N_2
REMARK    2  A    between atoms: N_2  and  C_3
REMARK    3  A    between atoms: N_2  and  C_4
REMARK    4  A    between atoms: C_9  and  S_10
REMARK    5  A    between atoms: S_10  and  N_13
REMARK                            x       y       z     vdW  Elec       q    Type
REMARK                         _______ _______ _______ _____ _____    ______ ____
ROOT
ATOM      1  C   UNL     1      26.995   0.821  53.216  0.00  0.00    +0.000 A 
ATOM      2  C   UNL     1      26.306  -0.093  54.039  0.00  0.00    +0.000 A 
ATOM      3  C   UNL     1      24.961  -0.387  53.853  0.00  0.00    +0.000 A 
ATOM      4  C   UNL     1      24.224   0.321  52.916  0.00  0.00    +0.000 A 
ATOM      5  C   UNL     1      24.803   1.338  52.132  0.00  0.00    +0.000 A 
ATOM      6  C   UNL     1      24.056   2.162  51.242  0.00  0.00    +0.000 A 
ATOM      7  C   UNL     1      24.703   2.971  50.300  0.00  0.00    +0.000 A 
ATOM      8  C   UNL     1      26.086   3.003  50.255  0.00  0.00    +0.000 A 
ATOM      9  C   UNL     1      26.824   2.300  51.205  0.00  0.00    +0.000 A 
ATOM     10  C   UNL     1      26.225   1.504  52.209  0.00  0.00    +0.000 A 
ENDROOT
BRANCH   1  12
ATOM     11  C   UNL     1      29.181  -0.193  53.730  0.00  0.00    +0.000 C 
ATOM     12  N   UNL     1      28.395   0.990  53.371  0.00  0.00    +0.000 N 
ATOM     13  C   UNL     1      28.867   2.239  53.983  0.00  0.00    +0.000 C 
ENDBRANCH   1  12
BRANCH   6  14
ATOM     14  S   UNL     1      22.261   2.237  51.232  0.00  0.00    +0.000 S 
ATOM     15  O   UNL     1      21.836   2.728  52.529  0.00  0.00    +0.000 OA
ATOM     16  O   UNL     1      21.880   2.962  50.036  0.00  0.00    +0.000 OA
BRANCH  14  17
ATOM     17  N   UNL     1      21.654   0.702  51.051  0.00  0.00    +0.000 N 
ATOM     18  C   UNL     1      20.337   0.455  51.389  0.00  0.00    +0.000 A 
ATOM     19  N   UNL     1      19.350   0.792  50.550  0.00  0.00    +0.000 NA
ATOM     20  C   UNL     1      18.116   0.365  50.924  0.00  0.00    +0.000 A 
ATOM     21  C   UNL     1      17.858  -0.308  52.101  0.00  0.00    +0.000 A 
ATOM     22 BR   UNL     1      16.129  -0.839  52.605  0.00  0.00    +0.000 Br
ATOM     23  C   UNL     1      18.955  -0.571  52.884  0.00  0.00    +0.000 A 
ATOM     24  N   UNL     1      20.212  -0.223  52.531  0.00  0.00    +0.000 NA
ATOM     25  H   UNL     1      22.224  -0.023  50.708  0.00  0.00    +0.000 HD
ENDBRANCH  14  17
ENDBRANCH   6  14
TORSDOF 3
ENDMDL
MODEL 6
REMARK VINA RESULT:    -7.579      3.880      7.183
REMARK INTER + INTRA:          -9.297
REMARK INTER:                  -9.220
REMARK INTRA:                  -0.077
REMARK UNBOUND:                -0.389
REMARK  Name = 
REMARK  5 active torsions:
REMARK  status: ('A' for Active; 'I' for Inactive)
REMARK    1  A    between atoms: C_1  and  N_2
REMARK    2  A    between atoms: N_2  and  C_3
REMARK    3  A    between atoms: N_2  and  C_4
REMARK    4  A    between atoms: C_9  and  S_10
REMARK    5  A    between atoms: S_10  and  N_13
REMARK                            x       y       z     vdW  Elec       q    Type
REMARK                         _______ _______ _______ _____ _____    ______ ____
ROOT
ATOM      1  C   UNL     1      18.490  -0.377  52.357  0.00  0.00    +0.000 A 
ATOM      2  C   UNL     1      18.292   0.236  51.102  0.00  0.00    +0.000 A 
ATOM      3  C   UNL     1      19.331   0.826  50.395  0.00  0.00    +0.000 A 
ATOM      4  C   UNL     1      20.585   0.935  50.975  0.00  0.00    +0.000 A 
ATOM      5  C   UNL     1      20.844   0.458  52.276  0.00  0.00    +0.000 A 
ATOM      6  C   UNL     1      22.085   0.653  52.949  0.00  0.00    +0.000 A 
ATOM      7  C   UNL     1      22.385  -0.056  54.118  0.00  0.00    +0.000 A 
ATOM      8  C   UNL     1      21.454  -0.930  54.651  0.00  0.00    +0.000 A 
ATOM      9  C   UNL     1      20.191  -1.031  54.071  0.00  0.00    +0.000 A 
ATOM     10  C   UNL     1      19.813  -0.304  52.918  0.00  0.00    +0.000 A 
ENDROOT
BRANCH   1  12
ATOM     11  C   UNL     1      17.513  -2.532  53.044  0.00  0.00    +0.000 C 
ATOM     12  N   UNL     1      17.420  -1.071  52.978  0.00  0.00    +0.000 N 
ATOM     13  C   UNL     1      16.060  -0.560  52.763  0.00  0.00    +0.000 C 
ENDBRANCH   1  12
BRANCH   6  14
ATOM     14  S   UNL     1      23.354   1.789  52.377  0.00  0.00    +0.000 S 
ATOM     15  O   UNL     1      24.048   1.151  51.275  0.00  0.00    +0.000 OA
ATOM     16  O   UNL     1      22.706   3.069  52.167  0.00  0.00    +0.000 OA
BRANCH  14  17
ATOM     17  N   UNL     1      24.457   2.028  53.595  0.00  0.00    +0.000 N 
ATOM     18  C   UNL     1      25.725   1.492  53.470  0.00  0.00    +0.000 A 
ATOM     19  N   UNL     1      26.643   2.101  52.711  0.00  0.00    +0.000 NA
ATOM     20  C   UNL     1      27.889   1.564  52.785  0.00  0.00    +0.000 A 
ATOM     21  C   UNL     1      28.201   0.441  53.526  0.00  0.00    +0.000 A 
ATOM     22 BR   UNL     1      29.926  -0.299  53.564  0.00  0.00    +0.000 Br
ATOM     23  C   UNL     1      27.162  -0.102  54.241  0.00  0.00    +0.000 A 
ATOM     24  N   UNL     1      25.918   0.427  54.251  0.00  0.00    +0.000 NA
ATOM     25  H   UNL     1      24.212   2.545  54.396  0.00  0.00    +0.000 HD
ENDBRANCH  14  17
ENDBRANCH   6  14
TORSDOF 3
ENDMDL
MODEL 7
REMARK VINA RESULT:    -7.506      5.781      8.114
REMARK INTER + INTRA:          -9.211
REMARK INTER:                  -9.088
REMARK INTRA:                  -0.123
REMARK UNBOUND:                -0.389
REMARK  Name = 
REMARK  5 active torsions:
REMARK  status: ('A' for Active; 'I' for Inactive)
REMARK    1  A    between atoms: C_1  and  N_2
REMARK    2  A    between atoms: N_2  and  C_3
REMARK    3  A    between atoms: N_2  and  C_4
REMARK    4  A    between atoms: C_9  and  S_10
REMARK    5  A    between atoms: S_10  and  N_13
REMARK                            x       y       z     vdW  Elec       q    Type
REMARK                         _______ _______ _______ _____ _____    ______ ____
ROOT
ATOM      1  C   UNL     1      27.581   7.348  48.785  0.00  0.00    +0.000 A 
ATOM      2  C   UNL     1      28.201   6.142  48.397  0.00  0.00    +0.000 A 
ATOM      3  C   UNL     1      27.566   4.913  48.514  0.00  0.00    +0.000 A 
ATOM      4  C   UNL     1      26.334   4.831  49.143  0.00  0.00    +0.000 A 
ATOM      5  C   UNL     1      25.694   5.970  49.671  0.00  0.00    +0.000 A 
ATOM      6  C   UNL     1      24.484   5.911  50.422  0.00  0.00    +0.000 A 
ATOM      7  C   UNL     1      23.754   7.073  50.696  0.00  0.00    +0.000 A 
ATOM      8  C   UNL     1      24.227   8.301  50.267  0.00  0.00    +0.000 A 
ATOM      9  C   UNL     1      25.471   8.382  49.644  0.00  0.00    +0.000 A 
ATOM     10  C   UNL     1      26.276   7.248  49.383  0.00  0.00    +0.000 A 
ENDROOT
BRANCH   1  12
ATOM     11  C   UNL     1      28.076   9.159  47.188  0.00  0.00    +0.000 C 
ATOM     12  N   UNL     1      28.226   8.585  48.529  0.00  0.00    +0.000 N 
ATOM     13  C   UNL     1      29.543   8.806  49.138  0.00  0.00    +0.000 C 
ENDBRANCH   1  12
BRANCH   6  14
ATOM     14  S   UNL     1      23.791   4.384  51.066  0.00  0.00    +0.000 S 
ATOM     15  O   UNL     1      22.481   4.691  51.605  0.00  0.00    +0.000 OA
ATOM     16  O   UNL     1      23.916   3.393  50.014  0.00  0.00    +0.000 OA
BRANCH  14  17
ATOM     17  N   UNL     1      24.738   3.844  52.318  0.00  0.00    +0.000 N 
ATOM     18  C   UNL     1      25.227   2.551  52.284  0.00  0.00    +0.000 A 
ATOM     19  N   UNL     1      26.294   2.253  51.534  0.00  0.00    +0.000 NA
ATOM     20  C   UNL     1      26.769   0.991  51.698  0.00  0.00    +0.000 A 
ATOM     21  C   UNL     1      26.181   0.046  52.515  0.00  0.00    +0.000 A 
ATOM     22 BR   UNL     1      26.840  -1.704  52.676  0.00  0.00    +0.000 Br
ATOM     23  C   UNL     1      25.077   0.473  53.211  0.00  0.00    +0.000 A 
ATOM     24  N   UNL     1      24.598   1.735  53.132  0.00  0.00    +0.000 NA
ATOM     25  H   UNL     1      24.949   4.435  53.076  0.00  0.00    +0.000 HD
ENDBRANCH  14  17
ENDBRANCH   6  14
TORSDOF 3
ENDMDL
MODEL 8
REMARK VINA RESULT:    -7.414      3.004      3.537
REMARK INTER + INTRA:          -9.104
REMARK INTER:                  -8.751
REMARK INTRA:                  -0.353
REMARK UNBOUND:                -0.389
REMARK  Name = 
REMARK  5 active torsions:
REMARK  status: ('A' for Active; 'I' for Inactive)
REMARK    1  A    between atoms: C_1  and  N_2
REMARK    2  A    between atoms: N_2  and  C_3
REMARK    3  A    between atoms: N_2  and  C_4
REMARK    4  A    between atoms: C_9  and  S_10
REMARK    5  A    between atoms: S_10  and  N_13
REMARK                            x       y       z     vdW  Elec       q    Type
REMARK                         _______ _______ _______ _____ _____    ______ ____
ROOT
ATOM      1  C   UNL     1      24.928   0.197  53.037  0.00  0.00    +0.000 A 
ATOM      2  C   UNL     1      25.220   1.201  52.090  0.00  0.00    +0.000 A 
ATOM      3  C   UNL     1      24.224   1.946  51.472  0.00  0.00    +0.000 A 
ATOM      4  C   UNL     1      22.892   1.626  51.685  0.00  0.00    +0.000 A 
ATOM      5  C   UNL     1      22.510   0.559  52.522  0.00  0.00    +0.000 A 
ATOM      6  C   UNL     1      21.161   0.130  52.677  0.00  0.00    +0.000 A 
ATOM      7  C   UNL     1      20.802  -0.748  53.707  0.00  0.00    +0.000 A 
ATOM      8  C   UNL     1      21.772  -1.238  54.564  0.00  0.00    +0.000 A 
ATOM      9  C   UNL     1      23.111  -0.924  54.341  0.00  0.00    +0.000 A 
ATOM     10  C   UNL     1      23.539  -0.080  53.289  0.00  0.00    +0.000 A 
ENDROOT
BRANCH   1  12
ATOM     11  C   UNL     1      26.687   0.324  54.760  0.00  0.00    +0.000 C 
ATOM     12  N   UNL     1      25.987  -0.447  53.728  0.00  0.00    +0.000 N 
ATOM     13  C   UNL     1      26.851  -1.353  52.960  0.00  0.00    +0.000 C 
ENDBRANCH   1  12
BRANCH   6  14
ATOM     14  S   UNL     1      19.822   0.663  51.604  0.00  0.00    +0.000 S 
ATOM     15  O   UNL     1      19.355   1.946  52.091  0.00  0.00    +0.000 OA
ATOM     16  O   UNL     1      20.308   0.550  50.243  0.00  0.00    +0.000 OA
BRANCH  14  17
ATOM     17  N   UNL     1      18.563  -0.413  51.731  0.00  0.00    +0.000 N 
ATOM     18  C   UNL     1      17.327  -0.067  51.218  0.00  0.00    +0.000 A 
ATOM     19  N   UNL     1      17.092  -0.162  49.904  0.00  0.00    +0.000 NA
ATOM     20  C   UNL     1      15.802   0.062  49.541  0.00  0.00    +0.000 A 
ATOM     21  C   UNL     1      14.805   0.424  50.423  0.00  0.00    +0.000 A 
ATOM     22 BR   UNL     1      13.044   0.773  49.874  0.00  0.00    +0.000 Br
ATOM     23  C   UNL     1      15.185   0.511  51.740  0.00  0.00    +0.000 A 
ATOM     24  N   UNL     1      16.439   0.240  52.165  0.00  0.00    +0.000 NA
ATOM     25  H   UNL     1      18.694  -1.286  52.166  0.00  0.00    +0.000 HD
ENDBRANCH  14  17
ENDBRANCH   6  14
TORSDOF 3
ENDMDL
MODEL 9
REMARK VINA RESULT:    -7.365      2.417      3.882
REMARK INTER + INTRA:          -9.046
REMARK INTER:                  -8.586
REMARK INTRA:                  -0.460
REMARK UNBOUND:                -0.389
REMARK  Name = 
REMARK  5 active torsions:
REMARK  status: ('A' for Active; 'I' for Inactive)
REMARK    1  A    between atoms: C_1  and  N_2
REMARK    2  A    between atoms: N_2  and  C_3
REMARK    3  A    between atoms: N_2  and  C_4
REMARK    4  A    between atoms: C_9  and  S_10
REMARK    5  A    between atoms: S_10  and  N_13
REMARK                            x       y       z     vdW  Elec       q    Type
REMARK                         _______ _______ _______ _____ _____    ______ ____
ROOT
ATOM      1  C   UNL     1      25.712   0.238  52.973  0.00  0.00    +0.000 A 
ATOM      2  C   UNL     1      24.540  -0.312  53.533  0.00  0.00    +0.000 A 
ATOM      3  C   UNL     1      23.275   0.165  53.217  0.00  0.00    +0.000 A 
ATOM      4  C   UNL     1      23.142   1.294  52.424  0.00  0.00    +0.000 A 
ATOM      5  C   UNL     1      24.264   1.981  51.919  0.00  0.00    +0.000 A 
ATOM      6  C   UNL     1      24.173   3.206  51.198  0.00  0.00    +0.000 A 
ATOM      7  C   UNL     1      25.276   3.709  50.496  0.00  0.00    +0.000 A 
ATOM      8  C   UNL     1      26.482   3.030  50.532  0.00  0.00    +0.000 A 
ATOM      9  C   UNL     1      26.615   1.901  51.337  0.00  0.00    +0.000 A 
ATOM     10  C   UNL     1      25.550   1.375  52.106  0.00  0.00    +0.000 A 
ENDROOT
BRANCH   1  12
ATOM     11  C   UNL     1      27.128  -1.776  52.866  0.00  0.00    +0.000 C 
ATOM     12  N   UNL     1      26.968  -0.367  53.236  0.00  0.00    +0.000 N 
ATOM     13  C   UNL     1      27.666   0.018  54.469  0.00  0.00    +0.000 C 
ENDBRANCH   1  12
BRANCH   6  14
ATOM     14  S   UNL     1      22.676   4.196  51.111  0.00  0.00    +0.000 S 
ATOM     15  O   UNL     1      22.220   4.420  52.469  0.00  0.00    +0.000 OA
ATOM     16  O   UNL     1      22.977   5.333  50.262  0.00  0.00    +0.000 OA
BRANCH  14  17
ATOM     17  N   UNL     1      21.500   3.332  50.319  0.00  0.00    +0.000 N 
ATOM     18  C   UNL     1      20.181   3.481  50.706  0.00  0.00    +0.000 A 
ATOM     19  N   UNL     1      19.475   4.543  50.302  0.00  0.00    +0.000 NA
ATOM     20  C   UNL     1      18.155   4.503  50.621  0.00  0.00    +0.000 A 
ATOM     21  C   UNL     1      17.571   3.492  51.357  0.00  0.00    +0.000 A 
ATOM     22 BR   UNL     1      15.751   3.497  51.818  0.00  0.00    +0.000 Br
ATOM     23  C   UNL     1      18.411   2.472  51.731  0.00  0.00    +0.000 A 
ATOM     24  N   UNL     1      19.719   2.432  51.389  0.00  0.00    +0.000 NA
ATOM     25  H   UNL     1      21.737   2.722  49.584  0.00  0.00    +0.000 HD
ENDBRANCH  14  17
ENDBRANCH   6  14
TORSDOF 3
ENDMDL
