MODEL 1
REMARK VINA RESULT:    -7.984      0.000      0.000
REMARK INTER + INTRA:         -12.245
REMARK INTER:                 -11.251
REMARK INTRA:                  -0.994
REMARK UNBOUND:                -0.994
REMARK  Name = 
REMARK  10 active torsions:
REMARK  status: ('A' for Active; 'I' for Inactive)
REMARK    1  A    between atoms: C_1  and  C_2
REMARK    2  A    between atoms: C_2  and  N_3
REMARK    3  A    between atoms: N_3  and  C_4
REMARK    4  A    between atoms: N_3  and  C_6
REMARK    5  A    between atoms: C_4  and  C_5
REMARK    6  A    between atoms: C_6  and  C_7
REMARK    7  A    between atoms: C_7  and  N_8
REMARK    8  A    between atoms: N_8  and  C_9
REMARK    9  A    between atoms: C_17  and  O_18
REMARK   10  A    between atoms: O_18  and  C_19
REMARK                            x       y       z     vdW  Elec       q    Type
REMARK                         _______ _______ _______ _____ _____    ______ ____
ROOT
ATOM      1  C   UNL     1      24.769   2.628  51.281  0.00  0.00    +0.000 A 
ATOM      2  C   UNL     1      24.737   3.255  50.027  0.00  0.00    +0.000 A 
ATOM      3  C   UNL     1      23.672   3.056  49.099  0.00  0.00    +0.000 A 
ATOM      4  C   UNL     1      22.566   2.276  49.474  0.00  0.00    +0.000 A 
ATOM      5  N   UNL     1      21.380   1.951  48.854  0.00  0.00    +0.000 NA
ATOM      6  C   UNL     1      20.702   1.211  49.725  0.00  0.00    +0.000 A 
ATOM      7  N   UNL     1      21.411   1.013  50.890  0.00  0.00    +0.000 N 
ATOM      8  C   UNL     1      21.185   0.293  52.115  0.00  0.00    +0.000 A 
ATOM      9  C   UNL     1      19.957  -0.314  52.483  0.00  0.00    +0.000 A 
ATOM     10  C   UNL     1      19.972  -0.917  53.723  0.00  0.00    +0.000 A 
ATOM     11  C   UNL     1      21.141  -1.374  54.277  0.00  0.00    +0.000 A 
ATOM     12  C   UNL     1      22.279  -0.662  54.042  0.00  0.00    +0.000 A 
ATOM     13  C   UNL     1      22.329   0.229  52.999  0.00  0.00    +0.000 A 
ATOM     14  C   UNL     1      23.556   0.981  52.789  0.00  0.00    +0.000 A 
ATOM     15  O   UNL     1      24.466   0.892  53.613  0.00  0.00    +0.000 OA
ATOM     16  C   UNL     1      23.685   1.793  51.581  0.00  0.00    +0.000 A 
ATOM     17  C   UNL     1      22.605   1.681  50.709  0.00  0.00    +0.000 A 
ENDROOT
BRANCH   1  18
ATOM     18  N   UNL     1      25.788   2.819  52.199  0.00  0.00    +0.000 N 
ATOM     19  H   UNL     1      25.556   3.307  53.022  0.00  0.00    +0.000 HD
BRANCH  18  20
ATOM     20  C   UNL     1      27.170   2.372  52.066  0.00  0.00    +0.000 C 
BRANCH  20  21
ATOM     21  C   UNL     1      27.750   1.818  53.411  0.00  0.00    +0.000 C 
BRANCH  21  22
ATOM     22  N   UNL     1      27.616   0.362  53.639  0.00  0.00    +0.000 N 
ATOM     23  H   UNL     1      26.792   0.232  54.226  0.00  0.00    +0.000 HD
BRANCH  22  25
ATOM     24  C   UNL     1      26.688  -1.737  52.659  0.00  0.00    +0.000 C 
ATOM     25  C   UNL     1      27.332  -0.377  52.402  0.00  0.00    +0.000 C 
ENDBRANCH  22  25
BRANCH  22  26
ATOM     26  C   UNL     1      28.739  -0.193  54.419  0.00  0.00    +0.000 C 
ATOM     27  C   UNL     1      30.028  -0.532  53.668  0.00  0.00    +0.000 C 
ENDBRANCH  22  26
ENDBRANCH  21  22
ENDBRANCH  20  21
ENDBRANCH  18  20
ENDBRANCH   1  18
BRANCH   9  28
ATOM     28  O   UNL     1      18.806  -0.325  51.755  0.00  0.00    +0.000 OA
ATOM     29  C   UNL     1      17.720  -1.014  52.444  0.00  0.00    +0.000 C 
ENDBRANCH   9  28
TORSDOF 7
ENDMDL
MODEL 2
REMARK VINA RESULT:    -7.724      2.301      6.810
REMARK INTER + INTRA:         -11.878
REMARK INTER:                 -10.422
REMARK INTRA:                  -1.456
REMARK UNBOUND:                -0.994
REMARK  Name = 
REMARK  10 active torsions:
REMARK  status: ('A' for Active; 'I' for Inactive)
REMARK    1  A    between atoms: C_1  and  C_2
REMARK    2  A    between atoms: C_2  and  N_3
REMARK    3  A    between atoms: N_3  and  C_4
REMARK    4  A    between atoms: N_3  and  C_6
REMARK    5  A    between atoms: C_4  and  C_5
REMARK    6  A    between atoms: C_6  and  C_7
REMARK    7  A    between atoms: C_7  and  N_8
REMARK    8  A    between atoms: N_8  and  C_9
REMARK    9  A    between atoms: C_17  and  O_18
REMARK   10  A    between atoms: O_18  and  C_19
REMARK                            x       y       z     vdW  Elec       q    Type
REMARK                         _______ _______ _______ _____ _____    ______ ____
ROOT
ATOM      1  C   UNL     1      20.944   0.235  52.476  0.00  0.00    +0.000 A 
ATOM      2  C   UNL     1      20.244  -0.624  53.335  0.00  0.00    +0.000 A 
ATOM      3  C   UNL     1      20.891  -1.373  54.362  0.00  0.00    +0.000 A 
ATOM      4  C   UNL     1      22.265  -1.190  54.589  0.00  0.00    +0.000 A 
ATOM      5  N   UNL     1      23.150  -1.697  55.515  0.00  0.00    +0.000 NA
ATOM      6  C   UNL     1      24.319  -1.118  55.260  0.00  0.00    +0.000 A 
ATOM      7  N   UNL     1      24.243  -0.266  54.179  0.00  0.00    +0.000 N 
ATOM      8  C   UNL     1      25.175   0.567  53.468  0.00  0.00    +0.000 A 
ATOM      9  C   UNL     1      26.504   0.836  53.884  0.00  0.00    +0.000 A 
ATOM     10  C   UNL     1      27.195   1.694  53.056  0.00  0.00    +0.000 A 
ATOM     11  C   UNL     1      26.868   1.819  51.730  0.00  0.00    +0.000 A 
ATOM     12  C   UNL     1      25.551   1.729  51.386  0.00  0.00    +0.000 A 
ATOM     13  C   UNL     1      24.654   1.156  52.253  0.00  0.00    +0.000 A 
ATOM     14  C   UNL     1      23.256   1.090  51.857  0.00  0.00    +0.000 A 
ATOM     15  O   UNL     1      22.895   1.651  50.823  0.00  0.00    +0.000 OA
ATOM     16  C   UNL     1      22.327   0.325  52.685  0.00  0.00    +0.000 A 
ATOM     17  C   UNL     1      22.934  -0.337  53.750  0.00  0.00    +0.000 A 
ENDROOT
BRANCH   1  18
ATOM     18  N   UNL     1      20.331   0.979  51.482  0.00  0.00    +0.000 N 
ATOM     19  H   UNL     1      20.484   0.690  50.554  0.00  0.00    +0.000 HD
BRANCH  18  20
ATOM     20  C   UNL     1      19.482   2.150  51.675  0.00  0.00    +0.000 C 
BRANCH  20  21
ATOM     21  C   UNL     1      20.283   3.388  52.201  0.00  0.00    +0.000 C 
BRANCH  21  22
ATOM     22  N   UNL     1      21.175   4.060  51.230  0.00  0.00    +0.000 N 
ATOM     23  H   UNL     1      21.847   3.359  50.917  0.00  0.00    +0.000 HD
BRANCH  22  25
ATOM     24  C   UNL     1      21.094   3.936  48.739  0.00  0.00    +0.000 C 
ATOM     25  C   UNL     1      20.466   4.486  50.016  0.00  0.00    +0.000 C 
ENDBRANCH  22  25
BRANCH  22  26
ATOM     26  C   UNL     1      21.986   5.125  51.850  0.00  0.00    +0.000 C 
ATOM     27  C   UNL     1      23.246   4.709  52.611  0.00  0.00    +0.000 C 
ENDBRANCH  22  26
ENDBRANCH  21  22
ENDBRANCH  20  21
ENDBRANCH  18  20
ENDBRANCH   1  18
BRANCH   9  28
ATOM     28  O   UNL     1      27.117   0.357  55.002  0.00  0.00    +0.000 OA
ATOM     29  C   UNL     1      28.513   0.006  54.762  0.00  0.00    +0.000 C 
ENDBRANCH   9  28
TORSDOF 7
ENDMDL
MODEL 3
REMARK VINA RESULT:    -7.398      2.215      4.678
REMARK INTER + INTRA:         -11.418
REMARK INTER:                 -10.526
REMARK INTRA:                  -0.892
REMARK UNBOUND:                -0.994
REMARK  Name = 
REMARK  10 active torsions:
REMARK  status: ('A' for Active; 'I' for Inactive)
REMARK    1  A    between atoms: C_1  and  C_2
REMARK    2  A    between atoms: C_2  and  N_3
REMARK    3  A    between atoms: N_3  and  C_4
REMARK    4  A    between atoms: N_3  and  C_6
REMARK    5  A    between atoms: C_4  and  C_5
REMARK    6  A    between atoms: C_6  and  C_7
REMARK    7  A    between atoms: C_7  and  N_8
REMARK    8  A    between atoms: N_8  and  C_9
REMARK    9  A    between atoms: C_17  and  O_18
REMARK   10  A    between atoms: O_18  and  C_19
REMARK                            x       y       z     vdW  Elec       q    Type
REMARK                         _______ _______ _______ _____ _____    ______ ____
ROOT
ATOM      1  C   UNL     1      23.684   0.145  53.283  0.00  0.00    +0.000 A 
ATOM      2  C   UNL     1      22.514  -0.256  53.943  0.00  0.00    +0.000 A 
ATOM      3  C   UNL     1      21.270   0.421  53.774  0.00  0.00    +0.000 A 
ATOM      4  C   UNL     1      21.178   1.476  52.852  0.00  0.00    +0.000 A 
ATOM      5  N   UNL     1      20.139   2.271  52.420  0.00  0.00    +0.000 NA
ATOM      6  C   UNL     1      20.654   3.074  51.494  0.00  0.00    +0.000 A 
ATOM      7  N   UNL     1      22.003   2.855  51.318  0.00  0.00    +0.000 N 
ATOM      8  C   UNL     1      23.034   3.436  50.501  0.00  0.00    +0.000 A 
ATOM      9  C   UNL     1      22.813   4.374  49.460  0.00  0.00    +0.000 A 
ATOM     10  C   UNL     1      23.955   4.760  48.792  0.00  0.00    +0.000 A 
ATOM     11  C   UNL     1      25.185   4.707  49.398  0.00  0.00    +0.000 A 
ATOM     12  C   UNL     1      25.424   3.684  50.268  0.00  0.00    +0.000 A 
ATOM     13  C   UNL     1      24.374   2.981  50.805  0.00  0.00    +0.000 A 
ATOM     14  C   UNL     1      24.670   1.888  51.718  0.00  0.00    +0.000 A 
ATOM     15  O   UNL     1      25.839   1.545  51.890  0.00  0.00    +0.000 OA
ATOM     16  C   UNL     1      23.566   1.253  52.434  0.00  0.00    +0.000 A 
ATOM     17  C   UNL     1      22.328   1.848  52.204  0.00  0.00    +0.000 A 
ENDROOT
BRANCH   1  18
ATOM     18  N   UNL     1      24.897  -0.509  53.424  0.00  0.00    +0.000 N 
ATOM     19  H   UNL     1      25.336  -0.811  52.597  0.00  0.00    +0.000 HD
BRANCH  18  20
ATOM     20  C   UNL     1      25.587  -0.795  54.678  0.00  0.00    +0.000 C 
BRANCH  20  21
ATOM     21  C   UNL     1      26.853   0.105  54.880  0.00  0.00    +0.000 C 
BRANCH  21  22
ATOM     22  N   UNL     1      27.763   0.237  53.721  0.00  0.00    +0.000 N 
ATOM     23  H   UNL     1      27.239   0.719  52.991  0.00  0.00    +0.000 HD
BRANCH  22  25
ATOM     24  C   UNL     1      28.680   2.555  53.600  0.00  0.00    +0.000 C 
ATOM     25  C   UNL     1      28.915   1.103  54.007  0.00  0.00    +0.000 C 
ENDBRANCH  22  25
BRANCH  22  26
ATOM     26  C   UNL     1      28.130  -1.068  53.139  0.00  0.00    +0.000 C 
ATOM     27  C   UNL     1      29.513  -1.631  53.470  0.00  0.00    +0.000 C 
ENDBRANCH  22  26
ENDBRANCH  21  22
ENDBRANCH  20  21
ENDBRANCH  18  20
ENDBRANCH   1  18
BRANCH   9  28
ATOM     28  O   UNL     1      21.611   4.879  49.065  0.00  0.00    +0.000 OA
ATOM     29  C   UNL     1      21.714   5.656  47.835  0.00  0.00    +0.000 C 
ENDBRANCH   9  28
TORSDOF 7
ENDMDL
MODEL 4
REMARK VINA RESULT:    -7.327      3.185      5.295
REMARK INTER + INTRA:         -11.319
REMARK INTER:                 -10.675
REMARK INTRA:                  -0.644
REMARK UNBOUND:                -0.994
REMARK  Name = 
REMARK  10 active torsions:
REMARK  status: ('A' for Active; 'I' for Inactive)
REMARK    1  A    between atoms: C_1  and  C_2
REMARK    2  A    between atoms: C_2  and  N_3
REMARK    3  A    between atoms: N_3  and  C_4
REMARK    4  A    between atoms: N_3  and  C_6
REMARK    5  A    between atoms: C_4  and  C_5
REMARK    6  A    between atoms: C_6  and  C_7
REMARK    7  A    between atoms: C_7  and  N_8
REMARK    8  A    between atoms: N_8  and  C_9
REMARK    9  A    between atoms: C_17  and  O_18
REMARK   10  A    between atoms: O_18  and  C_19
REMARK                            x       y       z     vdW  Elec       q    Type
REMARK                         _______ _______ _______ _____ _____    ______ ____
ROOT
ATOM      1  C   UNL     1      25.252   4.018  49.906  0.00  0.00    +0.000 A 
ATOM      2  C   UNL     1      24.186   4.432  49.094  0.00  0.00    +0.000 A 
ATOM      3  C   UNL     1      22.935   3.747  49.067  0.00  0.00    +0.000 A 
ATOM      4  C   UNL     1      22.718   2.670  49.942  0.00  0.00    +0.000 A 
ATOM      5  N   UNL     1      21.633   1.862  50.202  0.00  0.00    +0.000 NA
ATOM      6  C   UNL     1      22.014   1.038  51.173  0.00  0.00    +0.000 A 
ATOM      7  N   UNL     1      23.323   1.256  51.545  0.00  0.00    +0.000 N 
ATOM      8  C   UNL     1      24.230   0.658  52.487  0.00  0.00    +0.000 A 
ATOM      9  C   UNL     1      23.868  -0.305  53.464  0.00  0.00    +0.000 A 
ATOM     10  C   UNL     1      24.905  -0.704  54.279  0.00  0.00    +0.000 A 
ATOM     11  C   UNL     1      26.208  -0.633  53.857  0.00  0.00    +0.000 A 
ATOM     12  C   UNL     1      26.563   0.411  53.055  0.00  0.00    +0.000 A 
ATOM     13  C   UNL     1      25.597   1.124  52.389  0.00  0.00    +0.000 A 
ATOM     14  C   UNL     1      26.014   2.239  51.554  0.00  0.00    +0.000 A 
ATOM     15  O   UNL     1      27.193   2.589  51.559  0.00  0.00    +0.000 OA
ATOM     16  C   UNL     1      25.020   2.889  50.702  0.00  0.00    +0.000 A 
ATOM     17  C   UNL     1      23.765   2.285  50.739  0.00  0.00    +0.000 A 
ENDROOT
BRANCH   1  18
ATOM     18  N   UNL     1      26.468   4.677  49.955  0.00  0.00    +0.000 N 
ATOM     19  H   UNL     1      26.816   4.901  50.848  0.00  0.00    +0.000 HD
BRANCH  18  20
ATOM     20  C   UNL     1      27.285   5.075  48.813  0.00  0.00    +0.000 C 
BRANCH  20  21
ATOM     21  C   UNL     1      27.098   6.586  48.443  0.00  0.00    +0.000 C 
BRANCH  21  22
ATOM     22  N   UNL     1      27.776   7.570  49.315  0.00  0.00    +0.000 N 
ATOM     23  H   UNL     1      28.193   7.043  50.082  0.00  0.00    +0.000 HD
BRANCH  22  25
ATOM     24  C   UNL     1      30.128   7.336  48.516  0.00  0.00    +0.000 C 
ATOM     25  C   UNL     1      28.901   8.235  48.644  0.00  0.00    +0.000 C 
ENDBRANCH  22  25
BRANCH  22  26
ATOM     26  C   UNL     1      26.831   8.504  49.956  0.00  0.00    +0.000 C 
ATOM     27  C   UNL     1      25.394   8.025  50.173  0.00  0.00    +0.000 C 
ENDBRANCH  22  26
ENDBRANCH  21  22
ENDBRANCH  20  21
ENDBRANCH  18  20
ENDBRANCH   1  18
BRANCH   9  28
ATOM     28  O   UNL     1      22.625  -0.822  53.670  0.00  0.00    +0.000 OA
ATOM     29  C   UNL     1      22.392  -1.162  55.070  0.00  0.00    +0.000 C 
ENDBRANCH   9  28
TORSDOF 7
ENDMDL
MODEL 5
REMARK VINA RESULT:    -7.125      2.362      4.789
REMARK INTER + INTRA:         -11.034
REMARK INTER:                 -10.443
REMARK INTRA:                  -0.591
REMARK UNBOUND:                -0.994
REMARK  Name = 
REMARK  10 active torsions:
REMARK  status: ('A' for Active; 'I' for Inactive)
REMARK    1  A    between atoms: C_1  and  C_2
REMARK    2  A    between atoms: C_2  and  N_3
REMARK    3  A    between atoms: N_3  and  C_4
REMARK    4  A    between atoms: N_3  and  C_6
REMARK    5  A    between atoms: C_4  and  C_5
REMARK    6  A    between atoms: C_6  and  C_7
REMARK    7  A    between atoms: C_7  and  N_8
REMARK    8  A    between atoms: N_8  and  C_9
REMARK    9  A    between atoms: C_17  and  O_18
REMARK   10  A    between atoms: O_18  and  C_19
REMARK                            x       y       z     vdW  Elec       q    Type
REMARK                         _______ _______ _______ _____ _____    ______ ____
ROOT
ATOM      1  C   UNL     1      25.228   1.041  52.127  0.00  0.00    +0.000 A 
ATOM      2  C   UNL     1      26.066   0.495  53.110  0.00  0.00    +0.000 A 
ATOM      3  C   UNL     1      25.562  -0.245  54.220  0.00  0.00    +0.000 A 
ATOM      4  C   UNL     1      24.187  -0.520  54.300  0.00  0.00    +0.000 A 
ATOM      5  N   UNL     1      23.413  -1.240  55.182  0.00  0.00    +0.000 NA
ATOM      6  C   UNL     1      22.171  -1.180  54.713  0.00  0.00    +0.000 A 
ATOM      7  N   UNL     1      22.093  -0.422  53.565  0.00  0.00    +0.000 N 
ATOM      8  C   UNL     1      21.034  -0.008  52.683  0.00  0.00    +0.000 A 
ATOM      9  C   UNL     1      19.701  -0.488  52.736  0.00  0.00    +0.000 A 
ATOM     10  C   UNL     1      18.873   0.028  51.763  0.00  0.00    +0.000 A 
ATOM     11  C   UNL     1      19.125   1.248  51.189  0.00  0.00    +0.000 A 
ATOM     12  C   UNL     1      20.427   1.604  50.993  0.00  0.00    +0.000 A 
ATOM     13  C   UNL     1      21.426   0.961  51.682  0.00  0.00    +0.000 A 
ATOM     14  C   UNL     1      22.803   1.359  51.436  0.00  0.00    +0.000 A 
ATOM     15  O   UNL     1      23.046   2.165  50.539  0.00  0.00    +0.000 OA
ATOM     16  C   UNL     1      23.855   0.813  52.290  0.00  0.00    +0.000 A 
ATOM     17  C   UNL     1      23.381   0.009  53.325  0.00  0.00    +0.000 A 
ENDROOT
BRANCH   1  18
ATOM     18  N   UNL     1      25.700   1.751  51.036  0.00  0.00    +0.000 N 
ATOM     19  H   UNL     1      25.409   1.444  50.148  0.00  0.00    +0.000 HD
BRANCH  18  20
ATOM     20  C   UNL     1      26.588   2.908  51.073  0.00  0.00    +0.000 C 
BRANCH  20  21
ATOM     21  C   UNL     1      26.494   3.774  49.771  0.00  0.00    +0.000 C 
BRANCH  21  22
ATOM     22  N   UNL     1      26.268   5.224  49.956  0.00  0.00    +0.000 N 
ATOM     23  H   UNL     1      26.784   5.497  50.793  0.00  0.00    +0.000 HD
BRANCH  22  25
ATOM     24  C   UNL     1      28.202   5.506  48.404  0.00  0.00    +0.000 C 
ATOM     25  C   UNL     1      26.844   6.026  48.868  0.00  0.00    +0.000 C 
ENDBRANCH  22  25
BRANCH  22  26
ATOM     26  C   UNL     1      24.858   5.545  50.248  0.00  0.00    +0.000 C 
ATOM     27  C   UNL     1      24.568   6.813  51.053  0.00  0.00    +0.000 C 
ENDBRANCH  22  26
ENDBRANCH  21  22
ENDBRANCH  20  21
ENDBRANCH  18  20
ENDBRANCH   1  18
BRANCH   9  28
ATOM     28  O   UNL     1      19.201  -1.400  53.616  0.00  0.00    +0.000 OA
ATOM     29  C   UNL     1      17.846  -1.817  53.271  0.00  0.00    +0.000 C 
ENDBRANCH   9  28
TORSDOF 7
ENDMDL
MODEL 6
REMARK VINA RESULT:    -7.089      1.748      2.691
REMARK INTER + INTRA:         -10.983
REMARK INTER:                 -10.503
REMARK INTRA:                  -0.480
REMARK UNBOUND:                -0.994
REMARK  Name = 
REMARK  10 active torsions:
REMARK  status: ('A' for Active; 'I' for Inactive)
REMARK    1  A    between atoms: C_1  and  C_2
REMARK    2  A    between atoms: C_2  and  N_3
REMARK    3  A    between atoms: N_3  and  C_4
REMARK    4  A    between atoms: N_3  and  C_6
REMARK    5  A    between atoms: C_4  and  C_5
REMARK    6  A    between atoms: C_6  and  C_7
REMARK    7  A    between atoms: C_7  and  N_8
REMARK    8  A    between atoms: N_8  and  C_9
REMARK    9  A    between atoms: C_17  and  O_18
REMARK   10  A    between atoms: O_18  and  C_19
REMARK                            x       y       z     vdW  Elec       q    Type
REMARK                         _______ _______ _______ _____ _____    ______ ____
ROOT
ATOM      1  C   UNL     1      23.230   0.365  53.010  0.00  0.00    +0.000 A 
ATOM      2  C   UNL     1      23.880   1.173  52.066  0.00  0.00    +0.000 A 
ATOM      3  C   UNL     1      23.226   1.659  50.896  0.00  0.00    +0.000 A 
ATOM      4  C   UNL     1      21.859   1.399  50.709  0.00  0.00    +0.000 A 
ATOM      5  N   UNL     1      20.944   1.769  49.748  0.00  0.00    +0.000 NA
ATOM      6  C   UNL     1      19.781   1.254  50.132  0.00  0.00    +0.000 A 
ATOM      7  N   UNL     1      19.900   0.535  51.301  0.00  0.00    +0.000 N 
ATOM      8  C   UNL     1      19.005  -0.234  52.124  0.00  0.00    +0.000 A 
ATOM      9  C   UNL     1      17.597  -0.288  51.960  0.00  0.00    +0.000 A 
ATOM     10  C   UNL     1      16.946  -1.065  52.894  0.00  0.00    +0.000 A 
ATOM     11  C   UNL     1      17.587  -2.096  53.532  0.00  0.00    +0.000 A 
ATOM     12  C   UNL     1      18.908  -1.937  53.832  0.00  0.00    +0.000 A 
ATOM     13  C   UNL     1      19.647  -0.976  53.188  0.00  0.00    +0.000 A 
ATOM     14  C   UNL     1      21.050  -0.828  53.544  0.00  0.00    +0.000 A 
ATOM     15  O   UNL     1      21.504  -1.474  54.487  0.00  0.00    +0.000 OA
ATOM     16  C   UNL     1      21.888   0.062  52.743  0.00  0.00    +0.000 A 
ATOM     17  C   UNL     1      21.233   0.619  51.648  0.00  0.00    +0.000 A 
ENDROOT
BRANCH   1  18
ATOM     18  N   UNL     1      23.844  -0.105  54.158  0.00  0.00    +0.000 N 
ATOM     19  H   UNL     1      23.365   0.035  55.006  0.00  0.00    +0.000 HD
BRANCH  18  20
ATOM     20  C   UNL     1      25.132  -0.787  54.235  0.00  0.00    +0.000 C 
BRANCH  20  21
ATOM     21  C   UNL     1      26.328   0.213  54.385  0.00  0.00    +0.000 C 
BRANCH  21  22
ATOM     22  N   UNL     1      27.687  -0.373  54.369  0.00  0.00    +0.000 N 
ATOM     23  H   UNL     1      27.688  -1.127  55.055  0.00  0.00    +0.000 HD
BRANCH  22  25
ATOM     24  C   UNL     1      29.110  -2.062  53.208  0.00  0.00    +0.000 C 
ATOM     25  C   UNL     1      28.007  -1.014  53.087  0.00  0.00    +0.000 C 
ENDBRANCH  22  25
BRANCH  22  26
ATOM     26  C   UNL     1      28.717   0.575  54.833  0.00  0.00    +0.000 C 
ATOM     27  C   UNL     1      28.934   1.848  54.012  0.00  0.00    +0.000 C 
ENDBRANCH  22  26
ENDBRANCH  21  22
ENDBRANCH  20  21
ENDBRANCH  18  20
ENDBRANCH   1  18
BRANCH   9  28
ATOM     28  O   UNL     1      16.865   0.362  51.012  0.00  0.00    +0.000 OA
ATOM     29  C   UNL     1      16.487  -0.514  49.908  0.00  0.00    +0.000 C 
ENDBRANCH   9  28
TORSDOF 7
ENDMDL
MODEL 7
REMARK VINA RESULT:    -7.008      2.507      5.221
REMARK INTER + INTRA:         -10.869
REMARK INTER:                  -9.865
REMARK INTRA:                  -1.004
REMARK UNBOUND:                -0.994
REMARK  Name = 
REMARK  10 active torsions:
REMARK  status: ('A' for Active; 'I' for Inactive)
REMARK    1  A    between atoms: C_1  and  C_2
REMARK    2  A    between atoms: C_2  and  N_3
REMARK    3  A    between atoms: N_3  and  C_4
REMARK    4  A    between atoms: N_3  and  C_6
REMARK    5  A    between atoms: C_4  and  C_5
REMARK    6  A    between atoms: C_6  and  C_7
REMARK    7  A    between atoms: C_7  and  N_8
REMARK    8  A    between atoms: N_8  and  C_9
REMARK    9  A    between atoms: C_17  and  O_18
REMARK   10  A    between atoms: O_18  and  C_19
REMARK                            x       y       z     vdW  Elec       q    Type
REMARK                         _______ _______ _______ _____ _____    ______ ____
ROOT
ATOM      1  C   UNL     1      26.141   2.626  51.665  0.00  0.00    +0.000 A 
ATOM      2  C   UNL     1      27.148   1.751  52.097  0.00  0.00    +0.000 A 
ATOM      3  C   UNL     1      26.866   0.568  52.840  0.00  0.00    +0.000 A 
ATOM      4  C   UNL     1      25.530   0.206  53.081  0.00  0.00    +0.000 A 
ATOM      5  N   UNL     1      24.935  -0.876  53.693  0.00  0.00    +0.000 NA
ATOM      6  C   UNL     1      23.625  -0.686  53.577  0.00  0.00    +0.000 A 
ATOM      7  N   UNL     1      23.333   0.497  52.933  0.00  0.00    +0.000 N 
ATOM      8  C   UNL     1      22.127   1.195  52.577  0.00  0.00    +0.000 A 
ATOM      9  C   UNL     1      20.817   0.665  52.694  0.00  0.00    +0.000 A 
ATOM     10  C   UNL     1      19.821   1.509  52.254  0.00  0.00    +0.000 A 
ATOM     11  C   UNL     1      19.996   2.870  52.245  0.00  0.00    +0.000 A 
ATOM     12  C   UNL     1      21.239   3.351  51.954  0.00  0.00    +0.000 A 
ATOM     13  C   UNL     1      22.334   2.529  52.054  0.00  0.00    +0.000 A 
ATOM     14  C   UNL     1      23.641   3.075  51.723  0.00  0.00    +0.000 A 
ATOM     15  O   UNL     1      23.718   4.208  51.250  0.00  0.00    +0.000 OA
ATOM     16  C   UNL     1      24.828   2.270  51.998  0.00  0.00    +0.000 A 
ATOM     17  C   UNL     1      24.556   1.064  52.641  0.00  0.00    +0.000 A 
ENDROOT
BRANCH   1  18
ATOM     18  N   UNL     1      26.396   3.773  50.931  0.00  0.00    +0.000 N 
ATOM     19  H   UNL     1      26.398   4.624  51.426  0.00  0.00    +0.000 HD
BRANCH  18  20
ATOM     20  C   UNL     1      26.661   3.845  49.498  0.00  0.00    +0.000 C 
BRANCH  20  21
ATOM     21  C   UNL     1      26.441   5.285  48.923  0.00  0.00    +0.000 C 
BRANCH  21  22
ATOM     22  N   UNL     1      25.255   6.021  49.415  0.00  0.00    +0.000 N 
ATOM     23  H   UNL     1      24.749   5.383  50.029  0.00  0.00    +0.000 HD
BRANCH  22  25
ATOM     24  C   UNL     1      26.693   8.049  49.635  0.00  0.00    +0.000 C 
ATOM     25  C   UNL     1      25.616   7.167  50.260  0.00  0.00    +0.000 C 
ENDBRANCH  22  25
BRANCH  22  26
ATOM     26  C   UNL     1      24.308   6.354  48.335  0.00  0.00    +0.000 C 
ATOM     27  C   UNL     1      23.181   5.359  48.045  0.00  0.00    +0.000 C 
ENDBRANCH  22  26
ENDBRANCH  21  22
ENDBRANCH  20  21
ENDBRANCH  18  20
ENDBRANCH   1  18
BRANCH   9  28
ATOM     28  O   UNL     1      20.481  -0.571  53.159  0.00  0.00    +0.000 OA
ATOM     29  C   UNL     1      19.037  -0.739  53.291  0.00  0.00    +0.000 C 
ENDBRANCH   9  28
TORSDOF 7
ENDMDL
MODEL 8
REMARK VINA RESULT:    -6.778      2.393      7.955
REMARK INTER + INTRA:         -10.546
REMARK INTER:                  -9.862
REMARK INTRA:                  -0.684
REMARK UNBOUND:                -0.994
REMARK  Name = 
REMARK  10 active torsions:
REMARK  status: ('A' for Active; 'I' for Inactive)
REMARK    1  A    between atoms: C_1  and  C_2
REMARK    2  A    between atoms: C_2  and  N_3
REMARK    3  A    between atoms: N_3  and  C_4
REMARK    4  A    between atoms: N_3  and  C_6
REMARK    5  A    between atoms: C_4  and  C_5
REMARK    6  A    between atoms: C_6  and  C_7
REMARK    7  A    between atoms: C_7  and  N_8
REMARK    8  A    between atoms: N_8  and  C_9
REMARK    9  A    between atoms: C_17  and  O_18
REMARK   10  A    between atoms: O_18  and  C_19
REMARK                            x       y       z     vdW  Elec       q    Type
REMARK                         _______ _______ _______ _____ _____    ______ ____
ROOT
ATOM      1  C   UNL     1      20.923   0.270  52.486  0.00  0.00    +0.000 A 
ATOM      2  C   UNL     1      20.226  -0.596  53.340  0.00  0.00    +0.000 A 
ATOM      3  C   UNL     1      20.876  -1.356  54.357  0.00  0.00    +0.000 A 
ATOM      4  C   UNL     1      22.251  -1.177  54.580  0.00  0.00    +0.000 A 
ATOM      5  N   UNL     1      23.139  -1.693  55.497  0.00  0.00    +0.000 NA
ATOM      6  C   UNL     1      24.308  -1.114  55.242  0.00  0.00    +0.000 A 
ATOM      7  N   UNL     1      24.229  -0.251  54.171  0.00  0.00    +0.000 N 
ATOM      8  C   UNL     1      25.158   0.589  53.464  0.00  0.00    +0.000 A 
ATOM      9  C   UNL     1      26.490   0.851  53.876  0.00  0.00    +0.000 A 
ATOM     10  C   UNL     1      27.178   1.717  53.054  0.00  0.00    +0.000 A 
ATOM     11  C   UNL     1      26.846   1.856  51.730  0.00  0.00    +0.000 A 
ATOM     12  C   UNL     1      25.527   1.770  51.392  0.00  0.00    +0.000 A 
ATOM     13  C   UNL     1      24.633   1.190  52.256  0.00  0.00    +0.000 A 
ATOM     14  C   UNL     1      23.233   1.129  51.866  0.00  0.00    +0.000 A 
ATOM     15  O   UNL     1      22.869   1.700  50.839  0.00  0.00    +0.000 OA
ATOM     16  C   UNL     1      22.307   0.357  52.691  0.00  0.00    +0.000 A 
ATOM     17  C   UNL     1      22.918  -0.316  53.746  0.00  0.00    +0.000 A 
ENDROOT
BRANCH   1  18
ATOM     18  N   UNL     1      20.307   1.025  51.503  0.00  0.00    +0.000 N 
ATOM     19  H   UNL     1      20.695   1.909  51.314  0.00  0.00    +0.000 HD
BRANCH  18  20
ATOM     20  C   UNL     1      19.137   0.641  50.720  0.00  0.00    +0.000 C 
BRANCH  20  21
ATOM     21  C   UNL     1      17.876   1.501  51.070  0.00  0.00    +0.000 C 
BRANCH  21  22
ATOM     22  N   UNL     1      16.838   0.849  51.899  0.00  0.00    +0.000 N 
ATOM     23  H   UNL     1      17.115   0.980  52.872  0.00  0.00    +0.000 HD
BRANCH  22  25
ATOM     24  C   UNL     1      15.525   2.637  50.757  0.00  0.00    +0.000 C 
ATOM     25  C   UNL     1      15.528   1.503  51.778  0.00  0.00    +0.000 C 
ENDBRANCH  22  25
BRANCH  22  26
ATOM     26  C   UNL     1      16.793  -0.612  51.702  0.00  0.00    +0.000 C 
ATOM     27  C   UNL     1      15.622  -1.187  50.903  0.00  0.00    +0.000 C 
ENDBRANCH  22  26
ENDBRANCH  21  22
ENDBRANCH  20  21
ENDBRANCH  18  20
ENDBRANCH   1  18
BRANCH   9  28
ATOM     28  O   UNL     1      27.107   0.361  54.987  0.00  0.00    +0.000 OA
ATOM     29  C   UNL     1      28.512   0.048  54.748  0.00  0.00    +0.000 C 
ENDBRANCH   9  28
TORSDOF 7
ENDMDL
MODEL 9
REMARK VINA RESULT:    -6.725      2.692      5.483
REMARK INTER + INTRA:         -10.470
REMARK INTER:                  -9.356
REMARK INTRA:                  -1.114
REMARK UNBOUND:                -0.994
REMARK  Name = 
REMARK  10 active torsions:
REMARK  status: ('A' for Active; 'I' for Inactive)
REMARK    1  A    between atoms: C_1  and  C_2
REMARK    2  A    between atoms: C_2  and  N_3
REMARK    3  A    between atoms: N_3  and  C_4
REMARK    4  A    between atoms: N_3  and  C_6
REMARK    5  A    between atoms: C_4  and  C_5
REMARK    6  A    between atoms: C_6  and  C_7
REMARK    7  A    between atoms: C_7  and  N_8
REMARK    8  A    between atoms: N_8  and  C_9
REMARK    9  A    between atoms: C_17  and  O_18
REMARK   10  A    between atoms: O_18  and  C_19
REMARK                            x       y       z     vdW  Elec       q    Type
REMARK                         _______ _______ _______ _____ _____    ______ ____
ROOT
ATOM      1  C   UNL     1      23.396   1.484  51.484  0.00  0.00    +0.000 A 
ATOM      2  C   UNL     1      24.503   1.113  52.260  0.00  0.00    +0.000 A 
ATOM      3  C   UNL     1      24.388   0.266  53.402  0.00  0.00    +0.000 A 
ATOM      4  C   UNL     1      23.141  -0.295  53.723  0.00  0.00    +0.000 A 
ATOM      5  N   UNL     1      22.719  -1.177  54.692  0.00  0.00    +0.000 NA
ATOM      6  C   UNL     1      21.423  -1.374  54.468  0.00  0.00    +0.000 A 
ATOM      7  N   UNL     1      20.969  -0.632  53.400  0.00  0.00    +0.000 N 
ATOM      8  C   UNL     1      19.698  -0.439  52.756  0.00  0.00    +0.000 A 
ATOM      9  C   UNL     1      18.527  -1.191  53.031  0.00  0.00    +0.000 A 
ATOM     10  C   UNL     1      17.437  -0.847  52.261  0.00  0.00    +0.000 A 
ATOM     11  C   UNL     1      17.317   0.407  51.719  0.00  0.00    +0.000 A 
ATOM     12  C   UNL     1      18.455   1.034  51.303  0.00  0.00    +0.000 A 
ATOM     13  C   UNL     1      19.679   0.607  51.756  0.00  0.00    +0.000 A 
ATOM     14  C   UNL     1      20.870   1.291  51.279  0.00  0.00    +0.000 A 
ATOM     15  O   UNL     1      20.763   2.144  50.399  0.00  0.00    +0.000 OA
ATOM     16  C   UNL     1      22.158   0.968  51.889  0.00  0.00    +0.000 A 
ATOM     17  C   UNL     1      22.070   0.066  52.947  0.00  0.00    +0.000 A 
ENDROOT
BRANCH   1  18
ATOM     18  N   UNL     1      23.490   2.295  50.366  0.00  0.00    +0.000 N 
ATOM     19  H   UNL     1      22.875   2.099  49.623  0.00  0.00    +0.000 HD
BRANCH  18  20
ATOM     20  C   UNL     1      24.413   3.410  50.178  0.00  0.00    +0.000 C 
BRANCH  20  21
ATOM     21  C   UNL     1      23.674   4.788  50.096  0.00  0.00    +0.000 C 
BRANCH  21  22
ATOM     22  N   UNL     1      22.204   4.742  49.936  0.00  0.00    +0.000 N 
ATOM     23  H   UNL     1      21.923   3.774  50.087  0.00  0.00    +0.000 HD
BRANCH  22  25
ATOM     24  C   UNL     1      21.756   7.016  50.863  0.00  0.00    +0.000 C 
ATOM     25  C   UNL     1      21.502   5.515  50.970  0.00  0.00    +0.000 C 
ENDBRANCH  22  25
BRANCH  22  26
ATOM     26  C   UNL     1      21.774   5.062  48.562  0.00  0.00    +0.000 C 
ATOM     27  C   UNL     1      21.933   3.975  47.496  0.00  0.00    +0.000 C 
ENDBRANCH  22  26
ENDBRANCH  21  22
ENDBRANCH  20  21
ENDBRANCH  18  20
ENDBRANCH   1  18
BRANCH   9  28
ATOM     28  O   UNL     1      18.406  -2.202  53.936  0.00  0.00    +0.000 OA
ATOM     29  C   UNL     1      17.431  -3.204  53.521  0.00  0.00    +0.000 C 
ENDBRANCH   9  28
TORSDOF 7
ENDMDL
