MODEL 1
REMARK VINA RESULT:    -9.056      0.000      0.000
REMARK INTER + INTRA:         -11.410
REMARK INTER:                 -10.909
REMARK INTRA:                  -0.501
REMARK UNBOUND:                -0.501
REMARK  Name = 
REMARK  9 active torsions:
REMARK  status: ('A' for Active; 'I' for Inactive)
REMARK    1  A    between atoms: C_1  and  C_2
REMARK    2  A    between atoms: C_2  and  C_3
REMARK    3  A    between atoms: C_3  and  C_4
REMARK    4  A    between atoms: C_16  and  C_17
REMARK    5  A    between atoms: C_16  and  C_18
REMARK    6  A    between atoms: C_22  and  C_23
REMARK    7  A    between atoms: C_23  and  C_24
REMARK    8  A    between atoms: C_25  and  C_26
REMARK    9  A    between atoms: C_27  and  O_28
REMARK                            x       y       z     vdW  Elec       q    Type
REMARK                         _______ _______ _______ _____ _____    ______ ____
ROOT
ATOM      1  C   UNL     1      22.149   0.406  52.800  0.00  0.00    +0.000 A 
ATOM      2  C   UNL     1      20.945   0.776  52.302  0.00  0.00    +0.000 A 
ATOM      3  C   UNL     1      20.468   2.160  52.372  0.00  0.00    +0.000 A 
ATOM      4  O   UNL     1      19.281   2.436  52.332  0.00  0.00    +0.000 OA
ATOM      5  O   UNL     1      21.441   3.103  52.551  0.00  0.00    +0.000 OA
ATOM      6  C   UNL     1      22.727   2.638  52.274  0.00  0.00    +0.000 A 
ATOM      7  C   UNL     1      23.413   3.249  51.257  0.00  0.00    +0.000 A 
ATOM      8  C   UNL     1      24.784   3.124  51.245  0.00  0.00    +0.000 A 
ATOM      9  C   UNL     1      25.400   2.282  52.193  0.00  0.00    +0.000 A 
ATOM     10  C   UNL     1      24.613   1.335  52.903  0.00  0.00    +0.000 A 
ATOM     11  C   UNL     1      23.210   1.459  52.846  0.00  0.00    +0.000 A 
ATOM     12  O   UNL     1      25.188   0.323  53.639  0.00  0.00    +0.000 OA
ATOM     13  C   UNL     1      26.639   0.189  53.656  0.00  0.00    +0.000 C 
ATOM     14  C   UNL     1      27.078  -0.047  55.111  0.00  0.00    +0.000 C 
ATOM     15  C   UNL     1      27.015  -1.042  52.818  0.00  0.00    +0.000 C 
ATOM     16  C   UNL     1      27.413   1.361  53.111  0.00  0.00    +0.000 C 
ATOM     17  C   UNL     1      26.846   2.332  52.386  0.00  0.00    +0.000 C 
ATOM     18  O   UNL     1      25.545   3.811  50.346  0.00  0.00    +0.000 OA
ATOM     19  C   UNL     1      24.933   4.318  49.145  0.00  0.00    +0.000 C 
ATOM     20  C   UNL     1      23.424   4.621  49.203  0.00  0.00    +0.000 C 
ATOM     21  C   UNL     1      22.789   4.757  47.806  0.00  0.00    +0.000 C 
ATOM     22  C   UNL     1      22.689   3.563  49.983  0.00  0.00    +0.000 C 
ENDROOT
BRANCH  19  23
ATOM     23  C   UNL     1      25.651   5.638  48.818  0.00  0.00    +0.000 C 
ATOM     24  C   UNL     1      27.159   5.499  48.755  0.00  0.00    +0.000 C 
ENDBRANCH  19  23
BRANCH  22  25
ATOM     25  O   UNL     1      21.342   3.988  50.132  0.00  0.00    +0.000 OA
ATOM     26  H   UNL     1      20.825   3.700  49.363  0.00  0.00    +0.000 HD
ENDBRANCH  22  25
BRANCH   1  27
ATOM     27  C   UNL     1      22.357  -1.070  52.986  0.00  0.00    +0.000 C 
BRANCH  27  29
ATOM     28  C   UNL     1      22.917  -1.457  55.431  0.00  0.00    +0.000 C 
ATOM     29  C   UNL     1      21.834  -1.516  54.360  0.00  0.00    +0.000 C 
ENDBRANCH  27  29
ENDBRANCH   1  27
TORSDOF 4
ENDMDL
MODEL 2
REMARK VINA RESULT:    -8.255      1.805      5.634
REMARK INTER + INTRA:         -10.445
REMARK INTER:                  -9.825
REMARK INTRA:                  -0.620
REMARK UNBOUND:                -0.501
REMARK  Name = 
REMARK  9 active torsions:
REMARK  status: ('A' for Active; 'I' for Inactive)
REMARK    1  A    between atoms: C_1  and  C_2
REMARK    2  A    between atoms: C_2  and  C_3
REMARK    3  A    between atoms: C_3  and  C_4
REMARK    4  A    between atoms: C_16  and  C_17
REMARK    5  A    between atoms: C_16  and  C_18
REMARK    6  A    between atoms: C_22  and  C_23
REMARK    7  A    between atoms: C_23  and  C_24
REMARK    8  A    between atoms: C_25  and  C_26
REMARK    9  A    between atoms: C_27  and  O_28
REMARK                            x       y       z     vdW  Elec       q    Type
REMARK                         _______ _______ _______ _____ _____    ______ ____
ROOT
ATOM      1  C   UNL     1      20.901   2.776  51.697  0.00  0.00    +0.000 A 
ATOM      2  C   UNL     1      20.164   1.860  52.369  0.00  0.00    +0.000 A 
ATOM      3  C   UNL     1      20.315   0.420  52.138  0.00  0.00    +0.000 A 
ATOM      4  O   UNL     1      19.422  -0.370  52.388  0.00  0.00    +0.000 OA
ATOM      5  O   UNL     1      21.497   0.044  51.565  0.00  0.00    +0.000 OA
ATOM      6  C   UNL     1      22.488   1.024  51.632  0.00  0.00    +0.000 A 
ATOM      7  C   UNL     1      23.629   0.721  52.330  0.00  0.00    +0.000 A 
ATOM      8  C   UNL     1      24.759   1.458  52.058  0.00  0.00    +0.000 A 
ATOM      9  C   UNL     1      24.662   2.557  51.180  0.00  0.00    +0.000 A 
ATOM     10  C   UNL     1      23.382   3.088  50.865  0.00  0.00    +0.000 A 
ATOM     11  C   UNL     1      22.243   2.332  51.209  0.00  0.00    +0.000 A 
ATOM     12  O   UNL     1      23.240   4.303  50.232  0.00  0.00    +0.000 OA
ATOM     13  C   UNL     1      24.427   5.088  49.917  0.00  0.00    +0.000 C 
ATOM     14  C   UNL     1      24.287   5.606  48.475  0.00  0.00    +0.000 C 
ATOM     15  C   UNL     1      24.475   6.287  50.874  0.00  0.00    +0.000 C 
ATOM     16  C   UNL     1      25.743   4.363  50.034  0.00  0.00    +0.000 C 
ATOM     17  C   UNL     1      25.872   3.189  50.663  0.00  0.00    +0.000 C 
ATOM     18  O   UNL     1      25.961   1.131  52.612  0.00  0.00    +0.000 OA
ATOM     19  C   UNL     1      25.994   0.312  53.796  0.00  0.00    +0.000 C 
ATOM     20  C   UNL     1      24.807  -0.643  54.019  0.00  0.00    +0.000 C 
ATOM     21  C   UNL     1      24.719  -1.158  55.468  0.00  0.00    +0.000 C 
ATOM     22  C   UNL     1      23.505   0.016  53.647  0.00  0.00    +0.000 C 
ENDROOT
BRANCH  19  23
ATOM     23  C   UNL     1      27.260  -0.553  53.689  0.00  0.00    +0.000 C 
ATOM     24  C   UNL     1      27.133  -1.679  52.682  0.00  0.00    +0.000 C 
ENDBRANCH  19  23
BRANCH  22  25
ATOM     25  O   UNL     1      22.482  -0.966  53.723  0.00  0.00    +0.000 OA
ATOM     26  H   UNL     1      22.356  -1.370  52.850  0.00  0.00    +0.000 HD
ENDBRANCH  22  25
BRANCH   1  27
ATOM     27  C   UNL     1      20.406   4.192  51.762  0.00  0.00    +0.000 C 
BRANCH  27  29
ATOM     28  C   UNL     1      20.233   5.905  49.897  0.00  0.00    +0.000 C 
ATOM     29  C   UNL     1      19.716   4.580  50.445  0.00  0.00    +0.000 C 
ENDBRANCH  27  29
ENDBRANCH   1  27
TORSDOF 4
ENDMDL
MODEL 3
REMARK VINA RESULT:    -8.252      1.530      6.943
REMARK INTER + INTRA:         -10.442
REMARK INTER:                 -10.172
REMARK INTRA:                  -0.270
REMARK UNBOUND:                -0.501
REMARK  Name = 
REMARK  9 active torsions:
REMARK  status: ('A' for Active; 'I' for Inactive)
REMARK    1  A    between atoms: C_1  and  C_2
REMARK    2  A    between atoms: C_2  and  C_3
REMARK    3  A    between atoms: C_3  and  C_4
REMARK    4  A    between atoms: C_16  and  C_17
REMARK    5  A    between atoms: C_16  and  C_18
REMARK    6  A    between atoms: C_22  and  C_23
REMARK    7  A    between atoms: C_23  and  C_24
REMARK    8  A    between atoms: C_25  and  C_26
REMARK    9  A    between atoms: C_27  and  O_28
REMARK                            x       y       z     vdW  Elec       q    Type
REMARK                         _______ _______ _______ _____ _____    ______ ____
ROOT
ATOM      1  C   UNL     1      25.951   2.960  50.909  0.00  0.00    +0.000 A 
ATOM      2  C   UNL     1      26.707   2.129  51.665  0.00  0.00    +0.000 A 
ATOM      3  C   UNL     1      26.516   2.007  53.114  0.00  0.00    +0.000 A 
ATOM      4  O   UNL     1      27.407   1.624  53.852  0.00  0.00    +0.000 OA
ATOM      5  O   UNL     1      25.297   2.416  53.576  0.00  0.00    +0.000 OA
ATOM      6  C   UNL     1      24.330   2.531  52.576  0.00  0.00    +0.000 A 
ATOM      7  C   UNL     1      23.225   1.724  52.672  0.00  0.00    +0.000 A 
ATOM      8  C   UNL     1      22.095   2.104  51.983  0.00  0.00    +0.000 A 
ATOM      9  C   UNL     1      22.164   3.219  51.124  0.00  0.00    +0.000 A 
ATOM     10  C   UNL     1      23.433   3.715  50.721  0.00  0.00    +0.000 A 
ATOM     11  C   UNL     1      24.575   3.261  51.412  0.00  0.00    +0.000 A 
ATOM     12  O   UNL     1      23.562   4.622  49.693  0.00  0.00    +0.000 OA
ATOM     13  C   UNL     1      22.374   5.053  48.966  0.00  0.00    +0.000 C 
ATOM     14  C   UNL     1      22.443   6.581  48.805  0.00  0.00    +0.000 C 
ATOM     15  C   UNL     1      22.404   4.403  47.576  0.00  0.00    +0.000 C 
ATOM     16  C   UNL     1      21.054   4.702  49.602  0.00  0.00    +0.000 C 
ATOM     17  C   UNL     1      20.939   3.809  50.591  0.00  0.00    +0.000 C 
ATOM     18  O   UNL     1      20.920   1.429  52.134  0.00  0.00    +0.000 OA
ATOM     19  C   UNL     1      20.939   0.085  52.652  0.00  0.00    +0.000 C 
ATOM     20  C   UNL     1      22.119  -0.295  53.565  0.00  0.00    +0.000 C 
ATOM     21  C   UNL     1      22.279  -1.819  53.730  0.00  0.00    +0.000 C 
ATOM     22  C   UNL     1      23.410   0.287  53.053  0.00  0.00    +0.000 C 
ENDROOT
BRANCH  19  23
ATOM     23  C   UNL     1      19.653  -0.077  53.477  0.00  0.00    +0.000 C 
ATOM     24  C   UNL     1      18.524  -0.733  52.705  0.00  0.00    +0.000 C 
ENDBRANCH  19  23
BRANCH  22  25
ATOM     25  O   UNL     1      24.417   0.034  54.022  0.00  0.00    +0.000 OA
ATOM     26  H   UNL     1      25.291   0.174  53.624  0.00  0.00    +0.000 HD
ENDBRANCH  22  25
BRANCH   1  27
ATOM     27  C   UNL     1      26.475   3.254  49.533  0.00  0.00    +0.000 C 
BRANCH  27  29
ATOM     28  C   UNL     1      27.997   5.024  48.536  0.00  0.00    +0.000 C 
ATOM     29  C   UNL     1      26.754   4.757  49.376  0.00  0.00    +0.000 C 
ENDBRANCH  27  29
ENDBRANCH   1  27
TORSDOF 4
ENDMDL
MODEL 4
REMARK VINA RESULT:    -8.151      1.989      5.658
REMARK INTER + INTRA:         -10.320
REMARK INTER:                  -9.832
REMARK INTRA:                  -0.488
REMARK UNBOUND:                -0.501
REMARK  Name = 
REMARK  9 active torsions:
REMARK  status: ('A' for Active; 'I' for Inactive)
REMARK    1  A    between atoms: C_1  and  C_2
REMARK    2  A    between atoms: C_2  and  C_3
REMARK    3  A    between atoms: C_3  and  C_4
REMARK    4  A    between atoms: C_16  and  C_17
REMARK    5  A    between atoms: C_16  and  C_18
REMARK    6  A    between atoms: C_22  and  C_23
REMARK    7  A    between atoms: C_23  and  C_24
REMARK    8  A    between atoms: C_25  and  C_26
REMARK    9  A    between atoms: C_27  and  O_28
REMARK                            x       y       z     vdW  Elec       q    Type
REMARK                         _______ _______ _______ _____ _____    ______ ____
ROOT
ATOM      1  C   UNL     1      23.928   3.290  49.683  0.00  0.00    +0.000 A 
ATOM      2  C   UNL     1      23.059   3.828  48.796  0.00  0.00    +0.000 A 
ATOM      3  C   UNL     1      22.190   2.996  47.957  0.00  0.00    +0.000 A 
ATOM      4  O   UNL     1      21.735   3.399  46.901  0.00  0.00    +0.000 OA
ATOM      5  O   UNL     1      21.985   1.724  48.414  0.00  0.00    +0.000 OA
ATOM      6  C   UNL     1      22.328   1.551  49.756  0.00  0.00    +0.000 A 
ATOM      7  C   UNL     1      21.328   1.186  50.620  0.00  0.00    +0.000 A 
ATOM      8  C   UNL     1      21.694   0.600  51.811  0.00  0.00    +0.000 A 
ATOM      9  C   UNL     1      23.063   0.517  52.137  0.00  0.00    +0.000 A 
ATOM     10  C   UNL     1      24.000   1.317  51.428  0.00  0.00    +0.000 A 
ATOM     11  C   UNL     1      23.575   1.949  50.242  0.00  0.00    +0.000 A 
ATOM     12  O   UNL     1      25.295   1.472  51.868  0.00  0.00    +0.000 OA
ATOM     13  C   UNL     1      25.708   0.841  53.116  0.00  0.00    +0.000 C 
ATOM     14  C   UNL     1      27.072   0.171  52.883  0.00  0.00    +0.000 C 
ATOM     15  C   UNL     1      25.867   1.939  54.177  0.00  0.00    +0.000 C 
ATOM     16  C   UNL     1      24.761  -0.192  53.672  0.00  0.00    +0.000 C 
ATOM     17  C   UNL     1      23.500  -0.326  53.246  0.00  0.00    +0.000 C 
ATOM     18  O   UNL     1      20.757   0.092  52.661  0.00  0.00    +0.000 OA
ATOM     19  C   UNL     1      19.391   0.534  52.552  0.00  0.00    +0.000 C 
ATOM     20  C   UNL     1      18.925   1.034  51.172  0.00  0.00    +0.000 C 
ATOM     21  C   UNL     1      17.621   1.852  51.243  0.00  0.00    +0.000 C 
ATOM     22  C   UNL     1      19.994   1.861  50.508  0.00  0.00    +0.000 C 
ENDROOT
BRANCH  19  23
ATOM     23  C   UNL     1      18.515  -0.676  52.917  0.00  0.00    +0.000 C 
ATOM     24  C   UNL     1      19.265  -1.751  53.679  0.00  0.00    +0.000 C 
ENDBRANCH  19  23
BRANCH  22  25
ATOM     25  O   UNL     1      19.563   2.150  49.186  0.00  0.00    +0.000 OA
ATOM     26  H   UNL     1      18.867   1.525  48.928  0.00  0.00    +0.000 HD
ENDBRANCH  22  25
BRANCH   1  27
ATOM     27  C   UNL     1      24.990   4.215  50.205  0.00  0.00    +0.000 C 
BRANCH  27  29
ATOM     28  C   UNL     1      26.855   5.147  48.758  0.00  0.00    +0.000 C 
ATOM     29  C   UNL     1      26.333   3.932  49.515  0.00  0.00    +0.000 C 
ENDBRANCH  27  29
ENDBRANCH   1  27
TORSDOF 4
ENDMDL
MODEL 5
REMARK VINA RESULT:    -8.096      2.384      6.220
REMARK INTER + INTRA:         -10.253
REMARK INTER:                  -9.817
REMARK INTRA:                  -0.436
REMARK UNBOUND:                -0.501
REMARK  Name = 
REMARK  9 active torsions:
REMARK  status: ('A' for Active; 'I' for Inactive)
REMARK    1  A    between atoms: C_1  and  C_2
REMARK    2  A    between atoms: C_2  and  C_3
REMARK    3  A    between atoms: C_3  and  C_4
REMARK    4  A    between atoms: C_16  and  C_17
REMARK    5  A    between atoms: C_16  and  C_18
REMARK    6  A    between atoms: C_22  and  C_23
REMARK    7  A    between atoms: C_23  and  C_24
REMARK    8  A    between atoms: C_25  and  C_26
REMARK    9  A    between atoms: C_27  and  O_28
REMARK                            x       y       z     vdW  Elec       q    Type
REMARK                         _______ _______ _______ _____ _____    ______ ____
ROOT
ATOM      1  C   UNL     1      23.551   0.490  52.981  0.00  0.00    +0.000 A 
ATOM      2  C   UNL     1      23.316  -0.720  53.539  0.00  0.00    +0.000 A 
ATOM      3  C   UNL     1      22.359  -0.899  54.635  0.00  0.00    +0.000 A 
ATOM      4  O   UNL     1      22.434  -1.836  55.411  0.00  0.00    +0.000 OA
ATOM      5  O   UNL     1      21.426   0.092  54.760  0.00  0.00    +0.000 OA
ATOM      6  C   UNL     1      21.313   0.899  53.627  0.00  0.00    +0.000 A 
ATOM      7  C   UNL     1      20.103   0.913  52.982  0.00  0.00    +0.000 A 
ATOM      8  C   UNL     1      19.829   1.984  52.161  0.00  0.00    +0.000 A 
ATOM      9  C   UNL     1      20.839   2.939  51.927  0.00  0.00    +0.000 A 
ATOM     10  C   UNL     1      22.188   2.623  52.245  0.00  0.00    +0.000 A 
ATOM     11  C   UNL     1      22.436   1.486  53.040  0.00  0.00    +0.000 A 
ATOM     12  O   UNL     1      23.236   3.400  51.804  0.00  0.00    +0.000 OA
ATOM     13  C   UNL     1      22.963   4.551  50.952  0.00  0.00    +0.000 C 
ATOM     14  C   UNL     1      23.793   5.736  51.474  0.00  0.00    +0.000 C 
ATOM     15  C   UNL     1      23.423   4.211  49.528  0.00  0.00    +0.000 C 
ATOM     16  C   UNL     1      21.521   4.981  50.872  0.00  0.00    +0.000 C 
ATOM     17  C   UNL     1      20.510   4.211  51.291  0.00  0.00    +0.000 C 
ATOM     18  O   UNL     1      18.600   2.137  51.592  0.00  0.00    +0.000 OA
ATOM     19  C   UNL     1      17.729   0.996  51.477  0.00  0.00    +0.000 C 
ATOM     20  C   UNL     1      17.919  -0.136  52.503  0.00  0.00    +0.000 C 
ATOM     21  C   UNL     1      17.254  -1.455  52.066  0.00  0.00    +0.000 C 
ATOM     22  C   UNL     1      19.380  -0.383  52.771  0.00  0.00    +0.000 C 
ENDROOT
BRANCH  19  23
ATOM     23  C   UNL     1      16.296   1.528  51.646  0.00  0.00    +0.000 C 
ATOM     24  C   UNL     1      16.230   3.034  51.801  0.00  0.00    +0.000 C 
ENDBRANCH  19  23
BRANCH  22  25
ATOM     25  O   UNL     1      19.476  -1.318  53.836  0.00  0.00    +0.000 OA
ATOM     26  H   UNL     1      18.874  -2.060  53.670  0.00  0.00    +0.000 HD
ENDBRANCH  22  25
BRANCH   1  27
ATOM     27  C   UNL     1      24.787   0.595  52.135  0.00  0.00    +0.000 C 
BRANCH  27  29
ATOM     28  C   UNL     1      26.884  -0.794  52.476  0.00  0.00    +0.000 C 
ATOM     29  C   UNL     1      26.043   0.368  52.990  0.00  0.00    +0.000 C 
ENDBRANCH  27  29
ENDBRANCH   1  27
TORSDOF 4
ENDMDL
MODEL 6
REMARK VINA RESULT:    -7.731      1.953      6.527
REMARK INTER + INTRA:          -9.814
REMARK INTER:                  -9.127
REMARK INTRA:                  -0.687
REMARK UNBOUND:                -0.501
REMARK  Name = 
REMARK  9 active torsions:
REMARK  status: ('A' for Active; 'I' for Inactive)
REMARK    1  A    between atoms: C_1  and  C_2
REMARK    2  A    between atoms: C_2  and  C_3
REMARK    3  A    between atoms: C_3  and  C_4
REMARK    4  A    between atoms: C_16  and  C_17
REMARK    5  A    between atoms: C_16  and  C_18
REMARK    6  A    between atoms: C_22  and  C_23
REMARK    7  A    between atoms: C_23  and  C_24
REMARK    8  A    between atoms: C_25  and  C_26
REMARK    9  A    between atoms: C_27  and  O_28
REMARK                            x       y       z     vdW  Elec       q    Type
REMARK                         _______ _______ _______ _____ _____    ______ ____
ROOT
ATOM      1  C   UNL     1      21.435   4.042  50.200  0.00  0.00    +0.000 A 
ATOM      2  C   UNL     1      22.608   4.709  50.100  0.00  0.00    +0.000 A 
ATOM      3  C   UNL     1      23.351   5.157  51.283  0.00  0.00    +0.000 A 
ATOM      4  O   UNL     1      24.140   6.085  51.236  0.00  0.00    +0.000 OA
ATOM      5  O   UNL     1      23.044   4.505  52.444  0.00  0.00    +0.000 OA
ATOM      6  C   UNL     1      22.362   3.303  52.246  0.00  0.00    +0.000 A 
ATOM      7  C   UNL     1      22.973   2.153  52.677  0.00  0.00    +0.000 A 
ATOM      8  C   UNL     1      22.179   1.050  52.893  0.00  0.00    +0.000 A 
ATOM      9  C   UNL     1      20.814   1.115  52.547  0.00  0.00    +0.000 A 
ATOM     10  C   UNL     1      20.358   2.153  51.690  0.00  0.00    +0.000 A 
ATOM     11  C   UNL     1      21.220   3.241  51.445  0.00  0.00    +0.000 A 
ATOM     12  O   UNL     1      19.108   2.119  51.115  0.00  0.00    +0.000 OA
ATOM     13  C   UNL     1      18.244   0.969  51.350  0.00  0.00    +0.000 C 
ATOM     14  C   UNL     1      16.833   1.490  51.671  0.00  0.00    +0.000 C 
ATOM     15  C   UNL     1      18.186   0.142  50.057  0.00  0.00    +0.000 C 
ATOM     16  C   UNL     1      18.672   0.043  52.460  0.00  0.00    +0.000 C 
ATOM     17  C   UNL     1      19.894   0.077  53.003  0.00  0.00    +0.000 C 
ATOM     18  O   UNL     1      22.690  -0.086  53.446  0.00  0.00    +0.000 OA
ATOM     19  C   UNL     1      24.112  -0.312  53.409  0.00  0.00    +0.000 C 
ATOM     20  C   UNL     1      25.016   0.932  53.338  0.00  0.00    +0.000 C 
ATOM     21  C   UNL     1      26.454   0.601  52.894  0.00  0.00    +0.000 C 
ATOM     22  C   UNL     1      24.437   1.970  52.413  0.00  0.00    +0.000 C 
ENDROOT
BRANCH  19  23
ATOM     23  C   UNL     1      24.465  -1.058  54.706  0.00  0.00    +0.000 C 
ATOM     24  C   UNL     1      23.254  -1.382  55.559  0.00  0.00    +0.000 C 
ENDBRANCH  19  23
BRANCH  22  25
ATOM     25  O   UNL     1      25.231   3.142  52.520  0.00  0.00    +0.000 OA
ATOM     26  H   UNL     1      24.746   3.817  53.021  0.00  0.00    +0.000 HD
ENDBRANCH  22  25
BRANCH   1  27
ATOM     27  C   UNL     1      20.617   3.961  48.944  0.00  0.00    +0.000 C 
BRANCH  27  29
ATOM     28  C   UNL     1      21.404   1.639  48.286  0.00  0.00    +0.000 C 
ATOM     29  C   UNL     1      21.338   3.109  47.888  0.00  0.00    +0.000 C 
ENDBRANCH  27  29
ENDBRANCH   1  27
TORSDOF 4
ENDMDL
MODEL 7
REMARK VINA RESULT:    -7.597      2.114      6.297
REMARK INTER + INTRA:          -9.652
REMARK INTER:                  -9.344
REMARK INTRA:                  -0.308
REMARK UNBOUND:                -0.501
REMARK  Name = 
REMARK  9 active torsions:
REMARK  status: ('A' for Active; 'I' for Inactive)
REMARK    1  A    between atoms: C_1  and  C_2
REMARK    2  A    between atoms: C_2  and  C_3
REMARK    3  A    between atoms: C_3  and  C_4
REMARK    4  A    between atoms: C_16  and  C_17
REMARK    5  A    between atoms: C_16  and  C_18
REMARK    6  A    between atoms: C_22  and  C_23
REMARK    7  A    between atoms: C_23  and  C_24
REMARK    8  A    between atoms: C_25  and  C_26
REMARK    9  A    between atoms: C_27  and  O_28
REMARK                            x       y       z     vdW  Elec       q    Type
REMARK                         _______ _______ _______ _____ _____    ______ ____
ROOT
ATOM      1  C   UNL     1      22.038   5.878  49.813  0.00  0.00    +0.000 A 
ATOM      2  C   UNL     1      20.975   5.214  50.323  0.00  0.00    +0.000 A 
ATOM      3  C   UNL     1      20.652   3.840  49.926  0.00  0.00    +0.000 A 
ATOM      4  O   UNL     1      19.525   3.387  50.025  0.00  0.00    +0.000 OA
ATOM      5  O   UNL     1      21.687   3.134  49.380  0.00  0.00    +0.000 OA
ATOM      6  C   UNL     1      22.940   3.700  49.624  0.00  0.00    +0.000 A 
ATOM      7  C   UNL     1      23.838   2.955  50.344  0.00  0.00    +0.000 A 
ATOM      8  C   UNL     1      25.172   3.278  50.231  0.00  0.00    +0.000 A 
ATOM      9  C   UNL     1      25.536   4.421  49.491  0.00  0.00    +0.000 A 
ATOM     10  C   UNL     1      24.547   5.390  49.170  0.00  0.00    +0.000 A 
ATOM     11  C   UNL     1      23.192   5.046  49.352  0.00  0.00    +0.000 A 
ATOM     12  O   UNL     1      24.885   6.634  48.684  0.00  0.00    +0.000 OA
ATOM     13  C   UNL     1      26.292   6.986  48.537  0.00  0.00    +0.000 C 
ATOM     14  C   UNL     1      26.474   7.655  47.164  0.00  0.00    +0.000 C 
ATOM     15  C   UNL     1      26.648   7.997  49.635  0.00  0.00    +0.000 C 
ATOM     16  C   UNL     1      27.268   5.843  48.640  0.00  0.00    +0.000 C 
ATOM     17  C   UNL     1      26.932   4.642  49.126  0.00  0.00    +0.000 C 
ATOM     18  O   UNL     1      26.133   2.503  50.809  0.00  0.00    +0.000 OA
ATOM     19  C   UNL     1      25.773   1.615  51.883  0.00  0.00    +0.000 C 
ATOM     20  C   UNL     1      24.318   1.113  51.918  0.00  0.00    +0.000 C 
ATOM     21  C   UNL     1      23.923   0.524  53.286  0.00  0.00    +0.000 C 
ATOM     22  C   UNL     1      23.357   2.214  51.555  0.00  0.00    +0.000 C 
ENDROOT
BRANCH  19  23
ATOM     23  C   UNL     1      26.678   0.380  51.743  0.00  0.00    +0.000 C 
ATOM     24  C   UNL     1      27.556   0.139  52.956  0.00  0.00    +0.000 C 
ENDBRANCH  19  23
BRANCH  22  25
ATOM     25  O   UNL     1      22.061   1.645  51.450  0.00  0.00    +0.000 OA
ATOM     26  H   UNL     1      21.394   2.315  51.668  0.00  0.00    +0.000 HD
ENDBRANCH  22  25
BRANCH   1  27
ATOM     27  C   UNL     1      22.046   7.365  50.023  0.00  0.00    +0.000 C 
BRANCH  27  29
ATOM     28  C   UNL     1      20.749   9.485  49.510  0.00  0.00    +0.000 C 
ATOM     29  C   UNL     1      20.686   7.968  49.641  0.00  0.00    +0.000 C 
ENDBRANCH  27  29
ENDBRANCH   1  27
TORSDOF 4
ENDMDL
MODEL 8
REMARK VINA RESULT:    -7.299      3.232      6.383
REMARK INTER + INTRA:          -9.293
REMARK INTER:                  -8.692
REMARK INTRA:                  -0.601
REMARK UNBOUND:                -0.501
REMARK  Name = 
REMARK  9 active torsions:
REMARK  status: ('A' for Active; 'I' for Inactive)
REMARK    1  A    between atoms: C_1  and  C_2
REMARK    2  A    between atoms: C_2  and  C_3
REMARK    3  A    between atoms: C_3  and  C_4
REMARK    4  A    between atoms: C_16  and  C_17
REMARK    5  A    between atoms: C_16  and  C_18
REMARK    6  A    between atoms: C_22  and  C_23
REMARK    7  A    between atoms: C_23  and  C_24
REMARK    8  A    between atoms: C_25  and  C_26
REMARK    9  A    between atoms: C_27  and  O_28
REMARK                            x       y       z     vdW  Elec       q    Type
REMARK                         _______ _______ _______ _____ _____    ______ ____
ROOT
ATOM      1  C   UNL     1      22.591   1.922  50.613  0.00  0.00    +0.000 A 
ATOM      2  C   UNL     1      22.705   2.686  49.501  0.00  0.00    +0.000 A 
ATOM      3  C   UNL     1      22.210   2.236  48.195  0.00  0.00    +0.000 A 
ATOM      4  O   UNL     1      22.655   2.677  47.150  0.00  0.00    +0.000 OA
ATOM      5  O   UNL     1      21.268   1.248  48.240  0.00  0.00    +0.000 OA
ATOM      6  C   UNL     1      20.679   1.092  49.496  0.00  0.00    +0.000 A 
ATOM      7  C   UNL     1      19.329   1.308  49.590  0.00  0.00    +0.000 A 
ATOM      8  C   UNL     1      18.667   0.759  50.665  0.00  0.00    +0.000 A 
ATOM      9  C   UNL     1      19.417   0.115  51.670  0.00  0.00    +0.000 A 
ATOM     10  C   UNL     1      20.820   0.331  51.743  0.00  0.00    +0.000 A 
ATOM     11  C   UNL     1      21.456   0.948  50.647  0.00  0.00    +0.000 A 
ATOM     12  O   UNL     1      21.554  -0.055  52.841  0.00  0.00    +0.000 OA
ATOM     13  C   UNL     1      20.874  -0.659  53.980  0.00  0.00    +0.000 C 
ATOM     14  C   UNL     1      21.688  -1.885  54.426  0.00  0.00    +0.000 C 
ATOM     15  C   UNL     1      20.853   0.367  55.123  0.00  0.00    +0.000 C 
ATOM     16  C   UNL     1      19.452  -1.095  53.739  0.00  0.00    +0.000 C 
ATOM     17  C   UNL     1      18.743  -0.704  52.674  0.00  0.00    +0.000 C 
ATOM     18  O   UNL     1      17.308   0.817  50.758  0.00  0.00    +0.000 OA
ATOM     19  C   UNL     1      16.589   1.803  49.993  0.00  0.00    +0.000 C 
ATOM     20  C   UNL     1      17.251   2.300  48.694  0.00  0.00    +0.000 C 
ATOM     21  C   UNL     1      16.635   3.613  48.175  0.00  0.00    +0.000 C 
ATOM     22  C   UNL     1      18.734   2.487  48.880  0.00  0.00    +0.000 C 
ENDROOT
BRANCH  19  23
ATOM     23  C   UNL     1      15.250   1.156  49.604  0.00  0.00    +0.000 C 
ATOM     24  C   UNL     1      15.411  -0.175  48.896  0.00  0.00    +0.000 C 
ENDBRANCH  19  23
BRANCH  22  25
ATOM     25  O   UNL     1      19.297   2.786  47.611  0.00  0.00    +0.000 OA
ATOM     26  H   UNL     1      19.079   3.700  47.368  0.00  0.00    +0.000 HD
ENDBRANCH  22  25
BRANCH   1  27
ATOM     27  C   UNL     1      23.441   2.333  51.781  0.00  0.00    +0.000 C 
BRANCH  27  29
ATOM     28  C   UNL     1      24.892   0.472  52.715  0.00  0.00    +0.000 C 
ATOM     29  C   UNL     1      24.805   1.628  51.725  0.00  0.00    +0.000 C 
ENDBRANCH  27  29
ENDBRANCH   1  27
TORSDOF 4
ENDMDL
MODEL 9
REMARK VINA RESULT:    -7.260      1.807      4.851
REMARK INTER + INTRA:          -9.246
REMARK INTER:                  -8.660
REMARK INTRA:                  -0.587
REMARK UNBOUND:                -0.501
REMARK  Name = 
REMARK  9 active torsions:
REMARK  status: ('A' for Active; 'I' for Inactive)
REMARK    1  A    between atoms: C_1  and  C_2
REMARK    2  A    between atoms: C_2  and  C_3
REMARK    3  A    between atoms: C_3  and  C_4
REMARK    4  A    between atoms: C_16  and  C_17
REMARK    5  A    between atoms: C_16  and  C_18
REMARK    6  A    between atoms: C_22  and  C_23
REMARK    7  A    between atoms: C_23  and  C_24
REMARK    8  A    between atoms: C_25  and  C_26
REMARK    9  A    between atoms: C_27  and  O_28
REMARK                            x       y       z     vdW  Elec       q    Type
REMARK                         _______ _______ _______ _____ _____    ______ ____
ROOT
ATOM      1  C   UNL     1      25.321   1.787  52.223  0.00  0.00    +0.000 A 
ATOM      2  C   UNL     1      26.121   2.734  51.680  0.00  0.00    +0.000 A 
ATOM      3  C   UNL     1      26.016   3.125  50.270  0.00  0.00    +0.000 A 
ATOM      4  O   UNL     1      26.950   3.628  49.669  0.00  0.00    +0.000 OA
ATOM      5  O   UNL     1      24.826   2.825  49.670  0.00  0.00    +0.000 OA
ATOM      6  C   UNL     1      23.802   2.537  50.574  0.00  0.00    +0.000 A 
ATOM      7  C   UNL     1      22.705   3.360  50.566  0.00  0.00    +0.000 A 
ATOM      8  C   UNL     1      21.536   2.872  51.105  0.00  0.00    +0.000 A 
ATOM      9  C   UNL     1      21.553   1.616  51.745  0.00  0.00    +0.000 A 
ATOM     10  C   UNL     1      22.796   1.039  52.121  0.00  0.00    +0.000 A 
ATOM     11  C   UNL     1      23.977   1.600  51.594  0.00  0.00    +0.000 A 
ATOM     12  O   UNL     1      22.863  -0.045  52.967  0.00  0.00    +0.000 OA
ATOM     13  C   UNL     1      21.634  -0.589  53.531  0.00  0.00    +0.000 C 
ATOM     14  C   UNL     1      21.691  -2.120  53.409  0.00  0.00    +0.000 C 
ATOM     15  C   UNL     1      21.581  -0.209  55.018  0.00  0.00    +0.000 C 
ATOM     16  C   UNL     1      20.353  -0.110  52.897  0.00  0.00    +0.000 C 
ATOM     17  C   UNL     1      20.298   0.953  52.086  0.00  0.00    +0.000 C 
ATOM     18  O   UNL     1      20.373   3.578  51.015  0.00  0.00    +0.000 OA
ATOM     19  C   UNL     1      20.424   4.994  50.758  0.00  0.00    +0.000 C 
ATOM     20  C   UNL     1      21.655   5.524  50.001  0.00  0.00    +0.000 C 
ATOM     21  C   UNL     1      21.826   7.049  50.133  0.00  0.00    +0.000 C 
ATOM     22  C   UNL     1      22.913   4.841  50.470  0.00  0.00    +0.000 C 
ENDROOT
BRANCH  19  23
ATOM     23  C   UNL     1      19.188   5.323  49.904  0.00  0.00    +0.000 C 
ATOM     24  C   UNL     1      19.160   4.583  48.581  0.00  0.00    +0.000 C 
ENDBRANCH  19  23
BRANCH  22  25
ATOM     25  O   UNL     1      23.976   5.258  49.625  0.00  0.00    +0.000 OA
ATOM     26  H   UNL     1      23.617   5.541  48.770  0.00  0.00    +0.000 HD
ENDBRANCH  22  25
BRANCH   1  27
ATOM     27  C   UNL     1      25.763   1.236  53.548  0.00  0.00    +0.000 C 
BRANCH  27  29
ATOM     28  C   UNL     1      26.571  -0.928  52.495  0.00  0.00    +0.000 C 
ATOM     29  C   UNL     1      26.943   0.270  53.360  0.00  0.00    +0.000 C 
ENDBRANCH  27  29
ENDBRANCH   1  27
TORSDOF 4
ENDMDL
