MODEL 1
REMARK VINA RESULT:    -7.829      0.000      0.000
REMARK INTER + INTRA:         -13.646
REMARK INTER:                 -11.490
REMARK INTRA:                  -2.156
REMARK UNBOUND:                -2.156
REMARK  Name = 
REMARK  10 active torsions:
REMARK  status: ('A' for Active; 'I' for Inactive)
REMARK    1  A    between atoms: C_1  and  C_2
REMARK    2  A    between atoms: C_2  and  C_3
REMARK    3  A    between atoms: C_3  and  C_4
REMARK    4  A    between atoms: C_5  and  C_6
REMARK    5  A    between atoms: C_6  and  N_7
REMARK    6  A    between atoms: C_9  and  C_10
REMARK    7  A    between atoms: C_19  and  C_20
REMARK    8  A    between atoms: C_23  and  C_24
REMARK    9  A    between atoms: C_27  and  O_28
REMARK   10  A    between atoms: O_28  and  C_29
REMARK                            x       y       z     vdW  Elec       q    Type
REMARK                         _______ _______ _______ _____ _____    ______ ____
ROOT
ATOM      1  N   UNL     1      22.757   3.318  52.153  0.00  0.00    +0.000 N 
ATOM      2  C   UNL     1      23.185   4.561  51.481  0.00  0.00    +0.000 C 
ATOM      3  C   UNL     1      22.966   4.256  50.010  0.00  0.00    +0.000 C 
ATOM      4  C   UNL     1      23.438   2.803  49.884  0.00  0.00    +0.000 C 
ATOM      5  C   UNL     1      23.143   2.191  51.252  0.00  0.00    +0.000 C 
ATOM      6  H   UNL     1      23.197   3.217  53.068  0.00  0.00    +0.000 HD
ENDROOT
BRANCH   3   7
ATOM      7  C   UNL     1      23.644   5.115  48.975  0.00  0.00    +0.000 A 
ATOM      8  C   UNL     1      22.909   5.947  48.100  0.00  0.00    +0.000 A 
ATOM      9  C   UNL     1      23.539   7.012  47.447  0.00  0.00    +0.000 A 
ATOM     10  C   UNL     1      24.884   7.194  47.670  0.00  0.00    +0.000 A 
ATOM     11  C   UNL     1      25.614   6.324  48.445  0.00  0.00    +0.000 A 
ATOM     12  C   UNL     1      25.035   5.271  49.090  0.00  0.00    +0.000 A 
ATOM     13  O   UNL     1      26.916   6.698  48.571  0.00  0.00    +0.000 OA
ATOM     14  C   UNL     1      26.909   7.931  47.828  0.00  0.00    +0.000 C 
ATOM     15  O   UNL     1      25.633   8.236  47.225  0.00  0.00    +0.000 OA
ENDBRANCH   3   7
BRANCH   5  16
ATOM     16  C   UNL     1      24.343   1.457  51.835  0.00  0.00    +0.000 A 
ATOM     17  C   UNL     1      25.648   1.738  51.407  0.00  0.00    +0.000 A 
ATOM     18  C   UNL     1      26.750   1.103  51.971  0.00  0.00    +0.000 A 
ATOM     19  C   UNL     1      26.571   0.159  52.980  0.00  0.00    +0.000 A 
ATOM     20  C   UNL     1      25.277  -0.141  53.409  0.00  0.00    +0.000 A 
ATOM     21  C   UNL     1      24.170   0.502  52.845  0.00  0.00    +0.000 A 
BRANCH  19  22
ATOM     22  O   UNL     1      27.576  -0.523  53.608  0.00  0.00    +0.000 OA
ATOM     23  C   UNL     1      28.230   0.166  54.668  0.00  0.00    +0.000 C 
ENDBRANCH  19  22
ENDBRANCH   5  16
BRANCH   4  24
ATOM     24  C   UNL     1      22.705   2.077  48.790  0.00  0.00    +0.000 C 
ATOM     25  O   UNL     1      22.843   2.226  47.588  0.00  0.00    +0.000 OA
ATOM     26  O   UNL     1      21.819   1.183  49.268  0.00  0.00    +0.000 OA
ENDBRANCH   4  24
BRANCH   1  27
ATOM     27  C   UNL     1      21.306   3.338  52.367  0.00  0.00    +0.000 C 
BRANCH  27  29
ATOM     28  C   UNL     1      20.388   0.784  53.147  0.00  0.00    +0.000 C 
ATOM     29  C   UNL     1      20.812   1.963  52.787  0.00  0.00    +0.000 C 
BRANCH  28  30
ATOM     30  C   UNL     1      19.900  -0.551  53.542  0.00  0.00    +0.000 C 
BRANCH  30  32
ATOM     31  C   UNL     1      21.915  -0.903  55.056  0.00  0.00    +0.000 C 
ATOM     32  C   UNL     1      21.060  -1.471  53.931  0.00  0.00    +0.000 C 
ENDBRANCH  30  32
ENDBRANCH  28  30
ENDBRANCH  27  29
ENDBRANCH   1  27
TORSDOF 8
ENDMDL
MODEL 2
REMARK VINA RESULT:    -7.759      1.541      2.174
REMARK INTER + INTRA:         -13.545
REMARK INTER:                 -11.147
REMARK INTRA:                  -2.398
REMARK UNBOUND:                -2.156
REMARK  Name = 
REMARK  10 active torsions:
REMARK  status: ('A' for Active; 'I' for Inactive)
REMARK    1  A    between atoms: C_1  and  C_2
REMARK    2  A    between atoms: C_2  and  C_3
REMARK    3  A    between atoms: C_3  and  C_4
REMARK    4  A    between atoms: C_5  and  C_6
REMARK    5  A    between atoms: C_6  and  N_7
REMARK    6  A    between atoms: C_9  and  C_10
REMARK    7  A    between atoms: C_19  and  C_20
REMARK    8  A    between atoms: C_23  and  C_24
REMARK    9  A    between atoms: C_27  and  O_28
REMARK   10  A    between atoms: O_28  and  C_29
REMARK                            x       y       z     vdW  Elec       q    Type
REMARK                         _______ _______ _______ _____ _____    ______ ____
ROOT
ATOM      1  N   UNL     1      23.395   4.312  52.174  0.00  0.00    +0.000 N 
ATOM      2  C   UNL     1      24.287   5.301  51.538  0.00  0.00    +0.000 C 
ATOM      3  C   UNL     1      24.022   5.108  50.055  0.00  0.00    +0.000 C 
ATOM      4  C   UNL     1      23.912   3.586  49.920  0.00  0.00    +0.000 C 
ATOM      5  C   UNL     1      23.357   3.126  51.266  0.00  0.00    +0.000 C 
ATOM      6  H   UNL     1      23.730   4.047  53.101  0.00  0.00    +0.000 HD
ENDROOT
BRANCH   3   7
ATOM      7  C   UNL     1      25.013   5.649  49.059  0.00  0.00    +0.000 A 
ATOM      8  C   UNL     1      24.778   6.852  48.353  0.00  0.00    +0.000 A 
ATOM      9  C   UNL     1      25.843   7.540  47.760  0.00  0.00    +0.000 A 
ATOM     10  C   UNL     1      27.099   6.991  47.871  0.00  0.00    +0.000 A 
ATOM     11  C   UNL     1      27.307   5.773  48.474  0.00  0.00    +0.000 A 
ATOM     12  C   UNL     1      26.292   5.072  49.055  0.00  0.00    +0.000 A 
ATOM     13  O   UNL     1      28.621   5.423  48.512  0.00  0.00    +0.000 OA
ATOM     14  C   UNL     1      29.221   6.585  47.911  0.00  0.00    +0.000 C 
ATOM     15  O   UNL     1      28.261   7.570  47.470  0.00  0.00    +0.000 OA
ENDBRANCH   3   7
BRANCH   5  16
ATOM     16  C   UNL     1      24.166   1.989  51.875  0.00  0.00    +0.000 A 
ATOM     17  C   UNL     1      23.607   1.124  52.826  0.00  0.00    +0.000 A 
ATOM     18  C   UNL     1      24.329   0.056  53.349  0.00  0.00    +0.000 A 
ATOM     19  C   UNL     1      25.639  -0.170  52.937  0.00  0.00    +0.000 A 
ATOM     20  C   UNL     1      26.215   0.689  51.999  0.00  0.00    +0.000 A 
ATOM     21  C   UNL     1      25.488   1.760  51.470  0.00  0.00    +0.000 A 
BRANCH  19  22
ATOM     22  O   UNL     1      26.441  -1.187  53.377  0.00  0.00    +0.000 OA
ATOM     23  C   UNL     1      27.844  -0.964  53.276  0.00  0.00    +0.000 C 
ENDBRANCH  19  22
ENDBRANCH   5  16
BRANCH   4  24
ATOM     24  C   UNL     1      22.999   3.197  48.790  0.00  0.00    +0.000 C 
ATOM     25  O   UNL     1      23.126   2.248  48.034  0.00  0.00    +0.000 OA
ATOM     26  O   UNL     1      21.951   4.034  48.662  0.00  0.00    +0.000 OA
ENDBRANCH   4  24
BRANCH   1  27
ATOM     27  C   UNL     1      22.053   4.880  52.342  0.00  0.00    +0.000 C 
BRANCH  27  29
ATOM     28  C   UNL     1      20.084   2.890  51.974  0.00  0.00    +0.000 C 
ATOM     29  C   UNL     1      20.994   3.809  52.144  0.00  0.00    +0.000 C 
BRANCH  28  30
ATOM     30  C   UNL     1      19.063   1.843  51.772  0.00  0.00    +0.000 C 
BRANCH  30  32
ATOM     31  C   UNL     1      20.795   0.513  50.466  0.00  0.00    +0.000 C 
ATOM     32  C   UNL     1      19.713   0.477  51.536  0.00  0.00    +0.000 C 
ENDBRANCH  30  32
ENDBRANCH  28  30
ENDBRANCH  27  29
ENDBRANCH   1  27
TORSDOF 8
ENDMDL
MODEL 3
REMARK VINA RESULT:    -7.715      2.681      7.253
REMARK INTER + INTRA:         -13.480
REMARK INTER:                 -11.588
REMARK INTRA:                  -1.892
REMARK UNBOUND:                -2.156
REMARK  Name = 
REMARK  10 active torsions:
REMARK  status: ('A' for Active; 'I' for Inactive)
REMARK    1  A    between atoms: C_1  and  C_2
REMARK    2  A    between atoms: C_2  and  C_3
REMARK    3  A    between atoms: C_3  and  C_4
REMARK    4  A    between atoms: C_5  and  C_6
REMARK    5  A    between atoms: C_6  and  N_7
REMARK    6  A    between atoms: C_9  and  C_10
REMARK    7  A    between atoms: C_19  and  C_20
REMARK    8  A    between atoms: C_23  and  C_24
REMARK    9  A    between atoms: C_27  and  O_28
REMARK   10  A    between atoms: O_28  and  C_29
REMARK                            x       y       z     vdW  Elec       q    Type
REMARK                         _______ _______ _______ _____ _____    ______ ____
ROOT
ATOM      1  N   UNL     1      22.749   1.635  49.585  0.00  0.00    +0.000 N 
ATOM      2  C   UNL     1      21.528   0.817  49.723  0.00  0.00    +0.000 C 
ATOM      3  C   UNL     1      20.654   1.647  50.647  0.00  0.00    +0.000 C 
ATOM      4  C   UNL     1      21.654   2.185  51.676  0.00  0.00    +0.000 C 
ATOM      5  C   UNL     1      22.965   2.305  50.902  0.00  0.00    +0.000 C 
ATOM      6  H   UNL     1      23.556   1.062  49.334  0.00  0.00    +0.000 HD
ENDROOT
BRANCH   3   7
ATOM      7  C   UNL     1      19.493   0.989  51.343  0.00  0.00    +0.000 A 
ATOM      8  C   UNL     1      18.199   0.967  50.775  0.00  0.00    +0.000 A 
ATOM      9  C   UNL     1      17.253   0.033  51.212  0.00  0.00    +0.000 A 
ATOM     10  C   UNL     1      17.624  -0.829  52.217  0.00  0.00    +0.000 A 
ATOM     11  C   UNL     1      18.850  -0.740  52.833  0.00  0.00    +0.000 A 
ATOM     12  C   UNL     1      19.792   0.164  52.439  0.00  0.00    +0.000 A 
ATOM     13  O   UNL     1      19.036  -1.703  53.776  0.00  0.00    +0.000 OA
ATOM     14  C   UNL     1      17.807  -2.440  53.646  0.00  0.00    +0.000 C 
ATOM     15  O   UNL     1      16.891  -1.874  52.684  0.00  0.00    +0.000 OA
ENDBRANCH   3   7
BRANCH   5  16
ATOM     16  C   UNL     1      24.133   1.647  51.626  0.00  0.00    +0.000 A 
ATOM     17  C   UNL     1      23.923   0.708  52.646  0.00  0.00    +0.000 A 
ATOM     18  C   UNL     1      24.988   0.071  53.276  0.00  0.00    +0.000 A 
ATOM     19  C   UNL     1      26.297   0.366  52.904  0.00  0.00    +0.000 A 
ATOM     20  C   UNL     1      26.523   1.307  51.899  0.00  0.00    +0.000 A 
ATOM     21  C   UNL     1      25.453   1.943  51.262  0.00  0.00    +0.000 A 
BRANCH  19  22
ATOM     22  O   UNL     1      27.418  -0.198  53.448  0.00  0.00    +0.000 OA
ATOM     23  C   UNL     1      27.751   0.224  54.767  0.00  0.00    +0.000 C 
ENDBRANCH  19  22
ENDBRANCH   5  16
BRANCH   4  24
ATOM     24  C   UNL     1      21.219   3.516  52.226  0.00  0.00    +0.000 C 
ATOM     25  O   UNL     1      20.104   4.006  52.169  0.00  0.00    +0.000 OA
ATOM     26  O   UNL     1      22.224   4.177  52.832  0.00  0.00    +0.000 OA
ENDBRANCH   4  24
BRANCH   1  27
ATOM     27  C   UNL     1      22.571   2.628  48.521  0.00  0.00    +0.000 C 
BRANCH  27  29
ATOM     28  C   UNL     1      24.257   4.852  48.954  0.00  0.00    +0.000 C 
ATOM     29  C   UNL     1      23.478   3.825  48.754  0.00  0.00    +0.000 C 
BRANCH  28  30
ATOM     30  C   UNL     1      25.147   6.005  49.186  0.00  0.00    +0.000 C 
BRANCH  30  32
ATOM     31  C   UNL     1      27.079   4.352  49.093  0.00  0.00    +0.000 C 
ATOM     32  C   UNL     1      26.562   5.723  48.676  0.00  0.00    +0.000 C 
ENDBRANCH  30  32
ENDBRANCH  28  30
ENDBRANCH  27  29
ENDBRANCH   1  27
TORSDOF 8
ENDMDL
MODEL 4
REMARK VINA RESULT:    -7.619      2.591      6.285
REMARK INTER + INTRA:         -13.338
REMARK INTER:                 -11.661
REMARK INTRA:                  -1.678
REMARK UNBOUND:                -2.156
REMARK  Name = 
REMARK  10 active torsions:
REMARK  status: ('A' for Active; 'I' for Inactive)
REMARK    1  A    between atoms: C_1  and  C_2
REMARK    2  A    between atoms: C_2  and  C_3
REMARK    3  A    between atoms: C_3  and  C_4
REMARK    4  A    between atoms: C_5  and  C_6
REMARK    5  A    between atoms: C_6  and  N_7
REMARK    6  A    between atoms: C_9  and  C_10
REMARK    7  A    between atoms: C_19  and  C_20
REMARK    8  A    between atoms: C_23  and  C_24
REMARK    9  A    between atoms: C_27  and  O_28
REMARK   10  A    between atoms: O_28  and  C_29
REMARK                            x       y       z     vdW  Elec       q    Type
REMARK                         _______ _______ _______ _____ _____    ______ ____
ROOT
ATOM      1  N   UNL     1      24.587   3.828  52.359  0.00  0.00    +0.000 N 
ATOM      2  C   UNL     1      23.292   4.499  52.585  0.00  0.00    +0.000 C 
ATOM      3  C   UNL     1      22.332   3.711  51.711  0.00  0.00    +0.000 C 
ATOM      4  C   UNL     1      23.151   3.458  50.441  0.00  0.00    +0.000 C 
ATOM      5  C   UNL     1      24.596   3.390  50.931  0.00  0.00    +0.000 C 
ATOM      6  H   UNL     1      25.370   4.453  52.550  0.00  0.00    +0.000 HD
ENDROOT
BRANCH   3   7
ATOM      7  C   UNL     1      20.999   4.315  51.359  0.00  0.00    +0.000 A 
ATOM      8  C   UNL     1      20.880   5.355  50.410  0.00  0.00    +0.000 A 
ATOM      9  C   UNL     1      19.646   5.619  49.804  0.00  0.00    +0.000 A 
ATOM     10  C   UNL     1      18.570   4.852  50.186  0.00  0.00    +0.000 A 
ATOM     11  C   UNL     1      18.670   3.907  51.179  0.00  0.00    +0.000 A 
ATOM     12  C   UNL     1      19.854   3.629  51.796  0.00  0.00    +0.000 A 
ATOM     13  O   UNL     1      17.506   3.233  51.383  0.00  0.00    +0.000 OA
ATOM     14  C   UNL     1      16.676   3.827  50.368  0.00  0.00    +0.000 C 
ATOM     15  O   UNL     1      17.332   4.878  49.626  0.00  0.00    +0.000 OA
ENDBRANCH   3   7
BRANCH   5  16
ATOM     16  C   UNL     1      25.529   4.285  50.126  0.00  0.00    +0.000 A 
ATOM     17  C   UNL     1      26.695   3.778  49.535  0.00  0.00    +0.000 A 
ATOM     18  C   UNL     1      27.524   4.583  48.760  0.00  0.00    +0.000 A 
ATOM     19  C   UNL     1      27.210   5.925  48.563  0.00  0.00    +0.000 A 
ATOM     20  C   UNL     1      26.059   6.448  49.156  0.00  0.00    +0.000 A 
ATOM     21  C   UNL     1      25.223   5.638  49.930  0.00  0.00    +0.000 A 
BRANCH  19  22
ATOM     22  O   UNL     1      27.946   6.808  47.822  0.00  0.00    +0.000 OA
ATOM     23  C   UNL     1      28.141   8.095  48.396  0.00  0.00    +0.000 C 
ENDBRANCH  19  22
ENDBRANCH   5  16
BRANCH   4  24
ATOM     24  C   UNL     1      22.741   2.178  49.766  0.00  0.00    +0.000 C 
ATOM     25  O   UNL     1      22.573   1.998  48.572  0.00  0.00    +0.000 OA
ATOM     26  O   UNL     1      22.561   1.169  50.639  0.00  0.00    +0.000 OA
ENDBRANCH   4  24
BRANCH   1  27
ATOM     27  C   UNL     1      24.719   2.676  53.256  0.00  0.00    +0.000 C 
BRANCH  27  29
ATOM     28  C   UNL     1      27.429   1.920  53.498  0.00  0.00    +0.000 C 
ATOM     29  C   UNL     1      26.178   2.269  53.387  0.00  0.00    +0.000 C 
BRANCH  28  30
ATOM     30  C   UNL     1      28.842   1.517  53.637  0.00  0.00    +0.000 C 
BRANCH  30  32
ATOM     31  C   UNL     1      29.589  -0.915  53.610  0.00  0.00    +0.000 C 
ATOM     32  C   UNL     1      28.971   0.212  54.426  0.00  0.00    +0.000 C 
ENDBRANCH  30  32
ENDBRANCH  28  30
ENDBRANCH  27  29
ENDBRANCH   1  27
TORSDOF 8
ENDMDL
MODEL 5
REMARK VINA RESULT:    -7.553      2.474      7.659
REMARK INTER + INTRA:         -13.242
REMARK INTER:                 -11.041
REMARK INTRA:                  -2.201
REMARK UNBOUND:                -2.156
REMARK  Name = 
REMARK  10 active torsions:
REMARK  status: ('A' for Active; 'I' for Inactive)
REMARK    1  A    between atoms: C_1  and  C_2
REMARK    2  A    between atoms: C_2  and  C_3
REMARK    3  A    between atoms: C_3  and  C_4
REMARK    4  A    between atoms: C_5  and  C_6
REMARK    5  A    between atoms: C_6  and  N_7
REMARK    6  A    between atoms: C_9  and  C_10
REMARK    7  A    between atoms: C_19  and  C_20
REMARK    8  A    between atoms: C_23  and  C_24
REMARK    9  A    between atoms: C_27  and  O_28
REMARK   10  A    between atoms: O_28  and  C_29
REMARK                            x       y       z     vdW  Elec       q    Type
REMARK                         _______ _______ _______ _____ _____    ______ ____
ROOT
ATOM      1  N   UNL     1      23.154   4.071  48.695  0.00  0.00    +0.000 N 
ATOM      2  C   UNL     1      23.119   2.655  49.109  0.00  0.00    +0.000 C 
ATOM      3  C   UNL     1      22.959   2.734  50.617  0.00  0.00    +0.000 C 
ATOM      4  C   UNL     1      23.884   3.895  51.000  0.00  0.00    +0.000 C 
ATOM      5  C   UNL     1      23.860   4.815  49.781  0.00  0.00    +0.000 C 
ATOM      6  H   UNL     1      23.637   4.188  47.804  0.00  0.00    +0.000 HD
ENDROOT
BRANCH   3   7
ATOM      7  C   UNL     1      23.273   1.522  51.451  0.00  0.00    +0.000 A 
ATOM      8  C   UNL     1      24.577   1.267  51.935  0.00  0.00    +0.000 A 
ATOM      9  C   UNL     1      24.771   0.395  53.012  0.00  0.00    +0.000 A 
ATOM     10  C   UNL     1      23.661  -0.210  53.552  0.00  0.00    +0.000 A 
ATOM     11  C   UNL     1      22.407  -0.034  53.018  0.00  0.00    +0.000 A 
ATOM     12  C   UNL     1      22.182   0.801  51.963  0.00  0.00    +0.000 A 
ATOM     13  O   UNL     1      21.440  -0.688  53.716  0.00  0.00    +0.000 OA
ATOM     14  C   UNL     1      22.224  -1.254  54.783  0.00  0.00    +0.000 C 
ATOM     15  O   UNL     1      23.638  -0.984  54.669  0.00  0.00    +0.000 OA
ENDBRANCH   3   7
BRANCH   5  16
ATOM     16  C   UNL     1      25.258   5.200  49.313  0.00  0.00    +0.000 A 
ATOM     17  C   UNL     1      26.302   4.265  49.287  0.00  0.00    +0.000 A 
ATOM     18  C   UNL     1      27.567   4.601  48.815  0.00  0.00    +0.000 A 
ATOM     19  C   UNL     1      27.822   5.893  48.362  0.00  0.00    +0.000 A 
ATOM     20  C   UNL     1      26.796   6.840  48.393  0.00  0.00    +0.000 A 
ATOM     21  C   UNL     1      25.524   6.499  48.862  0.00  0.00    +0.000 A 
BRANCH  19  22
ATOM     22  O   UNL     1      29.021   6.336  47.875  0.00  0.00    +0.000 OA
ATOM     23  C   UNL     1      30.117   5.436  48.003  0.00  0.00    +0.000 C 
ENDBRANCH  19  22
ENDBRANCH   5  16
BRANCH   4  24
ATOM     24  C   UNL     1      23.395   4.607  52.232  0.00  0.00    +0.000 C 
ATOM     25  O   UNL     1      23.907   4.598  53.338  0.00  0.00    +0.000 OA
ATOM     26  O   UNL     1      22.267   5.308  52.009  0.00  0.00    +0.000 OA
ENDBRANCH   4  24
BRANCH   1  27
ATOM     27  C   UNL     1      21.790   4.578  48.521  0.00  0.00    +0.000 C 
BRANCH  27  29
ATOM     28  C   UNL     1      21.761   7.399  48.651  0.00  0.00    +0.000 C 
ATOM     29  C   UNL     1      21.774   6.096  48.591  0.00  0.00    +0.000 C 
BRANCH  28  30
ATOM     30  C   UNL     1      21.744   8.873  48.705  0.00  0.00    +0.000 C 
BRANCH  30  32
ATOM     31  C   UNL     1      23.563   9.022  46.932  0.00  0.00    +0.000 C 
ATOM     32  C   UNL     1      23.105   9.456  48.318  0.00  0.00    +0.000 C 
ENDBRANCH  30  32
ENDBRANCH  28  30
ENDBRANCH  27  29
ENDBRANCH   1  27
TORSDOF 8
ENDMDL
MODEL 6
REMARK VINA RESULT:    -7.298      2.466      6.638
REMARK INTER + INTRA:         -12.868
REMARK INTER:                 -11.671
REMARK INTRA:                  -1.196
REMARK UNBOUND:                -2.156
REMARK  Name = 
REMARK  10 active torsions:
REMARK  status: ('A' for Active; 'I' for Inactive)
REMARK    1  A    between atoms: C_1  and  C_2
REMARK    2  A    between atoms: C_2  and  C_3
REMARK    3  A    between atoms: C_3  and  C_4
REMARK    4  A    between atoms: C_5  and  C_6
REMARK    5  A    between atoms: C_6  and  N_7
REMARK    6  A    between atoms: C_9  and  C_10
REMARK    7  A    between atoms: C_19  and  C_20
REMARK    8  A    between atoms: C_23  and  C_24
REMARK    9  A    between atoms: C_27  and  O_28
REMARK   10  A    between atoms: O_28  and  C_29
REMARK                            x       y       z     vdW  Elec       q    Type
REMARK                         _______ _______ _______ _____ _____    ______ ____
ROOT
ATOM      1  N   UNL     1      22.868   3.707  49.067  0.00  0.00    +0.000 N 
ATOM      2  C   UNL     1      23.005   2.306  49.509  0.00  0.00    +0.000 C 
ATOM      3  C   UNL     1      23.011   2.416  51.024  0.00  0.00    +0.000 C 
ATOM      4  C   UNL     1      23.865   3.663  51.275  0.00  0.00    +0.000 C 
ATOM      5  C   UNL     1      23.623   4.541  50.050  0.00  0.00    +0.000 C 
ATOM      6  H   UNL     1      23.234   3.840  48.124  0.00  0.00    +0.000 HD
ENDROOT
BRANCH   3   7
ATOM      7  C   UNL     1      23.523   1.260  51.840  0.00  0.00    +0.000 A 
ATOM      8  C   UNL     1      24.901   1.091  52.109  0.00  0.00    +0.000 A 
ATOM      9  C   UNL     1      25.317   0.281  53.172  0.00  0.00    +0.000 A 
ATOM     10  C   UNL     1      24.345  -0.351  53.912  0.00  0.00    +0.000 A 
ATOM     11  C   UNL     1      23.013  -0.260  53.587  0.00  0.00    +0.000 A 
ATOM     12  C   UNL     1      22.572   0.513  52.553  0.00  0.00    +0.000 A 
ATOM     13  O   UNL     1      22.212  -0.927  54.461  0.00  0.00    +0.000 OA
ATOM     14  C   UNL     1      23.189  -1.403  55.404  0.00  0.00    +0.000 C 
ATOM     15  O   UNL     1      24.549  -1.072  55.046  0.00  0.00    +0.000 OA
ENDBRANCH   3   7
BRANCH   5  16
ATOM     16  C   UNL     1      24.919   5.032  49.416  0.00  0.00    +0.000 A 
ATOM     17  C   UNL     1      25.016   6.313  48.856  0.00  0.00    +0.000 A 
ATOM     18  C   UNL     1      26.211   6.782  48.319  0.00  0.00    +0.000 A 
ATOM     19  C   UNL     1      27.343   5.971  48.322  0.00  0.00    +0.000 A 
ATOM     20  C   UNL     1      27.259   4.688  48.865  0.00  0.00    +0.000 A 
ATOM     21  C   UNL     1      26.060   4.219  49.410  0.00  0.00    +0.000 A 
BRANCH  19  22
ATOM     22  O   UNL     1      28.568   6.325  47.828  0.00  0.00    +0.000 OA
ATOM     23  C   UNL     1      29.681   5.600  48.340  0.00  0.00    +0.000 C 
ENDBRANCH  19  22
ENDBRANCH   5  16
BRANCH   4  24
ATOM     24  C   UNL     1      23.457   4.366  52.541  0.00  0.00    +0.000 C 
ATOM     25  O   UNL     1      24.042   4.353  53.611  0.00  0.00    +0.000 OA
ATOM     26  O   UNL     1      22.315   5.064  52.398  0.00  0.00    +0.000 OA
ENDBRANCH   4  24
BRANCH   1  27
ATOM     27  C   UNL     1      21.452   4.089  49.041  0.00  0.00    +0.000 C 
BRANCH  27  29
ATOM     28  C   UNL     1      19.832   1.932  49.875  0.00  0.00    +0.000 C 
ATOM     29  C   UNL     1      20.580   2.928  49.490  0.00  0.00    +0.000 C 
BRANCH  28  30
ATOM     30  C   UNL     1      18.974   0.811  50.304  0.00  0.00    +0.000 C 
BRANCH  30  32
ATOM     31  C   UNL     1      18.407  -0.587  52.354  0.00  0.00    +0.000 C 
ATOM     32  C   UNL     1      18.827   0.779  51.828  0.00  0.00    +0.000 C 
ENDBRANCH  30  32
ENDBRANCH  28  30
ENDBRANCH  27  29
ENDBRANCH   1  27
TORSDOF 8
ENDMDL
MODEL 7
REMARK VINA RESULT:    -7.177      2.384      3.287
REMARK INTER + INTRA:         -12.690
REMARK INTER:                 -11.164
REMARK INTRA:                  -1.527
REMARK UNBOUND:                -2.156
REMARK  Name = 
REMARK  10 active torsions:
REMARK  status: ('A' for Active; 'I' for Inactive)
REMARK    1  A    between atoms: C_1  and  C_2
REMARK    2  A    between atoms: C_2  and  C_3
REMARK    3  A    between atoms: C_3  and  C_4
REMARK    4  A    between atoms: C_5  and  C_6
REMARK    5  A    between atoms: C_6  and  N_7
REMARK    6  A    between atoms: C_9  and  C_10
REMARK    7  A    between atoms: C_19  and  C_20
REMARK    8  A    between atoms: C_23  and  C_24
REMARK    9  A    between atoms: C_27  and  O_28
REMARK   10  A    between atoms: O_28  and  C_29
REMARK                            x       y       z     vdW  Elec       q    Type
REMARK                         _______ _______ _______ _____ _____    ______ ____
ROOT
ATOM      1  N   UNL     1      21.086   1.549  51.809  0.00  0.00    +0.000 N 
ATOM      2  C   UNL     1      20.713   2.967  51.984  0.00  0.00    +0.000 C 
ATOM      3  C   UNL     1      21.344   3.645  50.781  0.00  0.00    +0.000 C 
ATOM      4  C   UNL     1      22.703   2.946  50.664  0.00  0.00    +0.000 C 
ATOM      5  C   UNL     1      22.451   1.539  51.202  0.00  0.00    +0.000 C 
ATOM      6  H   UNL     1      21.082   1.049  52.698  0.00  0.00    +0.000 HD
ENDROOT
BRANCH   3   7
ATOM      7  C   UNL     1      21.528   5.139  50.797  0.00  0.00    +0.000 A 
ATOM      8  C   UNL     1      22.705   5.740  51.298  0.00  0.00    +0.000 A 
ATOM      9  C   UNL     1      23.032   7.054  50.944  0.00  0.00    +0.000 A 
ATOM     10  C   UNL     1      22.160   7.729  50.122  0.00  0.00    +0.000 A 
ATOM     11  C   UNL     1      20.969   7.175  49.715  0.00  0.00    +0.000 A 
ATOM     12  C   UNL     1      20.615   5.901  50.049  0.00  0.00    +0.000 A 
ATOM     13  O   UNL     1      20.268   7.988  48.881  0.00  0.00    +0.000 OA
ATOM     14  C   UNL     1      21.178   9.097  48.766  0.00  0.00    +0.000 C 
ATOM     15  O   UNL     1      22.366   8.957  49.577  0.00  0.00    +0.000 OA
ENDBRANCH   3   7
BRANCH   5  16
ATOM     16  C   UNL     1      23.474   1.121  52.250  0.00  0.00    +0.000 A 
ATOM     17  C   UNL     1      23.329  -0.069  52.976  0.00  0.00    +0.000 A 
ATOM     18  C   UNL     1      24.286  -0.477  53.900  0.00  0.00    +0.000 A 
ATOM     19  C   UNL     1      25.415   0.306  54.127  0.00  0.00    +0.000 A 
ATOM     20  C   UNL     1      25.569   1.500  53.421  0.00  0.00    +0.000 A 
ATOM     21  C   UNL     1      24.609   1.906  52.488  0.00  0.00    +0.000 A 
BRANCH  19  22
ATOM     22  O   UNL     1      26.420   0.005  55.005  0.00  0.00    +0.000 OA
ATOM     23  C   UNL     1      27.745   0.112  54.497  0.00  0.00    +0.000 C 
ENDBRANCH  19  22
ENDBRANCH   5  16
BRANCH   4  24
ATOM     24  C   UNL     1      23.184   2.909  49.239  0.00  0.00    +0.000 C 
ATOM     25  O   UNL     1      22.528   2.636  48.248  0.00  0.00    +0.000 OA
ATOM     26  O   UNL     1      24.488   3.224  49.127  0.00  0.00    +0.000 OA
ENDBRANCH   4  24
BRANCH   1  27
ATOM     27  C   UNL     1      20.121   0.881  50.929  0.00  0.00    +0.000 C 
BRANCH  27  29
ATOM     28  C   UNL     1      18.281  -0.630  52.447  0.00  0.00    +0.000 C 
ATOM     29  C   UNL     1      19.131   0.068  51.747  0.00  0.00    +0.000 C 
BRANCH  28  30
ATOM     30  C   UNL     1      17.329  -1.421  53.251  0.00  0.00    +0.000 C 
BRANCH  30  32
ATOM     31  C   UNL     1      16.981  -3.917  53.596  0.00  0.00    +0.000 C 
ATOM     32  C   UNL     1      17.950  -2.747  53.696  0.00  0.00    +0.000 C 
ENDBRANCH  30  32
ENDBRANCH  28  30
ENDBRANCH  27  29
ENDBRANCH   1  27
TORSDOF 8
ENDMDL
MODEL 8
REMARK VINA RESULT:    -7.098      2.220      7.229
REMARK INTER + INTRA:         -12.574
REMARK INTER:                 -10.421
REMARK INTRA:                  -2.152
REMARK UNBOUND:                -2.156
REMARK  Name = 
REMARK  10 active torsions:
REMARK  status: ('A' for Active; 'I' for Inactive)
REMARK    1  A    between atoms: C_1  and  C_2
REMARK    2  A    between atoms: C_2  and  C_3
REMARK    3  A    between atoms: C_3  and  C_4
REMARK    4  A    between atoms: C_5  and  C_6
REMARK    5  A    between atoms: C_6  and  N_7
REMARK    6  A    between atoms: C_9  and  C_10
REMARK    7  A    between atoms: C_19  and  C_20
REMARK    8  A    between atoms: C_23  and  C_24
REMARK    9  A    between atoms: C_27  and  O_28
REMARK   10  A    between atoms: O_28  and  C_29
REMARK                            x       y       z     vdW  Elec       q    Type
REMARK                         _______ _______ _______ _____ _____    ______ ____
ROOT
ATOM      1  N   UNL     1      23.070   3.641  48.918  0.00  0.00    +0.000 N 
ATOM      2  C   UNL     1      23.450   2.352  49.528  0.00  0.00    +0.000 C 
ATOM      3  C   UNL     1      23.342   2.624  51.018  0.00  0.00    +0.000 C 
ATOM      4  C   UNL     1      23.922   4.036  51.153  0.00  0.00    +0.000 C 
ATOM      5  C   UNL     1      23.589   4.710  49.824  0.00  0.00    +0.000 C 
ATOM      6  H   UNL     1      23.461   3.741  47.981  0.00  0.00    +0.000 HD
ENDROOT
BRANCH   3   7
ATOM      7  C   UNL     1      24.019   1.688  51.984  0.00  0.00    +0.000 A 
ATOM      8  C   UNL     1      23.297   0.704  52.697  0.00  0.00    +0.000 A 
ATOM      9  C   UNL     1      23.964  -0.391  53.258  0.00  0.00    +0.000 A 
ATOM     10  C   UNL     1      25.329  -0.453  53.107  0.00  0.00    +0.000 A 
ATOM     11  C   UNL     1      26.038   0.555  52.497  0.00  0.00    +0.000 A 
ATOM     12  C   UNL     1      25.422   1.640  51.947  0.00  0.00    +0.000 A 
ATOM     13  O   UNL     1      27.369   0.288  52.417  0.00  0.00    +0.000 OA
ATOM     14  C   UNL     1      27.410  -1.027  53.001  0.00  0.00    +0.000 C 
ATOM     15  O   UNL     1      26.126  -1.491  53.472  0.00  0.00    +0.000 OA
ENDBRANCH   3   7
BRANCH   5  16
ATOM     16  C   UNL     1      24.801   5.377  49.187  0.00  0.00    +0.000 A 
ATOM     17  C   UNL     1      24.688   6.604  48.517  0.00  0.00    +0.000 A 
ATOM     18  C   UNL     1      25.801   7.240  47.975  0.00  0.00    +0.000 A 
ATOM     19  C   UNL     1      27.061   6.656  48.084  0.00  0.00    +0.000 A 
ATOM     20  C   UNL     1      27.187   5.428  48.737  0.00  0.00    +0.000 A 
ATOM     21  C   UNL     1      26.070   4.793  49.287  0.00  0.00    +0.000 A 
BRANCH  19  22
ATOM     22  O   UNL     1      28.222   7.188  47.595  0.00  0.00    +0.000 OA
ATOM     23  C   UNL     1      29.024   7.901  48.531  0.00  0.00    +0.000 C 
ENDBRANCH  19  22
ENDBRANCH   5  16
BRANCH   4  24
ATOM     24  C   UNL     1      23.310   4.775  52.311  0.00  0.00    +0.000 C 
ATOM     25  O   UNL     1      23.847   5.060  53.368  0.00  0.00    +0.000 OA
ATOM     26  O   UNL     1      22.031   5.128  52.079  0.00  0.00    +0.000 OA
ENDBRANCH   4  24
BRANCH   1  27
ATOM     27  C   UNL     1      21.612   3.728  48.795  0.00  0.00    +0.000 C 
BRANCH  27  29
ATOM     28  C   UNL     1      20.812   6.409  48.407  0.00  0.00    +0.000 C 
ATOM     29  C   UNL     1      21.181   5.171  48.586  0.00  0.00    +0.000 C 
BRANCH  28  30
ATOM     30  C   UNL     1      20.405   7.812  48.195  0.00  0.00    +0.000 C 
BRANCH  30  32
ATOM     31  C   UNL     1      21.890   8.079  50.244  0.00  0.00    +0.000 C 
ATOM     32  C   UNL     1      20.779   8.684  49.396  0.00  0.00    +0.000 C 
ENDBRANCH  30  32
ENDBRANCH  28  30
ENDBRANCH  27  29
ENDBRANCH   1  27
TORSDOF 8
ENDMDL
MODEL 9
REMARK VINA RESULT:    -7.019      1.408      1.768
REMARK INTER + INTRA:         -12.458
REMARK INTER:                 -10.469
REMARK INTRA:                  -1.988
REMARK UNBOUND:                -2.156
REMARK  Name = 
REMARK  10 active torsions:
REMARK  status: ('A' for Active; 'I' for Inactive)
REMARK    1  A    between atoms: C_1  and  C_2
REMARK    2  A    between atoms: C_2  and  C_3
REMARK    3  A    between atoms: C_3  and  C_4
REMARK    4  A    between atoms: C_5  and  C_6
REMARK    5  A    between atoms: C_6  and  N_7
REMARK    6  A    between atoms: C_9  and  C_10
REMARK    7  A    between atoms: C_19  and  C_20
REMARK    8  A    between atoms: C_23  and  C_24
REMARK    9  A    between atoms: C_27  and  O_28
REMARK   10  A    between atoms: O_28  and  C_29
REMARK                            x       y       z     vdW  Elec       q    Type
REMARK                         _______ _______ _______ _____ _____    ______ ____
ROOT
ATOM      1  N   UNL     1      21.221   3.386  51.674  0.00  0.00    +0.000 N 
ATOM      2  C   UNL     1      21.835   4.601  51.103  0.00  0.00    +0.000 C 
ATOM      3  C   UNL     1      21.903   4.293  49.617  0.00  0.00    +0.000 C 
ATOM      4  C   UNL     1      22.320   2.818  49.590  0.00  0.00    +0.000 C 
ATOM      5  C   UNL     1      21.726   2.234  50.869  0.00  0.00    +0.000 C 
ATOM      6  H   UNL     1      21.462   3.273  52.659  0.00  0.00    +0.000 HD
ENDROOT
BRANCH   3   7
ATOM      7  C   UNL     1      22.816   5.109  48.741  0.00  0.00    +0.000 A 
ATOM      8  C   UNL     1      22.326   5.848  47.640  0.00  0.00    +0.000 A 
ATOM      9  C   UNL     1      23.085   6.893  47.101  0.00  0.00    +0.000 A 
ATOM     10  C   UNL     1      24.314   7.147  47.663  0.00  0.00    +0.000 A 
ATOM     11  C   UNL     1      24.826   6.364  48.670  0.00  0.00    +0.000 A 
ATOM     12  C   UNL     1      24.119   5.332  49.214  0.00  0.00    +0.000 A 
ATOM     13  O   UNL     1      26.036   6.801  49.112  0.00  0.00    +0.000 OA
ATOM     14  C   UNL     1      26.202   7.980  48.303  0.00  0.00    +0.000 C 
ATOM     15  O   UNL     1      25.131   8.189  47.358  0.00  0.00    +0.000 OA
ENDBRANCH   3   7
BRANCH   5  16
ATOM     16  C   UNL     1      22.748   1.450  51.683  0.00  0.00    +0.000 A 
ATOM     17  C   UNL     1      24.116   1.748  51.616  0.00  0.00    +0.000 A 
ATOM     18  C   UNL     1      25.046   1.065  52.394  0.00  0.00    +0.000 A 
ATOM     19  C   UNL     1      24.629   0.056  53.257  0.00  0.00    +0.000 A 
ATOM     20  C   UNL     1      23.271  -0.261  53.326  0.00  0.00    +0.000 A 
ATOM     21  C   UNL     1      22.335   0.429  52.549  0.00  0.00    +0.000 A 
BRANCH  19  22
ATOM     22  O   UNL     1      25.449  -0.678  54.069  0.00  0.00    +0.000 OA
ATOM     23  C   UNL     1      26.713  -0.096  54.368  0.00  0.00    +0.000 C 
ENDBRANCH  19  22
ENDBRANCH   5  16
BRANCH   4  24
ATOM     24  C   UNL     1      21.789   2.117  48.370  0.00  0.00    +0.000 C 
ATOM     25  O   UNL     1      20.622   2.003  48.036  0.00  0.00    +0.000 OA
ATOM     26  O   UNL     1      22.768   1.583  47.615  0.00  0.00    +0.000 OA
ENDBRANCH   4  24
BRANCH   1  27
ATOM     27  C   UNL     1      19.760   3.476  51.591  0.00  0.00    +0.000 C 
BRANCH  27  29
ATOM     28  C   UNL     1      18.596   0.919  51.879  0.00  0.00    +0.000 C 
ATOM     29  C   UNL     1      19.133   2.100  51.746  0.00  0.00    +0.000 C 
BRANCH  28  30
ATOM     30  C   UNL     1      17.987  -0.415  52.043  0.00  0.00    +0.000 C 
BRANCH  30  32
ATOM     31  C   UNL     1      17.844  -2.433  53.586  0.00  0.00    +0.000 C 
ATOM     32  C   UNL     1      18.601  -1.161  53.230  0.00  0.00    +0.000 C 
ENDBRANCH  30  32
ENDBRANCH  28  30
ENDBRANCH  27  29
ENDBRANCH   1  27
TORSDOF 8
ENDMDL
