MODEL 1
REMARK VINA RESULT:    -9.316      0.000      0.000
REMARK INTER + INTRA:         -11.727
REMARK INTER:                 -11.222
REMARK INTRA:                  -0.505
REMARK UNBOUND:                -0.505
REMARK  Name = 
REMARK  9 active torsions:
REMARK  status: ('A' for Active; 'I' for Inactive)
REMARK    1  A    between atoms: C_1  and  C_2
REMARK    2  A    between atoms: C_2  and  C_3
REMARK    3  A    between atoms: C_3  and  C_4
REMARK    4  A    between atoms: C_16  and  C_17
REMARK    5  A    between atoms: C_16  and  C_18
REMARK    6  A    between atoms: C_22  and  C_23
REMARK    7  A    between atoms: C_23  and  C_24
REMARK    8  A    between atoms: C_25  and  C_26
REMARK    9  A    between atoms: C_27  and  O_28
REMARK                            x       y       z     vdW  Elec       q    Type
REMARK                         _______ _______ _______ _____ _____    ______ ____
ROOT
ATOM      1  C   UNL     1      22.195   0.997  52.587  0.00  0.00    +0.000 A 
ATOM      2  C   UNL     1      21.009   1.546  52.245  0.00  0.00    +0.000 A 
ATOM      3  C   UNL     1      20.789   2.984  52.173  0.00  0.00    +0.000 A 
ATOM      4  O   UNL     1      19.666   3.460  52.102  0.00  0.00    +0.000 OA
ATOM      5  O   UNL     1      21.914   3.753  52.182  0.00  0.00    +0.000 OA
ATOM      6  C   UNL     1      23.111   3.076  51.955  0.00  0.00    +0.000 A 
ATOM      7  C   UNL     1      23.938   3.600  50.992  0.00  0.00    +0.000 A 
ATOM      8  C   UNL     1      25.289   3.316  51.081  0.00  0.00    +0.000 A 
ATOM      9  C   UNL     1      25.734   2.359  52.012  0.00  0.00    +0.000 A 
ATOM     10  C   UNL     1      24.784   1.539  52.677  0.00  0.00    +0.000 A 
ATOM     11  C   UNL     1      23.410   1.865  52.564  0.00  0.00    +0.000 A 
ATOM     12  O   UNL     1      25.176   0.465  53.449  0.00  0.00    +0.000 OA
ATOM     13  C   UNL     1      26.583   0.076  53.459  0.00  0.00    +0.000 C 
ATOM     14  C   UNL     1      26.981  -0.289  54.901  0.00  0.00    +0.000 C 
ATOM     15  C   UNL     1      26.738  -1.168  52.573  0.00  0.00    +0.000 C 
ATOM     16  C   UNL     1      27.550   1.125  52.964  0.00  0.00    +0.000 C 
ATOM     17  C   UNL     1      27.156   2.186  52.264  0.00  0.00    +0.000 C 
ATOM     18  O   UNL     1      26.196   3.986  50.295  0.00  0.00    +0.000 OA
ATOM     19  C   UNL     1      25.691   4.702  49.147  0.00  0.00    +0.000 C 
ATOM     20  C   UNL     1      24.304   5.345  49.335  0.00  0.00    +0.000 C 
ATOM     21  C   UNL     1      24.252   6.494  50.360  0.00  0.00    +0.000 C 
ATOM     22  C   UNL     1      23.381   4.228  49.747  0.00  0.00    +0.000 C 
ENDROOT
BRANCH  19  23
ATOM     23  C   UNL     1      26.712   5.761  48.754  0.00  0.00    +0.000 C 
ATOM     24  C   UNL     1      28.102   5.164  48.527  0.00  0.00    +0.000 C 
ENDBRANCH  19  23
BRANCH  22  25
ATOM     25  O   UNL     1      22.040   4.695  49.787  0.00  0.00    +0.000 OA
ATOM     26  H   UNL     1      21.752   4.926  48.890  0.00  0.00    +0.000 HD
ENDBRANCH  22  25
BRANCH   1  27
ATOM     27  C   UNL     1      22.253  -0.498  52.628  0.00  0.00    +0.000 C 
BRANCH  27  29
ATOM     28  C   UNL     1      22.453  -1.110  55.060  0.00  0.00    +0.000 C 
ATOM     29  C   UNL     1      21.532  -1.060  53.851  0.00  0.00    +0.000 C 
ENDBRANCH  27  29
ENDBRANCH   1  27
TORSDOF 4
ENDMDL
MODEL 2
REMARK VINA RESULT:    -8.625      1.642      5.495
REMARK INTER + INTRA:         -10.894
REMARK INTER:                 -10.654
REMARK INTRA:                  -0.240
REMARK UNBOUND:                -0.505
REMARK  Name = 
REMARK  9 active torsions:
REMARK  status: ('A' for Active; 'I' for Inactive)
REMARK    1  A    between atoms: C_1  and  C_2
REMARK    2  A    between atoms: C_2  and  C_3
REMARK    3  A    between atoms: C_3  and  C_4
REMARK    4  A    between atoms: C_16  and  C_17
REMARK    5  A    between atoms: C_16  and  C_18
REMARK    6  A    between atoms: C_22  and  C_23
REMARK    7  A    between atoms: C_23  and  C_24
REMARK    8  A    between atoms: C_25  and  C_26
REMARK    9  A    between atoms: C_27  and  O_28
REMARK                            x       y       z     vdW  Elec       q    Type
REMARK                         _______ _______ _______ _____ _____    ______ ____
ROOT
ATOM      1  C   UNL     1      21.646   1.544  52.753  0.00  0.00    +0.000 A 
ATOM      2  C   UNL     1      21.295   0.569  53.619  0.00  0.00    +0.000 A 
ATOM      3  C   UNL     1      21.928  -0.743  53.641  0.00  0.00    +0.000 A 
ATOM      4  O   UNL     1      21.442  -1.681  54.255  0.00  0.00    +0.000 OA
ATOM      5  O   UNL     1      23.092  -0.847  52.940  0.00  0.00    +0.000 OA
ATOM      6  C   UNL     1      23.676   0.359  52.557  0.00  0.00    +0.000 A 
ATOM      7  C   UNL     1      25.007   0.518  52.855  0.00  0.00    +0.000 A 
ATOM      8  C   UNL     1      25.739   1.400  52.081  0.00  0.00    +0.000 A 
ATOM      9  C   UNL     1      25.069   2.238  51.168  0.00  0.00    +0.000 A 
ATOM     10  C   UNL     1      23.654   2.331  51.218  0.00  0.00    +0.000 A 
ATOM     11  C   UNL     1      22.940   1.407  52.020  0.00  0.00    +0.000 A 
ATOM     12  O   UNL     1      22.969   3.275  50.479  0.00  0.00    +0.000 OA
ATOM     13  C   UNL     1      23.725   4.290  49.752  0.00  0.00    +0.000 C 
ATOM     14  C   UNL     1      23.069   4.498  48.375  0.00  0.00    +0.000 C 
ATOM     15  C   UNL     1      23.639   5.603  50.544  0.00  0.00    +0.000 C 
ATOM     16  C   UNL     1      25.184   3.976  49.528  0.00  0.00    +0.000 C 
ATOM     17  C   UNL     1      25.824   3.027  50.208  0.00  0.00    +0.000 C 
ATOM     18  O   UNL     1      27.109   1.438  52.172  0.00  0.00    +0.000 OA
ATOM     19  C   UNL     1      27.723   0.820  53.324  0.00  0.00    +0.000 C 
ATOM     20  C   UNL     1      27.011  -0.442  53.847  0.00  0.00    +0.000 C 
ATOM     21  C   UNL     1      27.048  -1.652  52.895  0.00  0.00    +0.000 C 
ATOM     22  C   UNL     1      25.589  -0.031  54.125  0.00  0.00    +0.000 C 
ENDROOT
BRANCH  19  23
ATOM     23  C   UNL     1      29.173   0.502  52.984  0.00  0.00    +0.000 C 
ATOM     24  C   UNL     1      29.819  -0.419  54.020  0.00  0.00    +0.000 C 
ENDBRANCH  19  23
BRANCH  22  25
ATOM     25  O   UNL     1      24.893  -1.091  54.767  0.00  0.00    +0.000 OA
ATOM     26  H   UNL     1      24.405  -1.604  54.104  0.00  0.00    +0.000 HD
ENDBRANCH  22  25
BRANCH   1  27
ATOM     27  C   UNL     1      20.889   2.831  52.851  0.00  0.00    +0.000 C 
BRANCH  27  29
ATOM     28  C   UNL     1      19.696   4.131  51.057  0.00  0.00    +0.000 C 
ATOM     29  C   UNL     1      19.698   2.862  51.895  0.00  0.00    +0.000 C 
ENDBRANCH  27  29
ENDBRANCH   1  27
TORSDOF 4
ENDMDL
MODEL 3
REMARK VINA RESULT:    -8.502      1.618      7.151
REMARK INTER + INTRA:         -10.747
REMARK INTER:                 -10.337
REMARK INTRA:                  -0.409
REMARK UNBOUND:                -0.505
REMARK  Name = 
REMARK  9 active torsions:
REMARK  status: ('A' for Active; 'I' for Inactive)
REMARK    1  A    between atoms: C_1  and  C_2
REMARK    2  A    between atoms: C_2  and  C_3
REMARK    3  A    between atoms: C_3  and  C_4
REMARK    4  A    between atoms: C_16  and  C_17
REMARK    5  A    between atoms: C_16  and  C_18
REMARK    6  A    between atoms: C_22  and  C_23
REMARK    7  A    between atoms: C_23  and  C_24
REMARK    8  A    between atoms: C_25  and  C_26
REMARK    9  A    between atoms: C_27  and  O_28
REMARK                            x       y       z     vdW  Elec       q    Type
REMARK                         _______ _______ _______ _____ _____    ______ ____
ROOT
ATOM      1  C   UNL     1      25.567   2.830  50.894  0.00  0.00    +0.000 A 
ATOM      2  C   UNL     1      26.592   2.021  51.242  0.00  0.00    +0.000 A 
ATOM      3  C   UNL     1      26.687   1.372  52.543  0.00  0.00    +0.000 A 
ATOM      4  O   UNL     1      27.723   0.849  52.926  0.00  0.00    +0.000 OA
ATOM      5  O   UNL     1      25.548   1.383  53.292  0.00  0.00    +0.000 OA
ATOM      6  C   UNL     1      24.382   1.732  52.613  0.00  0.00    +0.000 A 
ATOM      7  C   UNL     1      23.310   0.888  52.763  0.00  0.00    +0.000 A 
ATOM      8  C   UNL     1      22.045   1.414  52.571  0.00  0.00    +0.000 A 
ATOM      9  C   UNL     1      21.910   2.712  52.043  0.00  0.00    +0.000 A 
ATOM     10  C   UNL     1      23.048   3.367  51.504  0.00  0.00    +0.000 A 
ATOM     11  C   UNL     1      24.326   2.798  51.725  0.00  0.00    +0.000 A 
ATOM     12  O   UNL     1      22.933   4.552  50.807  0.00  0.00    +0.000 OA
ATOM     13  C   UNL     1      21.602   5.061  50.490  0.00  0.00    +0.000 C 
ATOM     14  C   UNL     1      21.596   6.586  50.700  0.00  0.00    +0.000 C 
ATOM     15  C   UNL     1      21.320   4.765  49.010  0.00  0.00    +0.000 C 
ATOM     16  C   UNL     1      20.473   4.478  51.305  0.00  0.00    +0.000 C 
ATOM     17  C   UNL     1      20.608   3.361  52.018  0.00  0.00    +0.000 C 
ATOM     18  O   UNL     1      20.929   0.695  52.925  0.00  0.00    +0.000 OA
ATOM     19  C   UNL     1      21.085  -0.724  53.146  0.00  0.00    +0.000 C 
ATOM     20  C   UNL     1      22.428  -1.143  53.774  0.00  0.00    +0.000 C 
ATOM     21  C   UNL     1      22.650  -0.662  55.220  0.00  0.00    +0.000 C 
ATOM     22  C   UNL     1      23.499  -0.598  52.866  0.00  0.00    +0.000 C 
ENDROOT
BRANCH  19  23
ATOM     23  C   UNL     1      19.928  -1.206  54.011  0.00  0.00    +0.000 C 
ATOM     24  C   UNL     1      18.585  -1.096  53.288  0.00  0.00    +0.000 C 
ENDBRANCH  19  23
BRANCH  22  25
ATOM     25  O   UNL     1      24.773  -1.075  53.275  0.00  0.00    +0.000 OA
ATOM     26  H   UNL     1      24.954  -0.775  54.179  0.00  0.00    +0.000 HD
ENDBRANCH  22  25
BRANCH   1  27
ATOM     27  C   UNL     1      25.624   3.430  49.525  0.00  0.00    +0.000 C 
BRANCH  27  29
ATOM     28  C   UNL     1      27.545   4.846  48.725  0.00  0.00    +0.000 C 
ATOM     29  C   UNL     1      26.262   4.818  49.541  0.00  0.00    +0.000 C 
ENDBRANCH  27  29
ENDBRANCH   1  27
TORSDOF 4
ENDMDL
MODEL 4
REMARK VINA RESULT:    -8.300      1.581      5.865
REMARK INTER + INTRA:         -10.503
REMARK INTER:                  -9.967
REMARK INTRA:                  -0.536
REMARK UNBOUND:                -0.505
REMARK  Name = 
REMARK  9 active torsions:
REMARK  status: ('A' for Active; 'I' for Inactive)
REMARK    1  A    between atoms: C_1  and  C_2
REMARK    2  A    between atoms: C_2  and  C_3
REMARK    3  A    between atoms: C_3  and  C_4
REMARK    4  A    between atoms: C_16  and  C_17
REMARK    5  A    between atoms: C_16  and  C_18
REMARK    6  A    between atoms: C_22  and  C_23
REMARK    7  A    between atoms: C_23  and  C_24
REMARK    8  A    between atoms: C_25  and  C_26
REMARK    9  A    between atoms: C_27  and  O_28
REMARK                            x       y       z     vdW  Elec       q    Type
REMARK                         _______ _______ _______ _____ _____    ______ ____
ROOT
ATOM      1  C   UNL     1      22.929   4.602  49.346  0.00  0.00    +0.000 A 
ATOM      2  C   UNL     1      23.986   5.379  49.022  0.00  0.00    +0.000 A 
ATOM      3  C   UNL     1      25.072   5.671  49.948  0.00  0.00    +0.000 A 
ATOM      4  O   UNL     1      25.883   6.558  49.728  0.00  0.00    +0.000 OA
ATOM      5  O   UNL     1      25.125   4.887  51.061  0.00  0.00    +0.000 OA
ATOM      6  C   UNL     1      24.340   3.736  51.027  0.00  0.00    +0.000 A 
ATOM      7  C   UNL     1      24.963   2.559  51.358  0.00  0.00    +0.000 A 
ATOM      8  C   UNL     1      24.177   1.527  51.838  0.00  0.00    +0.000 A 
ATOM      9  C   UNL     1      22.775   1.643  51.781  0.00  0.00    +0.000 A 
ATOM     10  C   UNL     1      22.193   2.699  51.032  0.00  0.00    +0.000 A 
ATOM     11  C   UNL     1      23.032   3.739  50.561  0.00  0.00    +0.000 A 
ATOM     12  O   UNL     1      20.835   2.745  50.788  0.00  0.00    +0.000 OA
ATOM     13  C   UNL     1      20.007   1.609  51.181  0.00  0.00    +0.000 C 
ATOM     14  C   UNL     1      18.693   2.143  51.780  0.00  0.00    +0.000 C 
ATOM     15  C   UNL     1      19.680   0.801  49.916  0.00  0.00    +0.000 C 
ATOM     16  C   UNL     1      20.627   0.670  52.187  0.00  0.00    +0.000 C 
ATOM     17  C   UNL     1      21.931   0.668  52.455  0.00  0.00    +0.000 C 
ATOM     18  O   UNL     1      24.754   0.413  52.399  0.00  0.00    +0.000 OA
ATOM     19  C   UNL     1      26.156   0.182  52.146  0.00  0.00    +0.000 C 
ATOM     20  C   UNL     1      27.020   1.454  52.045  0.00  0.00    +0.000 C 
ATOM     21  C   UNL     1      27.154   2.256  53.354  0.00  0.00    +0.000 C 
ATOM     22  C   UNL     1      26.390   2.300  50.970  0.00  0.00    +0.000 C 
ENDROOT
BRANCH  19  23
ATOM     23  C   UNL     1      26.697  -0.735  53.235  0.00  0.00    +0.000 C 
ATOM     24  C   UNL     1      27.216  -2.057  52.668  0.00  0.00    +0.000 C 
ENDBRANCH  19  23
BRANCH  22  25
ATOM     25  O   UNL     1      27.213   3.424  50.690  0.00  0.00    +0.000 OA
ATOM     26  H   UNL     1      27.774   3.612  51.458  0.00  0.00    +0.000 HD
ENDBRANCH  22  25
BRANCH   1  27
ATOM     27  C   UNL     1      21.890   4.411  48.287  0.00  0.00    +0.000 C 
BRANCH  27  29
ATOM     28  C   UNL     1      22.381   2.040  47.601  0.00  0.00    +0.000 C 
ATOM     29  C   UNL     1      22.385   3.497  47.167  0.00  0.00    +0.000 C 
ENDBRANCH  27  29
ENDBRANCH   1  27
TORSDOF 4
ENDMDL
MODEL 5
REMARK VINA RESULT:    -7.913      1.977      5.069
REMARK INTER + INTRA:         -10.037
REMARK INTER:                  -9.520
REMARK INTRA:                  -0.517
REMARK UNBOUND:                -0.505
REMARK  Name = 
REMARK  9 active torsions:
REMARK  status: ('A' for Active; 'I' for Inactive)
REMARK    1  A    between atoms: C_1  and  C_2
REMARK    2  A    between atoms: C_2  and  C_3
REMARK    3  A    between atoms: C_3  and  C_4
REMARK    4  A    between atoms: C_16  and  C_17
REMARK    5  A    between atoms: C_16  and  C_18
REMARK    6  A    between atoms: C_22  and  C_23
REMARK    7  A    between atoms: C_23  and  C_24
REMARK    8  A    between atoms: C_25  and  C_26
REMARK    9  A    between atoms: C_27  and  O_28
REMARK                            x       y       z     vdW  Elec       q    Type
REMARK                         _______ _______ _______ _____ _____    ______ ____
ROOT
ATOM      1  C   UNL     1      22.642   2.117  50.547  0.00  0.00    +0.000 A 
ATOM      2  C   UNL     1      23.267   3.020  49.761  0.00  0.00    +0.000 A 
ATOM      3  C   UNL     1      24.328   3.894  50.242  0.00  0.00    +0.000 A 
ATOM      4  O   UNL     1      24.708   4.859  49.596  0.00  0.00    +0.000 OA
ATOM      5  O   UNL     1      24.866   3.559  51.448  0.00  0.00    +0.000 OA
ATOM      6  C   UNL     1      24.557   2.283  51.914  0.00  0.00    +0.000 A 
ATOM      7  C   UNL     1      25.613   1.507  52.325  0.00  0.00    +0.000 A 
ATOM      8  C   UNL     1      25.356   0.502  53.240  0.00  0.00    +0.000 A 
ATOM      9  C   UNL     1      24.022   0.182  53.558  0.00  0.00    +0.000 A 
ATOM     10  C   UNL     1      22.970   0.727  52.775  0.00  0.00    +0.000 A 
ATOM     11  C   UNL     1      23.273   1.756  51.852  0.00  0.00    +0.000 A 
ATOM     12  O   UNL     1      21.667   0.296  52.924  0.00  0.00    +0.000 OA
ATOM     13  C   UNL     1      21.392  -0.843  53.795  0.00  0.00    +0.000 C 
ATOM     14  C   UNL     1      20.111  -0.550  54.597  0.00  0.00    +0.000 C 
ATOM     15  C   UNL     1      21.148  -2.071  52.906  0.00  0.00    +0.000 C 
ATOM     16  C   UNL     1      22.485  -1.188  54.777  0.00  0.00    +0.000 C 
ATOM     17  C   UNL     1      23.728  -0.726  54.655  0.00  0.00    +0.000 C 
ATOM     18  O   UNL     1      26.389  -0.156  53.862  0.00  0.00    +0.000 OA
ATOM     19  C   UNL     1      27.707  -0.038  53.284  0.00  0.00    +0.000 C 
ATOM     20  C   UNL     1      28.019   1.327  52.642  0.00  0.00    +0.000 C 
ATOM     21  C   UNL     1      28.098   2.508  53.628  0.00  0.00    +0.000 C 
ATOM     22  C   UNL     1      26.938   1.563  51.620  0.00  0.00    +0.000 C 
ENDROOT
BRANCH  19  23
ATOM     23  C   UNL     1      28.735  -0.360  54.360  0.00  0.00    +0.000 C 
ATOM     24  C   UNL     1      30.045  -0.882  53.767  0.00  0.00    +0.000 C 
ENDBRANCH  19  23
BRANCH  22  25
ATOM     25  O   UNL     1      27.233   2.726  50.859  0.00  0.00    +0.000 OA
ATOM     26  H   UNL     1      27.655   3.386  51.430  0.00  0.00    +0.000 HD
ENDBRANCH  22  25
BRANCH   1  27
ATOM     27  C   UNL     1      21.563   1.303  49.904  0.00  0.00    +0.000 C 
BRANCH  27  29
ATOM     28  C   UNL     1      19.193   0.814  50.596  0.00  0.00    +0.000 C 
ATOM     29  C   UNL     1      20.178   1.891  50.168  0.00  0.00    +0.000 C 
ENDBRANCH  27  29
ENDBRANCH   1  27
TORSDOF 4
ENDMDL
MODEL 6
REMARK VINA RESULT:    -7.840      1.887      4.987
REMARK INTER + INTRA:          -9.949
REMARK INTER:                  -9.377
REMARK INTRA:                  -0.572
REMARK UNBOUND:                -0.505
REMARK  Name = 
REMARK  9 active torsions:
REMARK  status: ('A' for Active; 'I' for Inactive)
REMARK    1  A    between atoms: C_1  and  C_2
REMARK    2  A    between atoms: C_2  and  C_3
REMARK    3  A    between atoms: C_3  and  C_4
REMARK    4  A    between atoms: C_16  and  C_17
REMARK    5  A    between atoms: C_16  and  C_18
REMARK    6  A    between atoms: C_22  and  C_23
REMARK    7  A    between atoms: C_23  and  C_24
REMARK    8  A    between atoms: C_25  and  C_26
REMARK    9  A    between atoms: C_27  and  O_28
REMARK                            x       y       z     vdW  Elec       q    Type
REMARK                         _______ _______ _______ _____ _____    ______ ____
ROOT
ATOM      1  C   UNL     1      22.417   0.033  53.363  0.00  0.00    +0.000 A 
ATOM      2  C   UNL     1      23.610  -0.210  53.950  0.00  0.00    +0.000 A 
ATOM      3  C   UNL     1      24.876  -0.159  53.231  0.00  0.00    +0.000 A 
ATOM      4  O   UNL     1      25.905  -0.612  53.709  0.00  0.00    +0.000 OA
ATOM      5  O   UNL     1      24.833   0.431  52.003  0.00  0.00    +0.000 OA
ATOM      6  C   UNL     1      23.683   1.167  51.726  0.00  0.00    +0.000 A 
ATOM      7  C   UNL     1      23.869   2.443  51.255  0.00  0.00    +0.000 A 
ATOM      8  C   UNL     1      22.856   3.005  50.499  0.00  0.00    +0.000 A 
ATOM      9  C   UNL     1      21.614   2.347  50.411  0.00  0.00    +0.000 A 
ATOM     10  C   UNL     1      21.344   1.251  51.272  0.00  0.00    +0.000 A 
ATOM     11  C   UNL     1      22.409   0.702  52.027  0.00  0.00    +0.000 A 
ATOM     12  O   UNL     1      20.082   0.698  51.358  0.00  0.00    +0.000 OA
ATOM     13  C   UNL     1      18.975   1.349  50.663  0.00  0.00    +0.000 C 
ATOM     14  C   UNL     1      18.090   0.262  50.025  0.00  0.00    +0.000 C 
ATOM     15  C   UNL     1      18.145   2.114  51.704  0.00  0.00    +0.000 C 
ATOM     16  C   UNL     1      19.371   2.320  49.578  0.00  0.00    +0.000 C 
ATOM     17  C   UNL     1      20.605   2.808  49.470  0.00  0.00    +0.000 C 
ATOM     18  O   UNL     1      23.066   4.175  49.810  0.00  0.00    +0.000 OA
ATOM     19  C   UNL     1      24.209   4.976  50.178  0.00  0.00    +0.000 C 
ATOM     20  C   UNL     1      25.452   4.180  50.619  0.00  0.00    +0.000 C 
ATOM     21  C   UNL     1      26.112   3.338  49.511  0.00  0.00    +0.000 C 
ATOM     22  C   UNL     1      24.999   3.298  51.753  0.00  0.00    +0.000 C 
ENDROOT
BRANCH  19  23
ATOM     23  C   UNL     1      24.556   5.886  49.007  0.00  0.00    +0.000 C 
ATOM     24  C   UNL     1      23.496   5.835  47.906  0.00  0.00    +0.000 C 
ENDBRANCH  19  23
BRANCH  22  25
ATOM     25  O   UNL     1      26.117   2.641  52.335  0.00  0.00    +0.000 OA
ATOM     26  H   UNL     1      25.869   1.736  52.578  0.00  0.00    +0.000 HD
ENDBRANCH  22  25
BRANCH   1  27
ATOM     27  C   UNL     1      21.207  -0.073  54.236  0.00  0.00    +0.000 C 
BRANCH  27  29
ATOM     28  C   UNL     1      19.121  -1.353  53.652  0.00  0.00    +0.000 C 
ATOM     29  C   UNL     1      20.558  -1.452  54.140  0.00  0.00    +0.000 C 
ENDBRANCH  27  29
ENDBRANCH   1  27
TORSDOF 4
ENDMDL
MODEL 7
REMARK VINA RESULT:    -7.744      1.953      5.791
REMARK INTER + INTRA:          -9.833
REMARK INTER:                  -9.297
REMARK INTRA:                  -0.536
REMARK UNBOUND:                -0.505
REMARK  Name = 
REMARK  9 active torsions:
REMARK  status: ('A' for Active; 'I' for Inactive)
REMARK    1  A    between atoms: C_1  and  C_2
REMARK    2  A    between atoms: C_2  and  C_3
REMARK    3  A    between atoms: C_3  and  C_4
REMARK    4  A    between atoms: C_16  and  C_17
REMARK    5  A    between atoms: C_16  and  C_18
REMARK    6  A    between atoms: C_22  and  C_23
REMARK    7  A    between atoms: C_23  and  C_24
REMARK    8  A    between atoms: C_25  and  C_26
REMARK    9  A    between atoms: C_27  and  O_28
REMARK                            x       y       z     vdW  Elec       q    Type
REMARK                         _______ _______ _______ _____ _____    ______ ____
ROOT
ATOM      1  C   UNL     1      24.226   3.544  49.684  0.00  0.00    +0.000 A 
ATOM      2  C   UNL     1      23.473   4.180  48.760  0.00  0.00    +0.000 A 
ATOM      3  C   UNL     1      22.363   3.544  48.063  0.00  0.00    +0.000 A 
ATOM      4  O   UNL     1      21.856   4.045  47.070  0.00  0.00    +0.000 OA
ATOM      5  O   UNL     1      21.931   2.366  48.594  0.00  0.00    +0.000 OA
ATOM      6  C   UNL     1      22.387   2.080  49.880  0.00  0.00    +0.000 A 
ATOM      7  C   UNL     1      21.435   1.722  50.802  0.00  0.00    +0.000 A 
ATOM      8  C   UNL     1      21.840   0.954  51.879  0.00  0.00    +0.000 A 
ATOM      9  C   UNL     1      23.214   0.741  52.098  0.00  0.00    +0.000 A 
ATOM     10  C   UNL     1      24.162   1.496  51.359  0.00  0.00    +0.000 A 
ATOM     11  C   UNL     1      23.709   2.268  50.261  0.00  0.00    +0.000 A 
ATOM     12  O   UNL     1      25.507   1.463  51.670  0.00  0.00    +0.000 OA
ATOM     13  C   UNL     1      25.939   0.757  52.872  0.00  0.00    +0.000 C 
ATOM     14  C   UNL     1      27.231  -0.016  52.550  0.00  0.00    +0.000 C 
ATOM     15  C   UNL     1      26.246   1.804  53.953  0.00  0.00    +0.000 C 
ATOM     16  C   UNL     1      24.943  -0.223  53.443  0.00  0.00    +0.000 C 
ATOM     17  C   UNL     1      23.657  -0.218  53.098  0.00  0.00    +0.000 C 
ATOM     18  O   UNL     1      20.912   0.372  52.709  0.00  0.00    +0.000 OA
ATOM     19  C   UNL     1      19.557   0.870  52.657  0.00  0.00    +0.000 C 
ATOM     20  C   UNL     1      19.079   1.319  51.263  0.00  0.00    +0.000 C 
ATOM     21  C   UNL     1      18.947   0.190  50.224  0.00  0.00    +0.000 C 
ATOM     22  C   UNL     1      20.072   2.352  50.796  0.00  0.00    +0.000 C 
ENDROOT
BRANCH  19  23
ATOM     23  C   UNL     1      18.629  -0.204  53.209  0.00  0.00    +0.000 C 
ATOM     24  C   UNL     1      19.387  -1.474  53.598  0.00  0.00    +0.000 C 
ENDBRANCH  19  23
BRANCH  22  25
ATOM     25  O   UNL     1      19.624   2.945  49.586  0.00  0.00    +0.000 OA
ATOM     26  H   UNL     1      19.292   3.838  49.768  0.00  0.00    +0.000 HD
ENDBRANCH  22  25
BRANCH   1  27
ATOM     27  C   UNL     1      25.338   4.334  50.299  0.00  0.00    +0.000 C 
BRANCH  27  29
ATOM     28  C   UNL     1      27.059   5.342  48.766  0.00  0.00    +0.000 C 
ATOM     29  C   UNL     1      26.661   4.114  49.569  0.00  0.00    +0.000 C 
ENDBRANCH  27  29
ENDBRANCH   1  27
TORSDOF 4
ENDMDL
MODEL 8
REMARK VINA RESULT:    -7.372      1.763      5.083
REMARK INTER + INTRA:          -9.386
REMARK INTER:                  -8.837
REMARK INTRA:                  -0.548
REMARK UNBOUND:                -0.505
REMARK  Name = 
REMARK  9 active torsions:
REMARK  status: ('A' for Active; 'I' for Inactive)
REMARK    1  A    between atoms: C_1  and  C_2
REMARK    2  A    between atoms: C_2  and  C_3
REMARK    3  A    between atoms: C_3  and  C_4
REMARK    4  A    between atoms: C_16  and  C_17
REMARK    5  A    between atoms: C_16  and  C_18
REMARK    6  A    between atoms: C_22  and  C_23
REMARK    7  A    between atoms: C_23  and  C_24
REMARK    8  A    between atoms: C_25  and  C_26
REMARK    9  A    between atoms: C_27  and  O_28
REMARK                            x       y       z     vdW  Elec       q    Type
REMARK                         _______ _______ _______ _____ _____    ______ ____
ROOT
ATOM      1  C   UNL     1      25.350   1.862  51.985  0.00  0.00    +0.000 A 
ATOM      2  C   UNL     1      26.234   2.670  51.360  0.00  0.00    +0.000 A 
ATOM      3  C   UNL     1      26.028   3.183  50.013  0.00  0.00    +0.000 A 
ATOM      4  O   UNL     1      26.934   3.704  49.378  0.00  0.00    +0.000 OA
ATOM      5  O   UNL     1      24.766   3.050  49.517  0.00  0.00    +0.000 OA
ATOM      6  C   UNL     1      23.782   2.728  50.450  0.00  0.00    +0.000 A 
ATOM      7  C   UNL     1      22.653   3.509  50.445  0.00  0.00    +0.000 A 
ATOM      8  C   UNL     1      21.486   2.957  50.940  0.00  0.00    +0.000 A 
ATOM      9  C   UNL     1      21.536   1.716  51.604  0.00  0.00    +0.000 A 
ATOM     10  C   UNL     1      22.796   1.166  51.957  0.00  0.00    +0.000 A 
ATOM     11  C   UNL     1      23.968   1.759  51.427  0.00  0.00    +0.000 A 
ATOM     12  O   UNL     1      22.894   0.056  52.772  0.00  0.00    +0.000 OA
ATOM     13  C   UNL     1      21.685  -0.469  53.401  0.00  0.00    +0.000 C 
ATOM     14  C   UNL     1      21.729  -2.007  53.340  0.00  0.00    +0.000 C 
ATOM     15  C   UNL     1      21.689  -0.032  54.873  0.00  0.00    +0.000 C 
ATOM     16  C   UNL     1      20.384  -0.018  52.784  0.00  0.00    +0.000 C 
ATOM     17  C   UNL     1      20.307   1.023  51.957  0.00  0.00    +0.000 C 
ATOM     18  O   UNL     1      20.280   3.591  50.757  0.00  0.00    +0.000 OA
ATOM     19  C   UNL     1      20.305   4.984  50.376  0.00  0.00    +0.000 C 
ATOM     20  C   UNL     1      21.468   5.388  49.450  0.00  0.00    +0.000 C 
ATOM     21  C   UNL     1      21.424   4.768  48.041  0.00  0.00    +0.000 C 
ATOM     22  C   UNL     1      22.729   4.983  50.167  0.00  0.00    +0.000 C 
ENDROOT
BRANCH  19  23
ATOM     23  C   UNL     1      18.972   5.327  49.726  0.00  0.00    +0.000 C 
ATOM     24  C   UNL     1      17.830   4.462  50.261  0.00  0.00    +0.000 C 
ENDBRANCH  19  23
BRANCH  22  25
ATOM     25  O   UNL     1      23.865   5.464  49.462  0.00  0.00    +0.000 OA
ATOM     26  H   UNL     1      24.555   4.783  49.459  0.00  0.00    +0.000 HD
ENDBRANCH  22  25
BRANCH   1  27
ATOM     27  C   UNL     1      25.715   1.410  53.364  0.00  0.00    +0.000 C 
BRANCH  27  29
ATOM     28  C   UNL     1      26.468  -0.859  52.578  0.00  0.00    +0.000 C 
ATOM     29  C   UNL     1      26.858   0.396  53.343  0.00  0.00    +0.000 C 
ENDBRANCH  27  29
ENDBRANCH   1  27
TORSDOF 4
ENDMDL
MODEL 9
REMARK VINA RESULT:    -7.026      1.979      5.281
REMARK INTER + INTRA:          -8.969
REMARK INTER:                  -8.573
REMARK INTRA:                  -0.396
REMARK UNBOUND:                -0.505
REMARK  Name = 
REMARK  9 active torsions:
REMARK  status: ('A' for Active; 'I' for Inactive)
REMARK    1  A    between atoms: C_1  and  C_2
REMARK    2  A    between atoms: C_2  and  C_3
REMARK    3  A    between atoms: C_3  and  C_4
REMARK    4  A    between atoms: C_16  and  C_17
REMARK    5  A    between atoms: C_16  and  C_18
REMARK    6  A    between atoms: C_22  and  C_23
REMARK    7  A    between atoms: C_23  and  C_24
REMARK    8  A    between atoms: C_25  and  C_26
REMARK    9  A    between atoms: C_27  and  O_28
REMARK                            x       y       z     vdW  Elec       q    Type
REMARK                         _______ _______ _______ _____ _____    ______ ____
ROOT
ATOM      1  C   UNL     1      25.146   2.451  51.141  0.00  0.00    +0.000 A 
ATOM      2  C   UNL     1      26.310   3.001  50.734  0.00  0.00    +0.000 A 
ATOM      3  C   UNL     1      26.408   3.903  49.594  0.00  0.00    +0.000 A 
ATOM      4  O   UNL     1      27.485   4.195  49.095  0.00  0.00    +0.000 OA
ATOM      5  O   UNL     1      25.226   4.400  49.131  0.00  0.00    +0.000 OA
ATOM      6  C   UNL     1      24.130   4.232  49.975  0.00  0.00    +0.000 A 
ATOM      7  C   UNL     1      23.379   5.351  50.234  0.00  0.00    +0.000 A 
ATOM      8  C   UNL     1      22.057   5.169  50.601  0.00  0.00    +0.000 A 
ATOM      9  C   UNL     1      21.592   3.871  50.887  0.00  0.00    +0.000 A 
ATOM     10  C   UNL     1      22.527   2.811  51.021  0.00  0.00    +0.000 A 
ATOM     11  C   UNL     1      23.870   3.036  50.632  0.00  0.00    +0.000 A 
ATOM     12  O   UNL     1      22.143   1.569  51.486  0.00  0.00    +0.000 OA
ATOM     13  C   UNL     1      20.785   1.390  51.990  0.00  0.00    +0.000 C 
ATOM     14  C   UNL     1      20.254   0.031  51.498  0.00  0.00    +0.000 C 
ATOM     15  C   UNL     1      20.846   1.371  53.524  0.00  0.00    +0.000 C 
ATOM     16  C   UNL     1      19.794   2.451  51.576  0.00  0.00    +0.000 C 
ATOM     17  C   UNL     1      20.171   3.627  51.079  0.00  0.00    +0.000 C 
ATOM     18  O   UNL     1      21.193   6.237  50.651  0.00  0.00    +0.000 OA
ATOM     19  C   UNL     1      21.764   7.563  50.676  0.00  0.00    +0.000 C 
ATOM     20  C   UNL     1      23.057   7.734  49.856  0.00  0.00    +0.000 C 
ATOM     21  C   UNL     1      22.885   7.590  48.332  0.00  0.00    +0.000 C 
ATOM     22  C   UNL     1      24.021   6.701  50.378  0.00  0.00    +0.000 C 
ENDROOT
BRANCH  19  23
ATOM     23  C   UNL     1      20.707   8.550  50.202  0.00  0.00    +0.000 C 
ATOM     24  C   UNL     1      19.518   7.848  49.542  0.00  0.00    +0.000 C 
ENDBRANCH  19  23
BRANCH  22  25
ATOM     25  O   UNL     1      25.301   6.889  49.792  0.00  0.00    +0.000 OA
ATOM     26  H   UNL     1      25.343   6.413  48.949  0.00  0.00    +0.000 HD
ENDBRANCH  22  25
BRANCH   1  27
ATOM     27  C   UNL     1      25.216   1.534  52.321  0.00  0.00    +0.000 C 
BRANCH  27  29
ATOM     28  C   UNL     1      26.147  -0.620  53.232  0.00  0.00    +0.000 C 
ATOM     29  C   UNL     1      26.179   0.373  52.080  0.00  0.00    +0.000 C 
ENDBRANCH  27  29
ENDBRANCH   1  27
TORSDOF 4
ENDMDL
