MODEL 1
REMARK VINA RESULT:    -8.757      0.000      0.000
REMARK INTER + INTRA:         -12.192
REMARK INTER:                 -11.317
REMARK INTRA:                  -0.875
REMARK UNBOUND:                -0.875
REMARK  Name = 
REMARK  7 active torsions:
REMARK  status: ('A' for Active; 'I' for Inactive)
REMARK    1  A    between atoms: C_1  and  C_2
REMARK    2  A    between atoms: C_2  and  N_3
REMARK    3  A    between atoms: C_7  and  N_8
REMARK    4  A    between atoms: N_8  and  C_9
REMARK    5  A    between atoms: C_9  and  C_10
REMARK    6  A    between atoms: C_9  and  C_11
REMARK    7  A    between atoms: C_19  and  C_20
REMARK                            x       y       z     vdW  Elec       q    Type
REMARK                         _______ _______ _______ _____ _____    ______ ____
ROOT
ATOM      1  N   UNL     1      27.809   0.746  53.878  0.00  0.00    +0.000 N 
ATOM      2  N   UNL     1      28.323   1.771  53.172  0.00  0.00    +0.000 NA
ATOM      3  C   UNL     1      27.253   2.298  52.578  0.00  0.00    +0.000 A 
ATOM      4  C   UNL     1      26.040   1.622  52.871  0.00  0.00    +0.000 A 
ATOM      5  C   UNL     1      24.664   1.734  52.541  0.00  0.00    +0.000 A 
ATOM      6  C   UNL     1      23.786   0.764  53.152  0.00  0.00    +0.000 A 
ATOM      7  C   UNL     1      22.378   0.725  52.942  0.00  0.00    +0.000 A 
ATOM      8  C   UNL     1      21.549  -0.246  53.531  0.00  0.00    +0.000 A 
ATOM      9  C   UNL     1      22.134  -1.214  54.340  0.00  0.00    +0.000 A 
ATOM     10  C   UNL     1      23.517  -1.190  54.554  0.00  0.00    +0.000 A 
ATOM     11  C   UNL     1      24.357  -0.231  54.001  0.00  0.00    +0.000 A 
ATOM     12  N   UNL     1      25.656  -0.319  54.307  0.00  0.00    +0.000 NA
ATOM     13  C   UNL     1      26.443   0.604  53.737  0.00  0.00    +0.000 A 
ENDROOT
BRANCH   1  15
ATOM     14  C   UNL     1      29.816  -0.741  54.009  0.00  0.00    +0.000 C 
ATOM     15  C   UNL     1      28.719   0.018  54.736  0.00  0.00    +0.000 C 
ENDBRANCH   1  15
BRANCH   5  16
ATOM     16  N   UNL     1      24.127   2.678  51.656  0.00  0.00    +0.000 N 
ATOM     17  H   UNL     1      23.427   3.279  51.999  0.00  0.00    +0.000 HD
BRANCH  16  18
ATOM     18  C   UNL     1      24.531   2.838  50.263  0.00  0.00    +0.000 C 
ATOM     19  C   UNL     1      23.248   2.862  49.421  0.00  0.00    +0.000 C 
BRANCH  18  20
ATOM     20  C   UNL     1      25.491   4.056  50.072  0.00  0.00    +0.000 C 
ATOM     21  C   UNL     1      24.761   5.345  49.606  0.00  0.00    +0.000 C 
ATOM     22  C   UNL     1      25.724   6.512  49.365  0.00  0.00    +0.000 C 
ATOM     23  C   UNL     1      26.824   6.114  48.391  0.00  0.00    +0.000 C 
ATOM     24  C   UNL     1      27.609   4.927  48.931  0.00  0.00    +0.000 C 
ATOM     25  C   UNL     1      26.695   3.730  49.177  0.00  0.00    +0.000 C 
ENDBRANCH  18  20
ENDBRANCH  16  18
ENDBRANCH   5  16
BRANCH   8  26
ATOM     26  C   UNL     1      20.139  -0.232  53.304  0.00  0.00    +0.000 C 
ATOM     27  N   UNL     1      18.986  -0.211  53.120  0.00  0.00    +0.000 NA
ENDBRANCH   8  26
TORSDOF 5
ENDMDL
MODEL 2
REMARK VINA RESULT:    -8.708      1.903      5.222
REMARK INTER + INTRA:         -12.129
REMARK INTER:                 -10.793
REMARK INTRA:                  -1.336
REMARK UNBOUND:                -0.875
REMARK  Name = 
REMARK  7 active torsions:
REMARK  status: ('A' for Active; 'I' for Inactive)
REMARK    1  A    between atoms: C_1  and  C_2
REMARK    2  A    between atoms: C_2  and  N_3
REMARK    3  A    between atoms: C_7  and  N_8
REMARK    4  A    between atoms: N_8  and  C_9
REMARK    5  A    between atoms: C_9  and  C_10
REMARK    6  A    between atoms: C_9  and  C_11
REMARK    7  A    between atoms: C_19  and  C_20
REMARK                            x       y       z     vdW  Elec       q    Type
REMARK                         _______ _______ _______ _____ _____    ______ ____
ROOT
ATOM      1  N   UNL     1      27.913   0.670  54.015  0.00  0.00    +0.000 N 
ATOM      2  N   UNL     1      27.313  -0.022  55.003  0.00  0.00    +0.000 NA
ATOM      3  C   UNL     1      26.016   0.119  54.729  0.00  0.00    +0.000 A 
ATOM      4  C   UNL     1      25.753   0.911  53.581  0.00  0.00    +0.000 A 
ATOM      5  C   UNL     1      24.624   1.370  52.854  0.00  0.00    +0.000 A 
ATOM      6  C   UNL     1      24.907   2.165  51.681  0.00  0.00    +0.000 A 
ATOM      7  C   UNL     1      23.903   2.707  50.829  0.00  0.00    +0.000 A 
ATOM      8  C   UNL     1      24.206   3.498  49.708  0.00  0.00    +0.000 A 
ATOM      9  C   UNL     1      25.541   3.773  49.431  0.00  0.00    +0.000 A 
ATOM     10  C   UNL     1      26.539   3.250  50.262  0.00  0.00    +0.000 A 
ATOM     11  C   UNL     1      26.269   2.448  51.365  0.00  0.00    +0.000 A 
ATOM     12  N   UNL     1      27.323   2.003  52.058  0.00  0.00    +0.000 NA
ATOM     13  C   UNL     1      27.029   1.254  53.130  0.00  0.00    +0.000 A 
ENDROOT
BRANCH   1  15
ATOM     14  C   UNL     1      29.945  -0.733  53.618  0.00  0.00    +0.000 C 
ATOM     15  C   UNL     1      29.358   0.625  53.965  0.00  0.00    +0.000 C 
ENDBRANCH   1  15
BRANCH   5  16
ATOM     16  N   UNL     1      23.290   1.136  53.214  0.00  0.00    +0.000 N 
ATOM     17  H   UNL     1      22.874   1.760  53.852  0.00  0.00    +0.000 HD
BRANCH  16  18
ATOM     18  C   UNL     1      22.472   0.037  52.712  0.00  0.00    +0.000 C 
ATOM     19  C   UNL     1      22.275  -0.946  53.874  0.00  0.00    +0.000 C 
BRANCH  18  20
ATOM     20  C   UNL     1      21.165   0.550  52.028  0.00  0.00    +0.000 C 
ATOM     21  C   UNL     1      21.246   0.556  50.478  0.00  0.00    +0.000 C 
ATOM     22  C   UNL     1      19.980   1.119  49.824  0.00  0.00    +0.000 C 
ATOM     23  C   UNL     1      19.660   2.504  50.368  0.00  0.00    +0.000 C 
ATOM     24  C   UNL     1      19.458   2.450  51.876  0.00  0.00    +0.000 C 
ATOM     25  C   UNL     1      20.698   1.906  52.577  0.00  0.00    +0.000 C 
ENDBRANCH  18  20
ENDBRANCH  16  18
ENDBRANCH   5  16
BRANCH   8  26
ATOM     26  C   UNL     1      23.164   4.003  48.871  0.00  0.00    +0.000 C 
ATOM     27  N   UNL     1      22.310   4.423  48.194  0.00  0.00    +0.000 NA
ENDBRANCH   8  26
TORSDOF 5
ENDMDL
MODEL 3
REMARK VINA RESULT:    -8.558      1.787      3.481
REMARK INTER + INTRA:         -11.935
REMARK INTER:                 -10.511
REMARK INTRA:                  -1.424
REMARK UNBOUND:                -0.875
REMARK  Name = 
REMARK  7 active torsions:
REMARK  status: ('A' for Active; 'I' for Inactive)
REMARK    1  A    between atoms: C_1  and  C_2
REMARK    2  A    between atoms: C_2  and  N_3
REMARK    3  A    between atoms: C_7  and  N_8
REMARK    4  A    between atoms: N_8  and  C_9
REMARK    5  A    between atoms: C_9  and  C_10
REMARK    6  A    between atoms: C_9  and  C_11
REMARK    7  A    between atoms: C_19  and  C_20
REMARK                            x       y       z     vdW  Elec       q    Type
REMARK                         _______ _______ _______ _____ _____    ______ ____
ROOT
ATOM      1  N   UNL     1      27.252   0.527  53.566  0.00  0.00    +0.000 N 
ATOM      2  N   UNL     1      27.731   1.323  52.591  0.00  0.00    +0.000 NA
ATOM      3  C   UNL     1      26.641   1.636  51.890  0.00  0.00    +0.000 A 
ATOM      4  C   UNL     1      25.450   1.040  52.382  0.00  0.00    +0.000 A 
ATOM      5  C   UNL     1      24.069   1.023  52.056  0.00  0.00    +0.000 A 
ATOM      6  C   UNL     1      23.223   0.244  52.931  0.00  0.00    +0.000 A 
ATOM      7  C   UNL     1      21.815   0.114  52.763  0.00  0.00    +0.000 A 
ATOM      8  C   UNL     1      21.019  -0.671  53.615  0.00  0.00    +0.000 A 
ATOM      9  C   UNL     1      21.637  -1.358  54.654  0.00  0.00    +0.000 A 
ATOM     10  C   UNL     1      23.021  -1.241  54.830  0.00  0.00    +0.000 A 
ATOM     11  C   UNL     1      23.828  -0.457  54.015  0.00  0.00    +0.000 A 
ATOM     12  N   UNL     1      25.132  -0.425  54.313  0.00  0.00    +0.000 NA
ATOM     13  C   UNL     1      25.889   0.319  53.493  0.00  0.00    +0.000 A 
ENDROOT
BRANCH   1  15
ATOM     14  C   UNL     1      29.454  -0.558  54.046  0.00  0.00    +0.000 C 
ATOM     15  C   UNL     1      28.189   0.092  54.580  0.00  0.00    +0.000 C 
ENDBRANCH   1  15
BRANCH   5  16
ATOM     16  N   UNL     1      23.499   1.666  50.950  0.00  0.00    +0.000 N 
ATOM     17  H   UNL     1      23.389   1.141  50.124  0.00  0.00    +0.000 HD
BRANCH  16  18
ATOM     18  C   UNL     1      23.054   3.055  50.931  0.00  0.00    +0.000 C 
ATOM     19  C   UNL     1      23.963   3.807  49.949  0.00  0.00    +0.000 C 
BRANCH  18  20
ATOM     20  C   UNL     1      21.520   3.171  50.661  0.00  0.00    +0.000 C 
ATOM     21  C   UNL     1      20.686   3.403  51.950  0.00  0.00    +0.000 C 
ATOM     22  C   UNL     1      19.180   3.453  51.676  0.00  0.00    +0.000 C 
ATOM     23  C   UNL     1      18.722   2.204  50.937  0.00  0.00    +0.000 C 
ATOM     24  C   UNL     1      19.462   2.067  49.614  0.00  0.00    +0.000 C 
ATOM     25  C   UNL     1      20.971   2.000  49.833  0.00  0.00    +0.000 C 
ENDBRANCH  18  20
ENDBRANCH  16  18
ENDBRANCH   5  16
BRANCH   8  26
ATOM     26  C   UNL     1      19.606  -0.755  53.417  0.00  0.00    +0.000 C 
ATOM     27  N   UNL     1      18.453  -0.833  53.250  0.00  0.00    +0.000 NA
ENDBRANCH   8  26
TORSDOF 5
ENDMDL
MODEL 4
REMARK VINA RESULT:    -8.447      1.487      5.461
REMARK INTER + INTRA:         -11.791
REMARK INTER:                 -10.875
REMARK INTRA:                  -0.916
REMARK UNBOUND:                -0.875
REMARK  Name = 
REMARK  7 active torsions:
REMARK  status: ('A' for Active; 'I' for Inactive)
REMARK    1  A    between atoms: C_1  and  C_2
REMARK    2  A    between atoms: C_2  and  N_3
REMARK    3  A    between atoms: C_7  and  N_8
REMARK    4  A    between atoms: N_8  and  C_9
REMARK    5  A    between atoms: C_9  and  C_10
REMARK    6  A    between atoms: C_9  and  C_11
REMARK    7  A    between atoms: C_19  and  C_20
REMARK                            x       y       z     vdW  Elec       q    Type
REMARK                         _______ _______ _______ _____ _____    ______ ____
ROOT
ATOM      1  N   UNL     1      19.547  -0.351  52.649  0.00  0.00    +0.000 N 
ATOM      2  N   UNL     1      19.226   0.327  51.531  0.00  0.00    +0.000 NA
ATOM      3  C   UNL     1      20.393   0.837  51.138  0.00  0.00    +0.000 A 
ATOM      4  C   UNL     1      21.479   0.516  51.995  0.00  0.00    +0.000 A 
ATOM      5  C   UNL     1      22.873   0.768  52.067  0.00  0.00    +0.000 A 
ATOM      6  C   UNL     1      23.569   0.162  53.179  0.00  0.00    +0.000 A 
ATOM      7  C   UNL     1      24.967   0.301  53.411  0.00  0.00    +0.000 A 
ATOM      8  C   UNL     1      25.613  -0.279  54.516  0.00  0.00    +0.000 A 
ATOM      9  C   UNL     1      24.851  -1.006  55.425  0.00  0.00    +0.000 A 
ATOM     10  C   UNL     1      23.475  -1.148  55.211  0.00  0.00    +0.000 A 
ATOM     11  C   UNL     1      22.814  -0.603  54.117  0.00  0.00    +0.000 A 
ATOM     12  N   UNL     1      21.499  -0.836  54.031  0.00  0.00    +0.000 NA
ATOM     13  C   UNL     1      20.885  -0.275  52.980  0.00  0.00    +0.000 A 
ENDROOT
BRANCH   1  15
ATOM     14  C   UNL     1      17.161  -1.096  52.547  0.00  0.00    +0.000 C 
ATOM     15  C   UNL     1      18.495  -1.122  53.275  0.00  0.00    +0.000 C 
ENDBRANCH   1  15
BRANCH   5  16
ATOM     16  N   UNL     1      23.590   1.574  51.172  0.00  0.00    +0.000 N 
ATOM     17  H   UNL     1      24.259   1.135  50.599  0.00  0.00    +0.000 HD
BRANCH  16  18
ATOM     18  C   UNL     1      23.415   3.015  51.026  0.00  0.00    +0.000 C 
ATOM     19  C   UNL     1      23.510   3.626  52.430  0.00  0.00    +0.000 C 
BRANCH  18  20
ATOM     20  C   UNL     1      24.387   3.612  49.959  0.00  0.00    +0.000 C 
ATOM     21  C   UNL     1      25.880   3.295  50.243  0.00  0.00    +0.000 C 
ATOM     22  C   UNL     1      26.823   3.939  49.221  0.00  0.00    +0.000 C 
ATOM     23  C   UNL     1      26.581   5.440  49.132  0.00  0.00    +0.000 C 
ATOM     24  C   UNL     1      25.142   5.723  48.726  0.00  0.00    +0.000 C 
ATOM     25  C   UNL     1      24.160   5.112  49.720  0.00  0.00    +0.000 C 
ENDBRANCH  18  20
ENDBRANCH  16  18
ENDBRANCH   5  16
BRANCH   8  26
ATOM     26  C   UNL     1      27.022  -0.128  54.696  0.00  0.00    +0.000 C 
ATOM     27  N   UNL     1      28.175  -0.013  54.846  0.00  0.00    +0.000 NA
ENDBRANCH   8  26
TORSDOF 5
ENDMDL
MODEL 5
REMARK VINA RESULT:    -8.423      2.553      6.029
REMARK INTER + INTRA:         -11.760
REMARK INTER:                 -10.796
REMARK INTRA:                  -0.964
REMARK UNBOUND:                -0.875
REMARK  Name = 
REMARK  7 active torsions:
REMARK  status: ('A' for Active; 'I' for Inactive)
REMARK    1  A    between atoms: C_1  and  C_2
REMARK    2  A    between atoms: C_2  and  N_3
REMARK    3  A    between atoms: C_7  and  N_8
REMARK    4  A    between atoms: N_8  and  C_9
REMARK    5  A    between atoms: C_9  and  C_10
REMARK    6  A    between atoms: C_9  and  C_11
REMARK    7  A    between atoms: C_19  and  C_20
REMARK                            x       y       z     vdW  Elec       q    Type
REMARK                         _______ _______ _______ _____ _____    ______ ____
ROOT
ATOM      1  N   UNL     1      22.329   6.726  50.897  0.00  0.00    +0.000 N 
ATOM      2  N   UNL     1      23.566   7.208  50.670  0.00  0.00    +0.000 NA
ATOM      3  C   UNL     1      24.356   6.191  51.010  0.00  0.00    +0.000 A 
ATOM      4  C   UNL     1      23.655   5.047  51.474  0.00  0.00    +0.000 A 
ATOM      5  C   UNL     1      23.961   3.743  51.942  0.00  0.00    +0.000 A 
ATOM      6  C   UNL     1      22.829   2.912  52.283  0.00  0.00    +0.000 A 
ATOM      7  C   UNL     1      22.941   1.576  52.764  0.00  0.00    +0.000 A 
ATOM      8  C   UNL     1      21.823   0.799  53.111  0.00  0.00    +0.000 A 
ATOM      9  C   UNL     1      20.558   1.365  52.992  0.00  0.00    +0.000 A 
ATOM     10  C   UNL     1      20.433   2.678  52.523  0.00  0.00    +0.000 A 
ATOM     11  C   UNL     1      21.519   3.462  52.154  0.00  0.00    +0.000 A 
ATOM     12  N   UNL     1      21.248   4.693  51.705  0.00  0.00    +0.000 NA
ATOM     13  C   UNL     1      22.317   5.434  51.381  0.00  0.00    +0.000 A 
ENDROOT
BRANCH   1  15
ATOM     14  C   UNL     1      21.532   8.618  49.468  0.00  0.00    +0.000 C 
ATOM     15  C   UNL     1      21.215   7.570  50.521  0.00  0.00    +0.000 C 
ENDBRANCH   1  15
BRANCH   5  16
ATOM     16  N   UNL     1      25.255   3.239  52.123  0.00  0.00    +0.000 N 
ATOM     17  H   UNL     1      25.737   3.503  52.940  0.00  0.00    +0.000 HD
BRANCH  16  18
ATOM     18  C   UNL     1      25.942   2.351  51.191  0.00  0.00    +0.000 C 
ATOM     19  C   UNL     1      26.473   3.223  50.045  0.00  0.00    +0.000 C 
BRANCH  18  20
ATOM     20  C   UNL     1      27.002   1.459  51.913  0.00  0.00    +0.000 C 
ATOM     21  C   UNL     1      26.453   0.066  52.324  0.00  0.00    +0.000 C 
ATOM     22  C   UNL     1      27.486  -0.772  53.084  0.00  0.00    +0.000 C 
ATOM     23  C   UNL     1      28.024  -0.010  54.287  0.00  0.00    +0.000 C 
ATOM     24  C   UNL     1      28.672   1.293  53.844  0.00  0.00    +0.000 C 
ATOM     25  C   UNL     1      27.679   2.173  53.091  0.00  0.00    +0.000 C 
ENDBRANCH  18  20
ENDBRANCH  16  18
ENDBRANCH   5  16
BRANCH   8  26
ATOM     26  C   UNL     1      21.986  -0.544  53.571  0.00  0.00    +0.000 C 
ATOM     27  N   UNL     1      22.110  -1.643  53.947  0.00  0.00    +0.000 NA
ENDBRANCH   8  26
TORSDOF 5
ENDMDL
MODEL 6
REMARK VINA RESULT:    -7.919      2.290      7.559
REMARK INTER + INTRA:         -11.109
REMARK INTER:                 -10.077
REMARK INTRA:                  -1.033
REMARK UNBOUND:                -0.875
REMARK  Name = 
REMARK  7 active torsions:
REMARK  status: ('A' for Active; 'I' for Inactive)
REMARK    1  A    between atoms: C_1  and  C_2
REMARK    2  A    between atoms: C_2  and  N_3
REMARK    3  A    between atoms: C_7  and  N_8
REMARK    4  A    between atoms: N_8  and  C_9
REMARK    5  A    between atoms: C_9  and  C_10
REMARK    6  A    between atoms: C_9  and  C_11
REMARK    7  A    between atoms: C_19  and  C_20
REMARK                            x       y       z     vdW  Elec       q    Type
REMARK                         _______ _______ _______ _____ _____    ______ ____
ROOT
ATOM      1  N   UNL     1      21.472   4.704  50.813  0.00  0.00    +0.000 N 
ATOM      2  N   UNL     1      20.276   4.480  51.390  0.00  0.00    +0.000 NA
ATOM      3  C   UNL     1      20.501   3.409  52.151  0.00  0.00    +0.000 A 
ATOM      4  C   UNL     1      21.828   2.913  52.070  0.00  0.00    +0.000 A 
ATOM      5  C   UNL     1      22.595   1.860  52.631  0.00  0.00    +0.000 A 
ATOM      6  C   UNL     1      23.980   1.799  52.224  0.00  0.00    +0.000 A 
ATOM      7  C   UNL     1      24.901   0.816  52.686  0.00  0.00    +0.000 A 
ATOM      8  C   UNL     1      26.237   0.766  52.255  0.00  0.00    +0.000 A 
ATOM      9  C   UNL     1      26.671   1.708  51.328  0.00  0.00    +0.000 A 
ATOM     10  C   UNL     1      25.777   2.679  50.863  0.00  0.00    +0.000 A 
ATOM     11  C   UNL     1      24.456   2.764  51.288  0.00  0.00    +0.000 A 
ATOM     12  N   UNL     1      23.721   3.756  50.772  0.00  0.00    +0.000 NA
ATOM     13  C   UNL     1      22.445   3.796  51.181  0.00  0.00    +0.000 A 
ENDROOT
BRANCH   1  15
ATOM     14  C   UNL     1      22.053   7.135  50.722  0.00  0.00    +0.000 C 
ATOM     15  C   UNL     1      21.594   5.886  49.988  0.00  0.00    +0.000 C 
ENDBRANCH   1  15
BRANCH   5  16
ATOM     16  N   UNL     1      22.097   0.881  53.501  0.00  0.00    +0.000 N 
ATOM     17  H   UNL     1      22.183   1.045  54.469  0.00  0.00    +0.000 HD
BRANCH  16  18
ATOM     18  C   UNL     1      21.459  -0.361  53.081  0.00  0.00    +0.000 C 
ATOM     19  C   UNL     1      21.917  -1.456  54.054  0.00  0.00    +0.000 C 
BRANCH  18  20
ATOM     20  C   UNL     1      19.914  -0.197  52.923  0.00  0.00    +0.000 C 
ATOM     21  C   UNL     1      19.106  -1.367  53.546  0.00  0.00    +0.000 C 
ATOM     22  C   UNL     1      17.596  -1.220  53.329  0.00  0.00    +0.000 C 
ATOM     23  C   UNL     1      17.275  -1.050  51.851  0.00  0.00    +0.000 C 
ATOM     24  C   UNL     1      17.977   0.179  51.293  0.00  0.00    +0.000 C 
ATOM     25  C   UNL     1      19.489   0.078  51.473  0.00  0.00    +0.000 C 
ENDBRANCH  18  20
ENDBRANCH  16  18
ENDBRANCH   5  16
BRANCH   8  26
ATOM     26  C   UNL     1      27.128  -0.229  52.762  0.00  0.00    +0.000 C 
ATOM     27  N   UNL     1      27.853  -1.049  53.170  0.00  0.00    +0.000 NA
ENDBRANCH   8  26
TORSDOF 5
ENDMDL
MODEL 7
REMARK VINA RESULT:    -7.816      1.533      2.101
REMARK INTER + INTRA:         -10.976
REMARK INTER:                 -10.139
REMARK INTRA:                  -0.837
REMARK UNBOUND:                -0.875
REMARK  Name = 
REMARK  7 active torsions:
REMARK  status: ('A' for Active; 'I' for Inactive)
REMARK    1  A    between atoms: C_1  and  C_2
REMARK    2  A    between atoms: C_2  and  N_3
REMARK    3  A    between atoms: C_7  and  N_8
REMARK    4  A    between atoms: N_8  and  C_9
REMARK    5  A    between atoms: C_9  and  C_10
REMARK    6  A    between atoms: C_9  and  C_11
REMARK    7  A    between atoms: C_19  and  C_20
REMARK                            x       y       z     vdW  Elec       q    Type
REMARK                         _______ _______ _______ _____ _____    ______ ____
ROOT
ATOM      1  N   UNL     1      26.490   1.135  52.995  0.00  0.00    +0.000 N 
ATOM      2  N   UNL     1      26.826   2.082  52.098  0.00  0.00    +0.000 NA
ATOM      3  C   UNL     1      25.664   2.379  51.518  0.00  0.00    +0.000 A 
ATOM      4  C   UNL     1      24.566   1.626  52.011  0.00  0.00    +0.000 A 
ATOM      5  C   UNL     1      23.169   1.526  51.781  0.00  0.00    +0.000 A 
ATOM      6  C   UNL     1      22.458   0.577  52.606  0.00  0.00    +0.000 A 
ATOM      7  C   UNL     1      21.056   0.344  52.519  0.00  0.00    +0.000 A 
ATOM      8  C   UNL     1      20.394  -0.604  53.318  0.00  0.00    +0.000 A 
ATOM      9  C   UNL     1      21.144  -1.353  54.218  0.00  0.00    +0.000 A 
ATOM     10  C   UNL     1      22.524  -1.137  54.312  0.00  0.00    +0.000 A 
ATOM     11  C   UNL     1      23.201  -0.193  53.549  0.00  0.00    +0.000 A 
ATOM     12  N   UNL     1      24.517  -0.083  53.759  0.00  0.00    +0.000 NA
ATOM     13  C   UNL     1      25.147   0.818  52.990  0.00  0.00    +0.000 A 
ENDROOT
BRANCH   1  15
ATOM     14  C   UNL     1      28.175  -0.650  53.473  0.00  0.00    +0.000 C 
ATOM     15  C   UNL     1      27.535   0.666  53.880  0.00  0.00    +0.000 C 
ENDBRANCH   1  15
BRANCH   5  16
ATOM     16  N   UNL     1      22.465   2.244  50.806  0.00  0.00    +0.000 N 
ATOM     17  H   UNL     1      22.358   1.827  49.920  0.00  0.00    +0.000 HD
BRANCH  16  18
ATOM     18  C   UNL     1      21.877   3.564  51.006  0.00  0.00    +0.000 C 
ATOM     19  C   UNL     1      21.501   3.671  52.490  0.00  0.00    +0.000 C 
BRANCH  18  20
ATOM     20  C   UNL     1      22.797   4.700  50.455  0.00  0.00    +0.000 C 
ATOM     21  C   UNL     1      23.727   4.231  49.304  0.00  0.00    +0.000 C 
ATOM     22  C   UNL     1      24.665   5.340  48.816  0.00  0.00    +0.000 C 
ATOM     23  C   UNL     1      25.465   5.921  49.974  0.00  0.00    +0.000 C 
ATOM     24  C   UNL     1      24.531   6.491  51.032  0.00  0.00    +0.000 C 
ATOM     25  C   UNL     1      23.581   5.421  51.561  0.00  0.00    +0.000 C 
ENDBRANCH  18  20
ENDBRANCH  16  18
ENDBRANCH   5  16
BRANCH   8  26
ATOM     26  C   UNL     1      18.982  -0.788  53.207  0.00  0.00    +0.000 C 
ATOM     27  N   UNL     1      17.826  -0.938  53.127  0.00  0.00    +0.000 NA
ENDBRANCH   8  26
TORSDOF 5
ENDMDL
MODEL 8
REMARK VINA RESULT:    -7.649      1.941      6.098
REMARK INTER + INTRA:         -10.760
REMARK INTER:                 -10.306
REMARK INTRA:                  -0.455
REMARK UNBOUND:                -0.875
REMARK  Name = 
REMARK  7 active torsions:
REMARK  status: ('A' for Active; 'I' for Inactive)
REMARK    1  A    between atoms: C_1  and  C_2
REMARK    2  A    between atoms: C_2  and  N_3
REMARK    3  A    between atoms: C_7  and  N_8
REMARK    4  A    between atoms: N_8  and  C_9
REMARK    5  A    between atoms: C_9  and  C_10
REMARK    6  A    between atoms: C_9  and  C_11
REMARK    7  A    between atoms: C_19  and  C_20
REMARK                            x       y       z     vdW  Elec       q    Type
REMARK                         _______ _______ _______ _____ _____    ______ ____
ROOT
ATOM      1  N   UNL     1      26.191   4.597  49.335  0.00  0.00    +0.000 N 
ATOM      2  N   UNL     1      25.120   5.341  48.999  0.00  0.00    +0.000 NA
ATOM      3  C   UNL     1      24.158   4.865  49.788  0.00  0.00    +0.000 A 
ATOM      4  C   UNL     1      24.578   3.802  50.630  0.00  0.00    +0.000 A 
ATOM      5  C   UNL     1      24.015   2.960  51.624  0.00  0.00    +0.000 A 
ATOM      6  C   UNL     1      24.916   2.007  52.230  0.00  0.00    +0.000 A 
ATOM      7  C   UNL     1      24.531   1.086  53.246  0.00  0.00    +0.000 A 
ATOM      8  C   UNL     1      25.422   0.152  53.801  0.00  0.00    +0.000 A 
ATOM      9  C   UNL     1      26.729   0.120  53.327  0.00  0.00    +0.000 A 
ATOM     10  C   UNL     1      27.122   1.018  52.327  0.00  0.00    +0.000 A 
ATOM     11  C   UNL     1      26.267   1.964  51.775  0.00  0.00    +0.000 A 
ATOM     12  N   UNL     1      26.784   2.770  50.841  0.00  0.00    +0.000 NA
ATOM     13  C   UNL     1      25.928   3.654  50.309  0.00  0.00    +0.000 A 
ENDROOT
BRANCH   1  15
ATOM     14  C   UNL     1      27.597   6.406  48.331  0.00  0.00    +0.000 C 
ATOM     15  C   UNL     1      27.453   4.943  48.717  0.00  0.00    +0.000 C 
ENDBRANCH   1  15
BRANCH   5  16
ATOM     16  N   UNL     1      22.670   2.971  52.015  0.00  0.00    +0.000 N 
ATOM     17  H   UNL     1      22.423   3.537  52.782  0.00  0.00    +0.000 HD
BRANCH  16  18
ATOM     18  C   UNL     1      21.607   2.208  51.369  0.00  0.00    +0.000 C 
ATOM     19  C   UNL     1      22.258   1.394  50.243  0.00  0.00    +0.000 C 
BRANCH  18  20
ATOM     20  C   UNL     1      20.770   1.389  52.403  0.00  0.00    +0.000 C 
ATOM     21  C   UNL     1      21.645   0.602  53.415  0.00  0.00    +0.000 C 
ATOM     22  C   UNL     1      20.809  -0.243  54.382  0.00  0.00    +0.000 C 
ATOM     23  C   UNL     1      19.872  -1.170  53.621  0.00  0.00    +0.000 C 
ATOM     24  C   UNL     1      18.936  -0.366  52.730  0.00  0.00    +0.000 C 
ATOM     25  C   UNL     1      19.720   0.487  51.737  0.00  0.00    +0.000 C 
ENDBRANCH  18  20
ENDBRANCH  16  18
ENDBRANCH   5  16
BRANCH   8  26
ATOM     26  C   UNL     1      24.993  -0.739  54.831  0.00  0.00    +0.000 C 
ATOM     27  N   UNL     1      24.651  -1.470  55.676  0.00  0.00    +0.000 NA
ENDBRANCH   8  26
TORSDOF 5
ENDMDL
MODEL 9
REMARK VINA RESULT:    -7.605      2.068      5.619
REMARK INTER + INTRA:         -10.703
REMARK INTER:                  -9.599
REMARK INTRA:                  -1.104
REMARK UNBOUND:                -0.875
REMARK  Name = 
REMARK  7 active torsions:
REMARK  status: ('A' for Active; 'I' for Inactive)
REMARK    1  A    between atoms: C_1  and  C_2
REMARK    2  A    between atoms: C_2  and  N_3
REMARK    3  A    between atoms: C_7  and  N_8
REMARK    4  A    between atoms: N_8  and  C_9
REMARK    5  A    between atoms: C_9  and  C_10
REMARK    6  A    between atoms: C_9  and  C_11
REMARK    7  A    between atoms: C_19  and  C_20
REMARK                            x       y       z     vdW  Elec       q    Type
REMARK                         _______ _______ _______ _____ _____    ______ ____
ROOT
ATOM      1  N   UNL     1      23.936   3.808  50.161  0.00  0.00    +0.000 N 
ATOM      2  N   UNL     1      25.191   3.405  50.438  0.00  0.00    +0.000 NA
ATOM      3  C   UNL     1      25.006   2.268  51.108  0.00  0.00    +0.000 A 
ATOM      4  C   UNL     1      23.641   1.924  51.291  0.00  0.00    +0.000 A 
ATOM      5  C   UNL     1      22.888   0.881  51.891  0.00  0.00    +0.000 A 
ATOM      6  C   UNL     1      21.453   0.989  51.774  0.00  0.00    +0.000 A 
ATOM      7  C   UNL     1      20.539   0.036  52.310  0.00  0.00    +0.000 A 
ATOM      8  C   UNL     1      19.145   0.179  52.202  0.00  0.00    +0.000 A 
ATOM      9  C   UNL     1      18.641   1.304  51.559  0.00  0.00    +0.000 A 
ATOM     10  C   UNL     1      19.526   2.250  51.030  0.00  0.00    +0.000 A 
ATOM     11  C   UNL     1      20.908   2.124  51.104  0.00  0.00    +0.000 A 
ATOM     12  N   UNL     1      21.632   3.097  50.537  0.00  0.00    +0.000 NA
ATOM     13  C   UNL     1      22.961   2.960  50.648  0.00  0.00    +0.000 A 
ENDROOT
BRANCH   1  15
ATOM     14  C   UNL     1      25.018   5.880  49.272  0.00  0.00    +0.000 C 
ATOM     15  C   UNL     1      23.791   4.986  49.334  0.00  0.00    +0.000 C 
ENDBRANCH   1  15
BRANCH   5  16
ATOM     16  N   UNL     1      23.436  -0.195  52.601  0.00  0.00    +0.000 N 
ATOM     17  H   UNL     1      23.513  -1.058  52.134  0.00  0.00    +0.000 HD
BRANCH  16  18
ATOM     18  C   UNL     1      23.903  -0.131  53.982  0.00  0.00    +0.000 C 
ATOM     19  C   UNL     1      22.970  -1.021  54.815  0.00  0.00    +0.000 C 
BRANCH  18  20
ATOM     20  C   UNL     1      25.427  -0.453  54.096  0.00  0.00    +0.000 C 
ATOM     21  C   UNL     1      26.273   0.753  54.588  0.00  0.00    +0.000 C 
ATOM     22  C   UNL     1      27.772   0.440  54.635  0.00  0.00    +0.000 C 
ATOM     23  C   UNL     1      28.262  -0.069  53.287  0.00  0.00    +0.000 C 
ATOM     24  C   UNL     1      27.505  -1.327  52.887  0.00  0.00    +0.000 C 
ATOM     25  C   UNL     1      26.004  -1.065  52.812  0.00  0.00    +0.000 C 
ENDBRANCH  18  20
ENDBRANCH  16  18
ENDBRANCH   5  16
BRANCH   8  26
ATOM     26  C   UNL     1      18.270  -0.814  52.740  0.00  0.00    +0.000 C 
ATOM     27  N   UNL     1      17.558  -1.633  53.173  0.00  0.00    +0.000 NA
ENDBRANCH   8  26
TORSDOF 5
ENDMDL
