MODEL 1
REMARK VINA RESULT:    -8.031      0.000      0.000
REMARK INTER + INTRA:          -9.891
REMARK INTER:                  -9.910
REMARK INTRA:                   0.018
REMARK UNBOUND:                 0.018
REMARK  Name = 
REMARK  9 active torsions:
REMARK  status: ('A' for Active; 'I' for Inactive)
REMARK    1  A    between atoms: C_1  and  O_2
REMARK    2  A    between atoms: O_2  and  C_3
REMARK    3  A    between atoms: C_4  and  C_5
REMARK    4  A    between atoms: C_7  and  C_8
REMARK    5  A    between atoms: C_19  and  N_20
REMARK    6  A    between atoms: N_20  and  C_21
REMARK    7  A    between atoms: C_21  and  C_22
REMARK    8  A    between atoms: C_21  and  C_23
REMARK    9  A    between atoms: C_27  and  C_28
REMARK                            x       y       z     vdW  Elec       q    Type
REMARK                         _______ _______ _______ _____ _____    ______ ____
ROOT
ATOM      1  C   UNL     1      20.909  -1.161  53.808  0.00  0.00    +0.000 C 
ATOM      2  O   UNL     1      21.271  -1.842  54.765  0.00  0.00    +0.000 OA
ATOM      3  N   UNL     1      21.766  -0.306  53.117  0.00  0.00    +0.000 N 
ATOM      4  C   UNL     1      23.167  -0.219  53.568  0.00  0.00    +0.000 C 
ATOM      5  C   UNL     1      23.799   1.158  53.244  0.00  0.00    +0.000 C 
ATOM      6  N   UNL     1      23.626   1.403  51.798  0.00  0.00    +0.000 N 
ATOM      7  C   UNL     1      24.460   2.269  51.091  0.00  0.00    +0.000 A 
ATOM      8  N   UNL     1      23.854   3.162  50.261  0.00  0.00    +0.000 NA
ATOM      9  C   UNL     1      24.598   3.936  49.455  0.00  0.00    +0.000 A 
ATOM     10  C   UNL     1      25.971   3.935  49.466  0.00  0.00    +0.000 A 
ATOM     11  C   UNL     1      26.610   3.053  50.323  0.00  0.00    +0.000 A 
ATOM     12  C   UNL     1      25.880   2.128  51.088  0.00  0.00    +0.000 A 
ATOM     13  C   UNL     1      22.189   1.495  51.455  0.00  0.00    +0.000 C 
ATOM     14  C   UNL     1      21.561   0.119  51.718  0.00  0.00    +0.000 C 
ENDROOT
BRANCH   1  19
ATOM     15  C   UNL     1      16.805  -1.464  52.540  0.00  0.00    +0.000 A 
ATOM     16  C   UNL     1      17.527  -0.284  52.274  0.00  0.00    +0.000 A 
ATOM     17  C   UNL     1      17.042   0.905  51.492  0.00  0.00    +0.000 C 
ATOM     18  C   UNL     1      18.859  -0.192  52.729  0.00  0.00    +0.000 A 
ATOM     19  C   UNL     1      19.489  -1.249  53.392  0.00  0.00    +0.000 A 
ATOM     20  C   UNL     1      18.762  -2.392  53.693  0.00  0.00    +0.000 A 
ATOM     21  C   UNL     1      17.423  -2.513  53.271  0.00  0.00    +0.000 A 
ATOM     22  C   UNL     1      16.729  -3.807  53.600  0.00  0.00    +0.000 C 
BRANCH  15  24
ATOM     23  C   UNL     1      15.115  -1.990  50.880  0.00  0.00    +0.000 C 
ATOM     24  O   UNL     1      15.503  -1.740  52.217  0.00  0.00    +0.000 OA
ENDBRANCH  15  24
ENDBRANCH   1  19
BRANCH  12  25
ATOM     25  N   UNL     1      26.538   1.136  51.856  0.00  0.00    +0.000 N 
ATOM     26  H   UNL     1      26.245   0.197  51.807  0.00  0.00    +0.000 HD
BRANCH  25  27
ATOM     27  C   UNL     1      27.657   1.520  52.725  0.00  0.00    +0.000 C 
ATOM     28  C   UNL     1      27.112   2.326  53.903  0.00  0.00    +0.000 C 
ATOM     29  C   UNL     1      28.380   0.266  53.212  0.00  0.00    +0.000 C 
ENDBRANCH  25  27
ENDBRANCH  12  25
TORSDOF 4
ENDMDL
MODEL 2
REMARK VINA RESULT:    -7.952      4.608     10.560
REMARK INTER + INTRA:          -9.793
REMARK INTER:                  -9.711
REMARK INTRA:                  -0.082
REMARK UNBOUND:                 0.018
REMARK  Name = 
REMARK  9 active torsions:
REMARK  status: ('A' for Active; 'I' for Inactive)
REMARK    1  A    between atoms: C_1  and  O_2
REMARK    2  A    between atoms: O_2  and  C_3
REMARK    3  A    between atoms: C_4  and  C_5
REMARK    4  A    between atoms: C_7  and  C_8
REMARK    5  A    between atoms: C_19  and  N_20
REMARK    6  A    between atoms: N_20  and  C_21
REMARK    7  A    between atoms: C_21  and  C_22
REMARK    8  A    between atoms: C_21  and  C_23
REMARK    9  A    between atoms: C_27  and  C_28
REMARK                            x       y       z     vdW  Elec       q    Type
REMARK                         _______ _______ _______ _____ _____    ______ ____
ROOT
ATOM      1  C   UNL     1      25.509   5.807  48.925  0.00  0.00    +0.000 C 
ATOM      2  O   UNL     1      24.616   6.361  48.289  0.00  0.00    +0.000 OA
ATOM      3  N   UNL     1      25.276   4.741  49.792  0.00  0.00    +0.000 N 
ATOM      4  C   UNL     1      23.888   4.270  49.950  0.00  0.00    +0.000 C 
ATOM      5  C   UNL     1      23.642   3.633  51.342  0.00  0.00    +0.000 C 
ATOM      6  N   UNL     1      24.653   2.573  51.535  0.00  0.00    +0.000 N 
ATOM      7  C   UNL     1      24.448   1.509  52.412  0.00  0.00    +0.000 A 
ATOM      8  N   UNL     1      25.472   1.202  53.254  0.00  0.00    +0.000 NA
ATOM      9  C   UNL     1      25.393   0.111  54.033  0.00  0.00    +0.000 A 
ATOM     10  C   UNL     1      24.284  -0.697  54.088  0.00  0.00    +0.000 A 
ATOM     11  C   UNL     1      23.217  -0.388  53.259  0.00  0.00    +0.000 A 
ATOM     12  C   UNL     1      23.302   0.662  52.329  0.00  0.00    +0.000 A 
ATOM     13  C   UNL     1      26.015   3.152  51.558  0.00  0.00    +0.000 C 
ATOM     14  C   UNL     1      26.293   3.738  50.166  0.00  0.00    +0.000 C 
ENDROOT
BRANCH   1  19
ATOM     15  C   UNL     1      29.506   7.319  48.394  0.00  0.00    +0.000 A 
ATOM     16  C   UNL     1      29.250   5.950  48.181  0.00  0.00    +0.000 A 
ATOM     17  C   UNL     1      30.229   4.922  47.687  0.00  0.00    +0.000 C 
ATOM     18  C   UNL     1      27.940   5.470  48.394  0.00  0.00    +0.000 A 
ATOM     19  C   UNL     1      26.892   6.317  48.766  0.00  0.00    +0.000 A 
ATOM     20  C   UNL     1      27.158   7.654  49.020  0.00  0.00    +0.000 A 
ATOM     21  C   UNL     1      28.457   8.168  48.835  0.00  0.00    +0.000 A 
ATOM     22  C   UNL     1      28.640   9.641  49.088  0.00  0.00    +0.000 C 
BRANCH  15  24
ATOM     23  C   UNL     1      31.712   7.844  49.259  0.00  0.00    +0.000 C 
ATOM     24  O   UNL     1      30.703   7.975  48.276  0.00  0.00    +0.000 OA
ENDBRANCH  15  24
ENDBRANCH   1  19
BRANCH  12  25
ATOM     25  N   UNL     1      22.268   0.888  51.389  0.00  0.00    +0.000 N 
ATOM     26  H   UNL     1      22.486   1.097  50.451  0.00  0.00    +0.000 HD
BRANCH  25  27
ATOM     27  C   UNL     1      20.867   0.811  51.824  0.00  0.00    +0.000 C 
ATOM     28  C   UNL     1      20.553   2.027  52.694  0.00  0.00    +0.000 C 
ATOM     29  C   UNL     1      19.954   0.768  50.600  0.00  0.00    +0.000 C 
ENDBRANCH  25  27
ENDBRANCH  12  25
TORSDOF 4
ENDMDL
MODEL 3
REMARK VINA RESULT:    -7.832      2.951      8.974
REMARK INTER + INTRA:          -9.645
REMARK INTER:                  -9.778
REMARK INTRA:                   0.133
REMARK UNBOUND:                 0.018
REMARK  Name = 
REMARK  9 active torsions:
REMARK  status: ('A' for Active; 'I' for Inactive)
REMARK    1  A    between atoms: C_1  and  O_2
REMARK    2  A    between atoms: O_2  and  C_3
REMARK    3  A    between atoms: C_4  and  C_5
REMARK    4  A    between atoms: C_7  and  C_8
REMARK    5  A    between atoms: C_19  and  N_20
REMARK    6  A    between atoms: N_20  and  C_21
REMARK    7  A    between atoms: C_21  and  C_22
REMARK    8  A    between atoms: C_21  and  C_23
REMARK    9  A    between atoms: C_27  and  C_28
REMARK                            x       y       z     vdW  Elec       q    Type
REMARK                         _______ _______ _______ _____ _____    ______ ____
ROOT
ATOM      1  C   UNL     1      24.582   2.088  51.915  0.00  0.00    +0.000 C 
ATOM      2  O   UNL     1      24.795   3.147  51.330  0.00  0.00    +0.000 OA
ATOM      3  N   UNL     1      23.306   1.553  52.077  0.00  0.00    +0.000 N 
ATOM      4  C   UNL     1      22.165   2.305  51.522  0.00  0.00    +0.000 C 
ATOM      5  C   UNL     1      20.854   2.039  52.304  0.00  0.00    +0.000 C 
ATOM      6  N   UNL     1      20.641   0.577  52.338  0.00  0.00    +0.000 N 
ATOM      7  C   UNL     1      19.375   0.021  52.519  0.00  0.00    +0.000 A 
ATOM      8  N   UNL     1      19.272  -0.986  53.429  0.00  0.00    +0.000 NA
ATOM      9  C   UNL     1      18.114  -1.653  53.560  0.00  0.00    +0.000 A 
ATOM     10  C   UNL     1      16.974  -1.328  52.866  0.00  0.00    +0.000 A 
ATOM     11  C   UNL     1      17.049  -0.288  51.952  0.00  0.00    +0.000 A 
ATOM     12  C   UNL     1      18.269   0.352  51.680  0.00  0.00    +0.000 A 
ATOM     13  C   UNL     1      21.732  -0.091  53.082  0.00  0.00    +0.000 C 
ATOM     14  C   UNL     1      23.030   0.117  52.287  0.00  0.00    +0.000 C 
ENDROOT
BRANCH   1  19
ATOM     15  C   UNL     1      28.001   0.011  53.508  0.00  0.00    +0.000 A 
ATOM     16  C   UNL     1      26.971  -0.724  52.889  0.00  0.00    +0.000 A 
ATOM     17  C   UNL     1      26.959  -2.205  52.631  0.00  0.00    +0.000 C 
ATOM     18  C   UNL     1      25.844  -0.026  52.405  0.00  0.00    +0.000 A 
ATOM     19  C   UNL     1      25.745   1.366  52.485  0.00  0.00    +0.000 A 
ATOM     20  C   UNL     1      26.738   2.081  53.136  0.00  0.00    +0.000 A 
ATOM     21  C   UNL     1      27.872   1.418  53.648  0.00  0.00    +0.000 A 
ATOM     22  C   UNL     1      28.921   2.283  54.295  0.00  0.00    +0.000 C 
BRANCH  15  24
ATOM     23  C   UNL     1      30.208  -0.968  53.268  0.00  0.00    +0.000 C 
ATOM     24  O   UNL     1      29.154  -0.471  54.069  0.00  0.00    +0.000 OA
ENDBRANCH  15  24
ENDBRANCH   1  19
BRANCH  12  25
ATOM     25  N   UNL     1      18.372   1.317  50.649  0.00  0.00    +0.000 N 
ATOM     26  H   UNL     1      19.165   1.338  50.066  0.00  0.00    +0.000 HD
BRANCH  25  27
ATOM     27  C   UNL     1      17.285   2.287  50.456  0.00  0.00    +0.000 C 
ATOM     28  C   UNL     1      17.530   3.487  51.369  0.00  0.00    +0.000 C 
ATOM     29  C   UNL     1      17.239   2.718  48.992  0.00  0.00    +0.000 C 
ENDBRANCH  25  27
ENDBRANCH  12  25
TORSDOF 4
ENDMDL
MODEL 4
REMARK VINA RESULT:    -7.728      2.261      3.293
REMARK INTER + INTRA:          -9.517
REMARK INTER:                  -9.791
REMARK INTRA:                   0.274
REMARK UNBOUND:                 0.018
REMARK  Name = 
REMARK  9 active torsions:
REMARK  status: ('A' for Active; 'I' for Inactive)
REMARK    1  A    between atoms: C_1  and  O_2
REMARK    2  A    between atoms: O_2  and  C_3
REMARK    3  A    between atoms: C_4  and  C_5
REMARK    4  A    between atoms: C_7  and  C_8
REMARK    5  A    between atoms: C_19  and  N_20
REMARK    6  A    between atoms: N_20  and  C_21
REMARK    7  A    between atoms: C_21  and  C_22
REMARK    8  A    between atoms: C_21  and  C_23
REMARK    9  A    between atoms: C_27  and  C_28
REMARK                            x       y       z     vdW  Elec       q    Type
REMARK                         _______ _______ _______ _____ _____    ______ ____
ROOT
ATOM      1  C   UNL     1      21.585   0.613  52.372  0.00  0.00    +0.000 C 
ATOM      2  O   UNL     1      22.373  -0.213  52.826  0.00  0.00    +0.000 OA
ATOM      3  N   UNL     1      21.966   1.899  51.994  0.00  0.00    +0.000 N 
ATOM      4  C   UNL     1      23.382   2.276  52.158  0.00  0.00    +0.000 C 
ATOM      5  C   UNL     1      23.559   3.800  52.381  0.00  0.00    +0.000 C 
ATOM      6  N   UNL     1      22.885   4.497  51.266  0.00  0.00    +0.000 N 
ATOM      7  C   UNL     1      23.237   5.791  50.886  0.00  0.00    +0.000 A 
ATOM      8  N   UNL     1      22.218   6.671  50.685  0.00  0.00    +0.000 NA
ATOM      9  C   UNL     1      22.477   7.893  50.192  0.00  0.00    +0.000 A 
ATOM     10  C   UNL     1      23.747   8.350  49.939  0.00  0.00    +0.000 A 
ATOM     11  C   UNL     1      24.803   7.480  50.161  0.00  0.00    +0.000 A 
ATOM     12  C   UNL     1      24.577   6.149  50.547  0.00  0.00    +0.000 A 
ATOM     13  C   UNL     1      21.431   4.222  51.285  0.00  0.00    +0.000 C 
ATOM     14  C   UNL     1      21.238   2.724  51.009  0.00  0.00    +0.000 C 
ENDROOT
BRANCH   1  19
ATOM     15  C   UNL     1      17.476  -0.604  51.952  0.00  0.00    +0.000 A 
ATOM     16  C   UNL     1      17.972   0.445  51.154  0.00  0.00    +0.000 A 
ATOM     17  C   UNL     1      17.231   1.169  50.065  0.00  0.00    +0.000 C 
ATOM     18  C   UNL     1      19.312   0.851  51.333  0.00  0.00    +0.000 A 
ATOM     19  C   UNL     1      20.162   0.215  52.241  0.00  0.00    +0.000 A 
ATOM     20  C   UNL     1      19.658  -0.786  53.058  0.00  0.00    +0.000 A 
ATOM     21  C   UNL     1      18.320  -1.207  52.922  0.00  0.00    +0.000 A 
ATOM     22  C   UNL     1      17.875  -2.333  53.817  0.00  0.00    +0.000 C 
BRANCH  15  24
ATOM     23  C   UNL     1      15.136  -0.433  52.571  0.00  0.00    +0.000 C 
ATOM     24  O   UNL     1      16.208  -1.124  51.959  0.00  0.00    +0.000 OA
ENDBRANCH  15  24
ENDBRANCH   1  19
BRANCH  12  25
ATOM     25  N   UNL     1      25.646   5.225  50.638  0.00  0.00    +0.000 N 
ATOM     26  H   UNL     1      26.137   5.116  51.485  0.00  0.00    +0.000 HD
BRANCH  25  27
ATOM     27  C   UNL     1      26.018   4.431  49.460  0.00  0.00    +0.000 C 
ATOM     28  C   UNL     1      27.178   5.123  48.746  0.00  0.00    +0.000 C 
ATOM     29  C   UNL     1      26.411   3.021  49.896  0.00  0.00    +0.000 C 
ENDBRANCH  25  27
ENDBRANCH  12  25
TORSDOF 4
ENDMDL
MODEL 5
REMARK VINA RESULT:    -7.670      4.721      7.360
REMARK INTER + INTRA:          -9.445
REMARK INTER:                  -9.038
REMARK INTRA:                  -0.407
REMARK UNBOUND:                 0.018
REMARK  Name = 
REMARK  9 active torsions:
REMARK  status: ('A' for Active; 'I' for Inactive)
REMARK    1  A    between atoms: C_1  and  O_2
REMARK    2  A    between atoms: O_2  and  C_3
REMARK    3  A    between atoms: C_4  and  C_5
REMARK    4  A    between atoms: C_7  and  C_8
REMARK    5  A    between atoms: C_19  and  N_20
REMARK    6  A    between atoms: N_20  and  C_21
REMARK    7  A    between atoms: C_21  and  C_22
REMARK    8  A    between atoms: C_21  and  C_23
REMARK    9  A    between atoms: C_27  and  C_28
REMARK                            x       y       z     vdW  Elec       q    Type
REMARK                         _______ _______ _______ _____ _____    ______ ____
ROOT
ATOM      1  C   UNL     1      25.179   4.367  49.568  0.00  0.00    +0.000 C 
ATOM      2  O   UNL     1      26.273   4.790  49.200  0.00  0.00    +0.000 OA
ATOM      3  N   UNL     1      25.033   3.391  50.552  0.00  0.00    +0.000 N 
ATOM      4  C   UNL     1      26.256   2.841  51.167  0.00  0.00    +0.000 C 
ATOM      5  C   UNL     1      26.054   1.389  51.670  0.00  0.00    +0.000 C 
ATOM      6  N   UNL     1      24.884   1.386  52.572  0.00  0.00    +0.000 N 
ATOM      7  C   UNL     1      24.709   0.406  53.549  0.00  0.00    +0.000 A 
ATOM      8  N   UNL     1      23.474  -0.161  53.634  0.00  0.00    +0.000 NA
ATOM      9  C   UNL     1      23.199  -1.014  54.634  0.00  0.00    +0.000 A 
ATOM     10  C   UNL     1      24.130  -1.418  55.559  0.00  0.00    +0.000 A 
ATOM     11  C   UNL     1      25.402  -0.874  55.475  0.00  0.00    +0.000 A 
ATOM     12  C   UNL     1      25.703   0.123  54.532  0.00  0.00    +0.000 A 
ATOM     13  C   UNL     1      23.658   1.762  51.833  0.00  0.00    +0.000 C 
ATOM     14  C   UNL     1      23.820   3.219  51.377  0.00  0.00    +0.000 C 
ENDROOT
BRANCH   1  19
ATOM     15  C   UNL     1      21.625   5.972  47.741  0.00  0.00    +0.000 A 
ATOM     16  C   UNL     1      21.928   4.605  47.584  0.00  0.00    +0.000 A 
ATOM     17  C   UNL     1      21.080   3.574  46.893  0.00  0.00    +0.000 C 
ATOM     18  C   UNL     1      23.116   4.108  48.162  0.00  0.00    +0.000 A 
ATOM     19  C   UNL     1      23.968   4.920  48.916  0.00  0.00    +0.000 A 
ATOM     20  C   UNL     1      23.691   6.274  49.030  0.00  0.00    +0.000 A 
ATOM     21  C   UNL     1      22.523   6.811  48.452  0.00  0.00    +0.000 A 
ATOM     22  C   UNL     1      22.281   8.281  48.669  0.00  0.00    +0.000 C 
BRANCH  15  24
ATOM     23  C   UNL     1      19.259   6.505  47.794  0.00  0.00    +0.000 C 
ATOM     24  O   UNL     1      20.550   6.655  47.237  0.00  0.00    +0.000 OA
ENDBRANCH  15  24
ENDBRANCH   1  19
BRANCH  12  25
ATOM     25  N   UNL     1      26.960   0.777  54.539  0.00  0.00    +0.000 N 
ATOM     26  H   UNL     1      27.008   1.760  54.577  0.00  0.00    +0.000 HD
BRANCH  25  27
ATOM     27  C   UNL     1      28.190  -0.024  54.487  0.00  0.00    +0.000 C 
ATOM     28  C   UNL     1      28.110  -0.974  53.293  0.00  0.00    +0.000 C 
ATOM     29  C   UNL     1      29.398   0.903  54.364  0.00  0.00    +0.000 C 
ENDBRANCH  25  27
ENDBRANCH  12  25
TORSDOF 4
ENDMDL
MODEL 6
REMARK VINA RESULT:    -7.516      2.176      3.277
REMARK INTER + INTRA:          -9.255
REMARK INTER:                  -8.715
REMARK INTRA:                  -0.539
REMARK UNBOUND:                 0.018
REMARK  Name = 
REMARK  9 active torsions:
REMARK  status: ('A' for Active; 'I' for Inactive)
REMARK    1  A    between atoms: C_1  and  O_2
REMARK    2  A    between atoms: O_2  and  C_3
REMARK    3  A    between atoms: C_4  and  C_5
REMARK    4  A    between atoms: C_7  and  C_8
REMARK    5  A    between atoms: C_19  and  N_20
REMARK    6  A    between atoms: N_20  and  C_21
REMARK    7  A    between atoms: C_21  and  C_22
REMARK    8  A    between atoms: C_21  and  C_23
REMARK    9  A    between atoms: C_27  and  C_28
REMARK                            x       y       z     vdW  Elec       q    Type
REMARK                         _______ _______ _______ _____ _____    ______ ____
ROOT
ATOM      1  C   UNL     1      18.831   0.058  52.148  0.00  0.00    +0.000 C 
ATOM      2  O   UNL     1      18.566  -0.704  53.075  0.00  0.00    +0.000 OA
ATOM      3  N   UNL     1      20.113   0.550  51.911  0.00  0.00    +0.000 N 
ATOM      4  C   UNL     1      21.192   0.135  52.826  0.00  0.00    +0.000 C 
ATOM      5  C   UNL     1      22.317   1.197  52.921  0.00  0.00    +0.000 C 
ATOM      6  N   UNL     1      22.782   1.482  51.548  0.00  0.00    +0.000 N 
ATOM      7  C   UNL     1      24.053   1.993  51.290  0.00  0.00    +0.000 A 
ATOM      8  N   UNL     1      24.129   3.040  50.424  0.00  0.00    +0.000 NA
ATOM      9  C   UNL     1      25.329   3.497  50.031  0.00  0.00    +0.000 A 
ATOM     10  C   UNL     1      26.518   3.008  50.515  0.00  0.00    +0.000 A 
ATOM     11  C   UNL     1      26.464   1.959  51.420  0.00  0.00    +0.000 A 
ATOM     12  C   UNL     1      25.241   1.357  51.760  0.00  0.00    +0.000 A 
ATOM     13  C   UNL     1      21.691   2.078  50.744  0.00  0.00    +0.000 C 
ATOM     14  C   UNL     1      20.592   1.016  50.594  0.00  0.00    +0.000 C 
ENDROOT
BRANCH   1  19
ATOM     15  C   UNL     1      15.559   1.266  49.623  0.00  0.00    +0.000 A 
ATOM     16  C   UNL     1      16.127  -0.012  49.456  0.00  0.00    +0.000 A 
ATOM     17  C   UNL     1      15.653  -1.086  48.517  0.00  0.00    +0.000 C 
ATOM     18  C   UNL     1      17.221  -0.374  50.271  0.00  0.00    +0.000 A 
ATOM     19  C   UNL     1      17.721   0.479  51.259  0.00  0.00    +0.000 A 
ATOM     20  C   UNL     1      17.191   1.753  51.389  0.00  0.00    +0.000 A 
ATOM     21  C   UNL     1      16.109   2.158  50.581  0.00  0.00    +0.000 A 
ATOM     22  C   UNL     1      15.568   3.541  50.826  0.00  0.00    +0.000 C 
BRANCH  15  24
ATOM     23  C   UNL     1      14.688   2.238  47.577  0.00  0.00    +0.000 C 
ATOM     24  O   UNL     1      14.523   1.821  48.918  0.00  0.00    +0.000 OA
ENDBRANCH  15  24
ENDBRANCH   1  19
BRANCH  12  25
ATOM     25  N   UNL     1      25.200   0.198  52.574  0.00  0.00    +0.000 N 
ATOM     26  H   UNL     1      24.371  -0.327  52.647  0.00  0.00    +0.000 HD
BRANCH  25  27
ATOM     27  C   UNL     1      26.404  -0.210  53.309  0.00  0.00    +0.000 C 
ATOM     28  C   UNL     1      26.089  -0.222  54.803  0.00  0.00    +0.000 C 
ATOM     29  C   UNL     1      26.847  -1.593  52.836  0.00  0.00    +0.000 C 
ENDBRANCH  25  27
ENDBRANCH  12  25
TORSDOF 4
ENDMDL
MODEL 7
REMARK VINA RESULT:    -7.467      4.257      9.750
REMARK INTER + INTRA:          -9.195
REMARK INTER:                  -9.599
REMARK INTRA:                   0.404
REMARK UNBOUND:                 0.018
REMARK  Name = 
REMARK  9 active torsions:
REMARK  status: ('A' for Active; 'I' for Inactive)
REMARK    1  A    between atoms: C_1  and  O_2
REMARK    2  A    between atoms: O_2  and  C_3
REMARK    3  A    between atoms: C_4  and  C_5
REMARK    4  A    between atoms: C_7  and  C_8
REMARK    5  A    between atoms: C_19  and  N_20
REMARK    6  A    between atoms: N_20  and  C_21
REMARK    7  A    between atoms: C_21  and  C_22
REMARK    8  A    between atoms: C_21  and  C_23
REMARK    9  A    between atoms: C_27  and  C_28
REMARK                            x       y       z     vdW  Elec       q    Type
REMARK                         _______ _______ _______ _____ _____    ______ ____
ROOT
ATOM      1  C   UNL     1      23.881   5.927  49.485  0.00  0.00    +0.000 C 
ATOM      2  O   UNL     1      22.832   6.537  49.290  0.00  0.00    +0.000 OA
ATOM      3  N   UNL     1      23.967   4.808  50.312  0.00  0.00    +0.000 N 
ATOM      4  C   UNL     1      22.737   4.349  50.984  0.00  0.00    +0.000 C 
ATOM      5  C   UNL     1      23.037   3.624  52.320  0.00  0.00    +0.000 C 
ATOM      6  N   UNL     1      23.997   2.537  52.034  0.00  0.00    +0.000 N 
ATOM      7  C   UNL     1      24.113   1.419  52.859  0.00  0.00    +0.000 A 
ATOM      8  N   UNL     1      25.374   1.040  53.204  0.00  0.00    +0.000 NA
ATOM      9  C   UNL     1      25.565  -0.100  53.887  0.00  0.00    +0.000 A 
ATOM     10  C   UNL     1      24.537  -0.893  54.335  0.00  0.00    +0.000 A 
ATOM     11  C   UNL     1      23.242  -0.511  54.018  0.00  0.00    +0.000 A 
ATOM     12  C   UNL     1      22.994   0.598  53.192  0.00  0.00    +0.000 A 
ATOM     13  C   UNL     1      25.279   3.092  51.544  0.00  0.00    +0.000 C 
ATOM     14  C   UNL     1      25.006   3.766  50.192  0.00  0.00    +0.000 C 
ENDROOT
BRANCH   1  19
ATOM     15  C   UNL     1      27.469   7.396  47.612  0.00  0.00    +0.000 A 
ATOM     16  C   UNL     1      26.283   8.149  47.522  0.00  0.00    +0.000 A 
ATOM     17  C   UNL     1      26.130   9.506  46.893  0.00  0.00    +0.000 C 
ATOM     18  C   UNL     1      25.110   7.632  48.113  0.00  0.00    +0.000 A 
ATOM     19  C   UNL     1      25.107   6.425  48.817  0.00  0.00    +0.000 A 
ATOM     20  C   UNL     1      26.265   5.663  48.864  0.00  0.00    +0.000 A 
ATOM     21  C   UNL     1      27.452   6.138  48.271  0.00  0.00    +0.000 A 
ATOM     22  C   UNL     1      28.671   5.266  48.415  0.00  0.00    +0.000 C 
BRANCH  15  24
ATOM     23  C   UNL     1      29.588   8.569  47.753  0.00  0.00    +0.000 C 
ATOM     24  O   UNL     1      28.696   7.699  47.084  0.00  0.00    +0.000 OA
ENDBRANCH  15  24
ENDBRANCH   1  19
BRANCH  12  25
ATOM     25  N   UNL     1      21.682   0.903  52.756  0.00  0.00    +0.000 N 
ATOM     26  H   UNL     1      21.168   1.621  53.194  0.00  0.00    +0.000 HD
BRANCH  25  27
ATOM     27  C   UNL     1      21.093   0.141  51.648  0.00  0.00    +0.000 C 
ATOM     28  C   UNL     1      19.578   0.094  51.832  0.00  0.00    +0.000 C 
ATOM     29  C   UNL     1      21.460   0.802  50.321  0.00  0.00    +0.000 C 
ENDBRANCH  25  27
ENDBRANCH  12  25
TORSDOF 4
ENDMDL
MODEL 8
REMARK VINA RESULT:    -7.461      5.244     10.497
REMARK INTER + INTRA:          -9.187
REMARK INTER:                  -8.827
REMARK INTRA:                  -0.360
REMARK UNBOUND:                 0.018
REMARK  Name = 
REMARK  9 active torsions:
REMARK  status: ('A' for Active; 'I' for Inactive)
REMARK    1  A    between atoms: C_1  and  O_2
REMARK    2  A    between atoms: O_2  and  C_3
REMARK    3  A    between atoms: C_4  and  C_5
REMARK    4  A    between atoms: C_7  and  C_8
REMARK    5  A    between atoms: C_19  and  N_20
REMARK    6  A    between atoms: N_20  and  C_21
REMARK    7  A    between atoms: C_21  and  C_22
REMARK    8  A    between atoms: C_21  and  C_23
REMARK    9  A    between atoms: C_27  and  C_28
REMARK                            x       y       z     vdW  Elec       q    Type
REMARK                         _______ _______ _______ _____ _____    ______ ____
ROOT
ATOM      1  C   UNL     1      27.370   5.586  48.694  0.00  0.00    +0.000 C 
ATOM      2  O   UNL     1      28.340   4.897  48.390  0.00  0.00    +0.000 OA
ATOM      3  N   UNL     1      26.230   5.066  49.304  0.00  0.00    +0.000 N 
ATOM      4  C   UNL     1      26.197   3.619  49.587  0.00  0.00    +0.000 C 
ATOM      5  C   UNL     1      24.752   3.059  49.594  0.00  0.00    +0.000 C 
ATOM      6  N   UNL     1      23.962   3.867  50.546  0.00  0.00    +0.000 N 
ATOM      7  C   UNL     1      22.807   3.373  51.152  0.00  0.00    +0.000 A 
ATOM      8  N   UNL     1      21.719   4.190  51.155  0.00  0.00    +0.000 NA
ATOM      9  C   UNL     1      20.617   3.832  51.834  0.00  0.00    +0.000 A 
ATOM     10  C   UNL     1      20.488   2.628  52.482  0.00  0.00    +0.000 A 
ATOM     11  C   UNL     1      21.575   1.768  52.469  0.00  0.00    +0.000 A 
ATOM     12  C   UNL     1      22.796   2.151  51.890  0.00  0.00    +0.000 A 
ATOM     13  C   UNL     1      23.879   5.272  50.090  0.00  0.00    +0.000 C 
ATOM     14  C   UNL     1      25.298   5.858  50.132  0.00  0.00    +0.000 C 
ENDROOT
BRANCH   1  19
ATOM     15  C   UNL     1      27.502   9.805  47.844  0.00  0.00    +0.000 A 
ATOM     16  C   UNL     1      26.360   9.063  47.487  0.00  0.00    +0.000 A 
ATOM     17  C   UNL     1      25.089   9.604  46.893  0.00  0.00    +0.000 C 
ATOM     18  C   UNL     1      26.352   7.675  47.743  0.00  0.00    +0.000 A 
ATOM     19  C   UNL     1      27.420   7.033  48.376  0.00  0.00    +0.000 A 
ATOM     20  C   UNL     1      28.562   7.758  48.684  0.00  0.00    +0.000 A 
ATOM     21  C   UNL     1      28.615   9.143  48.427  0.00  0.00    +0.000 A 
ATOM     22  C   UNL     1      29.875   9.855  48.839  0.00  0.00    +0.000 C 
BRANCH  15  24
ATOM     23  C   UNL     1      26.962  12.118  48.338  0.00  0.00    +0.000 C 
ATOM     24  O   UNL     1      27.724  11.144  47.654  0.00  0.00    +0.000 OA
ENDBRANCH  15  24
ENDBRANCH   1  19
BRANCH  12  25
ATOM     25  N   UNL     1      23.945   1.330  51.999  0.00  0.00    +0.000 N 
ATOM     26  H   UNL     1      24.300   0.865  51.207  0.00  0.00    +0.000 HD
BRANCH  25  27
ATOM     27  C   UNL     1      24.601   1.177  53.305  0.00  0.00    +0.000 C 
ATOM     28  C   UNL     1      25.250  -0.205  53.370  0.00  0.00    +0.000 C 
ATOM     29  C   UNL     1      25.645   2.276  53.484  0.00  0.00    +0.000 C 
ENDBRANCH  25  27
ENDBRANCH  12  25
TORSDOF 4
ENDMDL
MODEL 9
REMARK VINA RESULT:    -7.446      4.949      8.813
REMARK INTER + INTRA:          -9.169
REMARK INTER:                  -8.747
REMARK INTRA:                  -0.422
REMARK UNBOUND:                 0.018
REMARK  Name = 
REMARK  9 active torsions:
REMARK  status: ('A' for Active; 'I' for Inactive)
REMARK    1  A    between atoms: C_1  and  O_2
REMARK    2  A    between atoms: O_2  and  C_3
REMARK    3  A    between atoms: C_4  and  C_5
REMARK    4  A    between atoms: C_7  and  C_8
REMARK    5  A    between atoms: C_19  and  N_20
REMARK    6  A    between atoms: N_20  and  C_21
REMARK    7  A    between atoms: C_21  and  C_22
REMARK    8  A    between atoms: C_21  and  C_23
REMARK    9  A    between atoms: C_27  and  C_28
REMARK                            x       y       z     vdW  Elec       q    Type
REMARK                         _______ _______ _______ _____ _____    ______ ____
ROOT
ATOM      1  C   UNL     1      26.379   5.364  48.944  0.00  0.00    +0.000 C 
ATOM      2  O   UNL     1      27.529   5.392  48.513  0.00  0.00    +0.000 OA
ATOM      3  N   UNL     1      25.905   4.353  49.777  0.00  0.00    +0.000 N 
ATOM      4  C   UNL     1      26.834   3.269  50.147  0.00  0.00    +0.000 C 
ATOM      5  C   UNL     1      26.093   1.941  50.444  0.00  0.00    +0.000 C 
ATOM      6  N   UNL     1      25.068   2.219  51.472  0.00  0.00    +0.000 N 
ATOM      7  C   UNL     1      24.565   1.218  52.303  0.00  0.00    +0.000 A 
ATOM      8  N   UNL     1      23.213   1.166  52.452  0.00  0.00    +0.000 NA
ATOM      9  C   UNL     1      22.671   0.314  53.336  0.00  0.00    +0.000 A 
ATOM     10  C   UNL     1      23.408  -0.585  54.067  0.00  0.00    +0.000 A 
ATOM     11  C   UNL     1      24.786  -0.568  53.912  0.00  0.00    +0.000 A 
ATOM     12  C   UNL     1      25.412   0.394  53.102  0.00  0.00    +0.000 A 
ATOM     13  C   UNL     1      24.060   3.172  50.955  0.00  0.00    +0.000 C 
ATOM     14  C   UNL     1      24.770   4.511  50.709  0.00  0.00    +0.000 C 
ENDROOT
BRANCH   1  19
ATOM     15  C   UNL     1      23.692   8.540  47.834  0.00  0.00    +0.000 A 
ATOM     16  C   UNL     1      23.278   7.201  47.689  0.00  0.00    +0.000 A 
ATOM     17  C   UNL     1      21.921   6.726  47.252  0.00  0.00    +0.000 C 
ATOM     18  C   UNL     1      24.188   6.176  48.026  0.00  0.00    +0.000 A 
ATOM     19  C   UNL     1      25.459   6.453  48.536  0.00  0.00    +0.000 A 
ATOM     20  C   UNL     1      25.880   7.771  48.634  0.00  0.00    +0.000 A 
ATOM     21  C   UNL     1      25.006   8.822  48.291  0.00  0.00    +0.000 A 
ATOM     22  C   UNL     1      25.532  10.220  48.476  0.00  0.00    +0.000 C 
BRANCH  15  24
ATOM     23  C   UNL     1      21.895  10.091  48.338  0.00  0.00    +0.000 C 
ATOM     24  O   UNL     1      22.981   9.673  47.535  0.00  0.00    +0.000 OA
ENDBRANCH  15  24
ENDBRANCH   1  19
BRANCH  12  25
ATOM     25  N   UNL     1      26.824   0.498  53.054  0.00  0.00    +0.000 N 
ATOM     26  H   UNL     1      27.321   0.143  52.281  0.00  0.00    +0.000 HD
BRANCH  25  27
ATOM     27  C   UNL     1      27.540   1.137  54.166  0.00  0.00    +0.000 C 
ATOM     28  C   UNL     1      28.471   0.110  54.807  0.00  0.00    +0.000 C 
ATOM     29  C   UNL     1      28.328   2.336  53.644  0.00  0.00    +0.000 C 
ENDBRANCH  25  27
ENDBRANCH  12  25
TORSDOF 4
ENDMDL
