MODEL 1
REMARK VINA RESULT:    -7.670      0.000      0.000
REMARK INTER + INTRA:         -13.701
REMARK INTER:                 -11.705
REMARK INTRA:                  -1.996
REMARK UNBOUND:                -1.996
REMARK  Name = 
REMARK  11 active torsions:
REMARK  status: ('A' for Active; 'I' for Inactive)
REMARK    1  A    between atoms: C_1  and  C_2
REMARK    2  A    between atoms: C_2  and  C_3
REMARK    3  A    between atoms: C_3  and  O_4
REMARK    4  A    between atoms: O_4  and  C_5
REMARK    5  A    between atoms: C_5  and  C_6
REMARK    6  A    between atoms: C_6  and  N_7
REMARK    7  A    between atoms: C_9  and  C_10
REMARK    8  A    between atoms: C_19  and  C_20
REMARK    9  A    between atoms: C_23  and  C_24
REMARK   10  A    between atoms: C_27  and  O_28
REMARK   11  A    between atoms: O_28  and  C_29
REMARK                            x       y       z     vdW  Elec       q    Type
REMARK                         _______ _______ _______ _____ _____    ______ ____
ROOT
ATOM      1  N   UNL     1      23.218   3.854  52.154  0.00  0.00    +0.000 N 
ATOM      2  C   UNL     1      23.865   5.000  51.500  0.00  0.00    +0.000 C 
ATOM      3  C   UNL     1      23.795   4.748  49.995  0.00  0.00    +0.000 C 
ATOM      4  C   UNL     1      23.924   3.228  49.893  0.00  0.00    +0.000 C 
ATOM      5  C   UNL     1      23.424   2.689  51.255  0.00  0.00    +0.000 C 
ATOM      6  H   UNL     1      23.631   3.649  53.063  0.00  0.00    +0.000 HD
ENDROOT
BRANCH   3   7
ATOM      7  C   UNL     1      24.808   5.623  49.280  0.00  0.00    +0.000 A 
ATOM      8  C   UNL     1      24.461   6.803  48.577  0.00  0.00    +0.000 A 
ATOM      9  C   UNL     1      25.422   7.540  47.873  0.00  0.00    +0.000 A 
ATOM     10  C   UNL     1      26.719   7.084  47.884  0.00  0.00    +0.000 A 
ATOM     11  C   UNL     1      27.071   5.932  48.543  0.00  0.00    +0.000 A 
ATOM     12  C   UNL     1      26.145   5.182  49.238  0.00  0.00    +0.000 A 
ATOM     13  O   UNL     1      28.391   5.640  48.411  0.00  0.00    +0.000 OA
ATOM     14  C   UNL     1      28.850   6.802  47.689  0.00  0.00    +0.000 C 
ATOM     15  O   UNL     1      27.779   7.672  47.267  0.00  0.00    +0.000 OA
ENDBRANCH   3   7
BRANCH   5  16
ATOM     16  C   UNL     1      24.445   1.702  51.828  0.00  0.00    +0.000 A 
ATOM     17  C   UNL     1      24.081   0.681  52.720  0.00  0.00    +0.000 A 
ATOM     18  C   UNL     1      25.039  -0.171  53.286  0.00  0.00    +0.000 A 
ATOM     19  C   UNL     1      26.387  -0.014  52.972  0.00  0.00    +0.000 A 
ATOM     20  C   UNL     1      26.762   0.995  52.085  0.00  0.00    +0.000 A 
ATOM     21  C   UNL     1      25.805   1.848  51.519  0.00  0.00    +0.000 A 
BRANCH  19  22
ATOM     22  O   UNL     1      27.417  -0.766  53.467  0.00  0.00    +0.000 OA
ATOM     23  C   UNL     1      28.372  -0.091  54.276  0.00  0.00    +0.000 C 
ENDBRANCH  19  22
ENDBRANCH   5  16
BRANCH   4  24
ATOM     24  C   UNL     1      23.050   2.684  48.796  0.00  0.00    +0.000 C 
ATOM     25  O   UNL     1      22.940   3.125  47.666  0.00  0.00    +0.000 OA
ATOM     26  O   UNL     1      22.330   1.605  49.175  0.00  0.00    +0.000 OA
ENDBRANCH   4  24
BRANCH   1  27
ATOM     27  C   UNL     1      21.803   4.139  52.482  0.00  0.00    +0.000 C 
BRANCH  27  28
ATOM     28  C   UNL     1      20.799   3.098  51.933  0.00  0.00    +0.000 C 
BRANCH  28  29
ATOM     29  O   UNL     1      20.114   2.319  52.916  0.00  0.00    +0.000 OA
BRANCH  29  30
ATOM     30  C   UNL     1      20.410   0.931  53.003  0.00  0.00    +0.000 C 
BRANCH  30  32
ATOM     31  C   UNL     1      21.295  -1.042  54.376  0.00  0.00    +0.000 C 
ATOM     32  C   UNL     1      20.789   0.393  54.384  0.00  0.00    +0.000 C 
ENDBRANCH  30  32
ENDBRANCH  29  30
ENDBRANCH  28  29
ENDBRANCH  27  28
ENDBRANCH   1  27
TORSDOF 9
ENDMDL
MODEL 2
REMARK VINA RESULT:    -7.573      1.911      6.346
REMARK INTER + INTRA:         -13.554
REMARK INTER:                 -11.218
REMARK INTRA:                  -2.336
REMARK UNBOUND:                -1.996
REMARK  Name = 
REMARK  11 active torsions:
REMARK  status: ('A' for Active; 'I' for Inactive)
REMARK    1  A    between atoms: C_1  and  C_2
REMARK    2  A    between atoms: C_2  and  C_3
REMARK    3  A    between atoms: C_3  and  O_4
REMARK    4  A    between atoms: O_4  and  C_5
REMARK    5  A    between atoms: C_5  and  C_6
REMARK    6  A    between atoms: C_6  and  N_7
REMARK    7  A    between atoms: C_9  and  C_10
REMARK    8  A    between atoms: C_19  and  C_20
REMARK    9  A    between atoms: C_23  and  C_24
REMARK   10  A    between atoms: C_27  and  O_28
REMARK   11  A    between atoms: O_28  and  C_29
REMARK                            x       y       z     vdW  Elec       q    Type
REMARK                         _______ _______ _______ _____ _____    ______ ____
ROOT
ATOM      1  N   UNL     1      23.603   4.044  48.680  0.00  0.00    +0.000 N 
ATOM      2  C   UNL     1      23.691   2.751  49.374  0.00  0.00    +0.000 C 
ATOM      3  C   UNL     1      23.658   3.051  50.871  0.00  0.00    +0.000 C 
ATOM      4  C   UNL     1      24.394   4.387  50.973  0.00  0.00    +0.000 C 
ATOM      5  C   UNL     1      24.225   5.046  49.583  0.00  0.00    +0.000 C 
ATOM      6  H   UNL     1      24.108   4.038  47.794  0.00  0.00    +0.000 HD
ENDROOT
BRANCH   3   7
ATOM      7  C   UNL     1      24.187   1.857  51.645  0.00  0.00    +0.000 A 
ATOM      8  C   UNL     1      23.383   1.063  52.499  0.00  0.00    +0.000 A 
ATOM      9  C   UNL     1      23.933   0.013  53.247  0.00  0.00    +0.000 A 
ATOM     10  C   UNL     1      25.282  -0.226  53.129  0.00  0.00    +0.000 A 
ATOM     11  C   UNL     1      26.080   0.547  52.321  0.00  0.00    +0.000 A 
ATOM     12  C   UNL     1      25.569   1.590  51.579  0.00  0.00    +0.000 A 
ATOM     13  O   UNL     1      27.384   0.165  52.362  0.00  0.00    +0.000 OA
ATOM     14  C   UNL     1      27.293  -1.005  53.200  0.00  0.00    +0.000 C 
ATOM     15  O   UNL     1      25.981  -1.201  53.768  0.00  0.00    +0.000 OA
ENDBRANCH   3   7
BRANCH   5  16
ATOM     16  C   UNL     1      25.588   5.513  49.063  0.00  0.00    +0.000 A 
ATOM     17  C   UNL     1      25.770   6.770  48.464  0.00  0.00    +0.000 A 
ATOM     18  C   UNL     1      27.009   7.155  47.934  0.00  0.00    +0.000 A 
ATOM     19  C   UNL     1      28.094   6.281  47.989  0.00  0.00    +0.000 A 
ATOM     20  C   UNL     1      27.926   5.031  48.583  0.00  0.00    +0.000 A 
ATOM     21  C   UNL     1      26.688   4.645  49.113  0.00  0.00    +0.000 A 
BRANCH  19  22
ATOM     22  O   UNL     1      29.345   6.529  47.495  0.00  0.00    +0.000 OA
ATOM     23  C   UNL     1      30.392   5.676  47.945  0.00  0.00    +0.000 C 
ENDBRANCH  19  22
ENDBRANCH   5  16
BRANCH   4  24
ATOM     24  C   UNL     1      23.767   5.270  52.017  0.00  0.00    +0.000 C 
ATOM     25  O   UNL     1      23.169   4.907  53.015  0.00  0.00    +0.000 OA
ATOM     26  O   UNL     1      23.907   6.587  51.754  0.00  0.00    +0.000 OA
ENDBRANCH   4  24
BRANCH   1  27
ATOM     27  C   UNL     1      22.214   4.355  48.276  0.00  0.00    +0.000 C 
BRANCH  27  28
ATOM     28  C   UNL     1      21.655   5.669  48.870  0.00  0.00    +0.000 C 
BRANCH  28  29
ATOM     29  O   UNL     1      20.854   5.527  50.045  0.00  0.00    +0.000 OA
BRANCH  29  30
ATOM     30  C   UNL     1      20.234   4.271  50.290  0.00  0.00    +0.000 C 
BRANCH  30  32
ATOM     31  C   UNL     1      19.962   2.333  51.943  0.00  0.00    +0.000 C 
ATOM     32  C   UNL     1      20.116   3.834  51.752  0.00  0.00    +0.000 C 
ENDBRANCH  30  32
ENDBRANCH  29  30
ENDBRANCH  28  29
ENDBRANCH  27  28
ENDBRANCH   1  27
TORSDOF 9
ENDMDL
MODEL 3
REMARK VINA RESULT:    -7.372      2.213      7.434
REMARK INTER + INTRA:         -13.248
REMARK INTER:                 -11.453
REMARK INTRA:                  -1.794
REMARK UNBOUND:                -1.996
REMARK  Name = 
REMARK  11 active torsions:
REMARK  status: ('A' for Active; 'I' for Inactive)
REMARK    1  A    between atoms: C_1  and  C_2
REMARK    2  A    between atoms: C_2  and  C_3
REMARK    3  A    between atoms: C_3  and  O_4
REMARK    4  A    between atoms: O_4  and  C_5
REMARK    5  A    between atoms: C_5  and  C_6
REMARK    6  A    between atoms: C_6  and  N_7
REMARK    7  A    between atoms: C_9  and  C_10
REMARK    8  A    between atoms: C_19  and  C_20
REMARK    9  A    between atoms: C_23  and  C_24
REMARK   10  A    between atoms: C_27  and  O_28
REMARK   11  A    between atoms: O_28  and  C_29
REMARK                            x       y       z     vdW  Elec       q    Type
REMARK                         _______ _______ _______ _____ _____    ______ ____
ROOT
ATOM      1  N   UNL     1      23.090   1.991  49.582  0.00  0.00    +0.000 N 
ATOM      2  C   UNL     1      21.820   1.251  49.567  0.00  0.00    +0.000 C 
ATOM      3  C   UNL     1      20.894   1.944  50.566  0.00  0.00    +0.000 C 
ATOM      4  C   UNL     1      21.854   2.424  51.653  0.00  0.00    +0.000 C 
ATOM      5  C   UNL     1      23.225   2.562  50.947  0.00  0.00    +0.000 C 
ATOM      6  H   UNL     1      23.888   1.385  49.396  0.00  0.00    +0.000 HD
ENDROOT
BRANCH   3   7
ATOM      7  C   UNL     1      19.758   1.011  50.944  0.00  0.00    +0.000 A 
ATOM      8  C   UNL     1      18.525   0.962  50.250  0.00  0.00    +0.000 A 
ATOM      9  C   UNL     1      17.480   0.134  50.681  0.00  0.00    +0.000 A 
ATOM     10  C   UNL     1      17.686  -0.634  51.802  0.00  0.00    +0.000 A 
ATOM     11  C   UNL     1      18.868  -0.584  52.500  0.00  0.00    +0.000 A 
ATOM     12  C   UNL     1      19.911   0.226  52.104  0.00  0.00    +0.000 A 
ATOM     13  O   UNL     1      18.863  -1.397  53.590  0.00  0.00    +0.000 OA
ATOM     14  C   UNL     1      17.584  -2.047  53.431  0.00  0.00    +0.000 C 
ATOM     15  O   UNL     1      16.793  -1.497  52.357  0.00  0.00    +0.000 OA
ENDBRANCH   3   7
BRANCH   5  16
ATOM     16  C   UNL     1      24.302   1.839  51.762  0.00  0.00    +0.000 A 
ATOM     17  C   UNL     1      25.662   1.891  51.419  0.00  0.00    +0.000 A 
ATOM     18  C   UNL     1      26.626   1.169  52.136  0.00  0.00    +0.000 A 
ATOM     19  C   UNL     1      26.243   0.374  53.215  0.00  0.00    +0.000 A 
ATOM     20  C   UNL     1      24.895   0.316  53.568  0.00  0.00    +0.000 A 
ATOM     21  C   UNL     1      23.931   1.036  52.851  0.00  0.00    +0.000 A 
BRANCH  19  22
ATOM     22  O   UNL     1      27.080  -0.389  53.983  0.00  0.00    +0.000 OA
ATOM     23  C   UNL     1      28.453  -0.402  53.614  0.00  0.00    +0.000 C 
ENDBRANCH  19  22
ENDBRANCH   5  16
BRANCH   4  24
ATOM     24  C   UNL     1      21.438   3.767  52.187  0.00  0.00    +0.000 C 
ATOM     25  O   UNL     1      22.123   4.538  52.836  0.00  0.00    +0.000 OA
ATOM     26  O   UNL     1      20.158   4.084  51.892  0.00  0.00    +0.000 OA
ENDBRANCH   4  24
BRANCH   1  27
ATOM     27  C   UNL     1      23.157   2.985  48.488  0.00  0.00    +0.000 C 
BRANCH  27  28
ATOM     28  C   UNL     1      23.232   4.455  48.964  0.00  0.00    +0.000 C 
BRANCH  28  29
ATOM     29  O   UNL     1      24.422   5.162  48.608  0.00  0.00    +0.000 OA
BRANCH  29  30
ATOM     30  C   UNL     1      25.490   5.199  49.547  0.00  0.00    +0.000 C 
BRANCH  30  32
ATOM     31  C   UNL     1      27.841   5.223  48.528  0.00  0.00    +0.000 C 
ATOM     32  C   UNL     1      26.746   4.401  49.192  0.00  0.00    +0.000 C 
ENDBRANCH  30  32
ENDBRANCH  29  30
ENDBRANCH  28  29
ENDBRANCH  27  28
ENDBRANCH   1  27
TORSDOF 9
ENDMDL
MODEL 4
REMARK VINA RESULT:    -7.178      2.059      3.716
REMARK INTER + INTRA:         -12.951
REMARK INTER:                 -10.609
REMARK INTRA:                  -2.343
REMARK UNBOUND:                -1.996
REMARK  Name = 
REMARK  11 active torsions:
REMARK  status: ('A' for Active; 'I' for Inactive)
REMARK    1  A    between atoms: C_1  and  C_2
REMARK    2  A    between atoms: C_2  and  C_3
REMARK    3  A    between atoms: C_3  and  O_4
REMARK    4  A    between atoms: O_4  and  C_5
REMARK    5  A    between atoms: C_5  and  C_6
REMARK    6  A    between atoms: C_6  and  N_7
REMARK    7  A    between atoms: C_9  and  C_10
REMARK    8  A    between atoms: C_19  and  C_20
REMARK    9  A    between atoms: C_23  and  C_24
REMARK   10  A    between atoms: C_27  and  O_28
REMARK   11  A    between atoms: O_28  and  C_29
REMARK                            x       y       z     vdW  Elec       q    Type
REMARK                         _______ _______ _______ _____ _____    ______ ____
ROOT
ATOM      1  N   UNL     1      21.445   3.559  51.764  0.00  0.00    +0.000 N 
ATOM      2  C   UNL     1      22.635   4.262  51.263  0.00  0.00    +0.000 C 
ATOM      3  C   UNL     1      22.982   3.635  49.914  0.00  0.00    +0.000 C 
ATOM      4  C   UNL     1      22.590   2.170  50.102  0.00  0.00    +0.000 C 
ATOM      5  C   UNL     1      21.510   2.181  51.211  0.00  0.00    +0.000 C 
ATOM      6  H   UNL     1      21.433   3.506  52.782  0.00  0.00    +0.000 HD
ENDROOT
BRANCH   3   7
ATOM      7  C   UNL     1      24.415   3.973  49.545  0.00  0.00    +0.000 A 
ATOM      8  C   UNL     1      25.503   3.091  49.753  0.00  0.00    +0.000 A 
ATOM      9  C   UNL     1      26.819   3.476  49.462  0.00  0.00    +0.000 A 
ATOM     10  C   UNL     1      27.025   4.741  48.966  0.00  0.00    +0.000 A 
ATOM     11  C   UNL     1      25.985   5.618  48.777  0.00  0.00    +0.000 A 
ATOM     12  C   UNL     1      24.682   5.270  49.061  0.00  0.00    +0.000 A 
ATOM     13  O   UNL     1      26.400   6.823  48.306  0.00  0.00    +0.000 OA
ATOM     14  C   UNL     1      27.806   6.564  48.113  0.00  0.00    +0.000 C 
ATOM     15  O   UNL     1      28.225   5.280  48.622  0.00  0.00    +0.000 OA
ENDBRANCH   3   7
BRANCH   5  16
ATOM     16  C   UNL     1      21.863   1.151  52.287  0.00  0.00    +0.000 A 
ATOM     17  C   UNL     1      20.883   0.521  53.070  0.00  0.00    +0.000 A 
ATOM     18  C   UNL     1      21.228  -0.370  54.096  0.00  0.00    +0.000 A 
ATOM     19  C   UNL     1      22.568  -0.644  54.362  0.00  0.00    +0.000 A 
ATOM     20  C   UNL     1      23.551  -0.026  53.590  0.00  0.00    +0.000 A 
ATOM     21  C   UNL     1      23.208   0.865  52.564  0.00  0.00    +0.000 A 
BRANCH  19  22
ATOM     22  O   UNL     1      23.035  -1.477  55.341  0.00  0.00    +0.000 OA
ATOM     23  C   UNL     1      24.424  -1.403  55.637  0.00  0.00    +0.000 C 
ENDBRANCH  19  22
ENDBRANCH   5  16
BRANCH   4  24
ATOM     24  C   UNL     1      21.996   1.604  48.841  0.00  0.00    +0.000 C 
ATOM     25  O   UNL     1      22.395   1.783  47.704  0.00  0.00    +0.000 OA
ATOM     26  O   UNL     1      20.903   0.841  49.063  0.00  0.00    +0.000 OA
ENDBRANCH   4  24
BRANCH   1  27
ATOM     27  C   UNL     1      20.201   4.294  51.448  0.00  0.00    +0.000 C 
BRANCH  27  28
ATOM     28  C   UNL     1      19.176   3.487  50.617  0.00  0.00    +0.000 C 
BRANCH  28  29
ATOM     29  O   UNL     1      18.986   3.926  49.270  0.00  0.00    +0.000 OA
BRANCH  29  30
ATOM     30  C   UNL     1      19.778   5.007  48.795  0.00  0.00    +0.000 C 
BRANCH  30  32
ATOM     31  C   UNL     1      21.556   5.843  47.152  0.00  0.00    +0.000 C 
ATOM     32  C   UNL     1      20.484   4.806  47.453  0.00  0.00    +0.000 C 
ENDBRANCH  30  32
ENDBRANCH  29  30
ENDBRANCH  28  29
ENDBRANCH  27  28
ENDBRANCH   1  27
TORSDOF 9
ENDMDL
MODEL 5
REMARK VINA RESULT:    -7.149      1.294      1.789
REMARK INTER + INTRA:         -12.906
REMARK INTER:                 -10.869
REMARK INTRA:                  -2.037
REMARK UNBOUND:                -1.996
REMARK  Name = 
REMARK  11 active torsions:
REMARK  status: ('A' for Active; 'I' for Inactive)
REMARK    1  A    between atoms: C_1  and  C_2
REMARK    2  A    between atoms: C_2  and  C_3
REMARK    3  A    between atoms: C_3  and  O_4
REMARK    4  A    between atoms: O_4  and  C_5
REMARK    5  A    between atoms: C_5  and  C_6
REMARK    6  A    between atoms: C_6  and  N_7
REMARK    7  A    between atoms: C_9  and  C_10
REMARK    8  A    between atoms: C_19  and  C_20
REMARK    9  A    between atoms: C_23  and  C_24
REMARK   10  A    between atoms: C_27  and  O_28
REMARK   11  A    between atoms: O_28  and  C_29
REMARK                            x       y       z     vdW  Elec       q    Type
REMARK                         _______ _______ _______ _____ _____    ______ ____
ROOT
ATOM      1  N   UNL     1      23.453   4.485  51.883  0.00  0.00    +0.000 N 
ATOM      2  C   UNL     1      24.233   5.532  51.207  0.00  0.00    +0.000 C 
ATOM      3  C   UNL     1      24.151   5.246  49.709  0.00  0.00    +0.000 C 
ATOM      4  C   UNL     1      24.109   3.719  49.650  0.00  0.00    +0.000 C 
ATOM      5  C   UNL     1      23.536   3.279  51.019  0.00  0.00    +0.000 C 
ATOM      6  H   UNL     1      23.831   4.260  52.802  0.00  0.00    +0.000 HD
ENDROOT
BRANCH   3   7
ATOM      7  C   UNL     1      25.264   5.981  48.985  0.00  0.00    +0.000 A 
ATOM      8  C   UNL     1      25.048   7.129  48.183  0.00  0.00    +0.000 A 
ATOM      9  C   UNL     1      26.097   7.731  47.477  0.00  0.00    +0.000 A 
ATOM     10  C   UNL     1      27.350   7.175  47.585  0.00  0.00    +0.000 A 
ATOM     11  C   UNL     1      27.575   6.052  48.342  0.00  0.00    +0.000 A 
ATOM     12  C   UNL     1      26.561   5.433  49.041  0.00  0.00    +0.000 A 
ATOM     13  O   UNL     1      28.871   5.647  48.298  0.00  0.00    +0.000 OA
ATOM     14  C   UNL     1      29.457   6.710  47.519  0.00  0.00    +0.000 C 
ATOM     15  O   UNL     1      28.481   7.628  46.982  0.00  0.00    +0.000 OA
ENDBRANCH   3   7
BRANCH   5  16
ATOM     16  C   UNL     1      24.433   2.200  51.632  0.00  0.00    +0.000 A 
ATOM     17  C   UNL     1      25.816   2.149  51.390  0.00  0.00    +0.000 A 
ATOM     18  C   UNL     1      26.611   1.117  51.906  0.00  0.00    +0.000 A 
ATOM     19  C   UNL     1      26.033   0.107  52.673  0.00  0.00    +0.000 A 
ATOM     20  C   UNL     1      24.662   0.147  52.923  0.00  0.00    +0.000 A 
ATOM     21  C   UNL     1      23.866   1.178  52.407  0.00  0.00    +0.000 A 
BRANCH  19  22
ATOM     22  O   UNL     1      26.693  -0.961  53.217  0.00  0.00    +0.000 OA
ATOM     23  C   UNL     1      26.804  -2.126  52.409  0.00  0.00    +0.000 C 
ENDBRANCH  19  22
ENDBRANCH   5  16
BRANCH   4  24
ATOM     24  C   UNL     1      23.191   3.246  48.556  0.00  0.00    +0.000 C 
ATOM     25  O   UNL     1      23.039   2.098  48.178  0.00  0.00    +0.000 OA
ATOM     26  O   UNL     1      22.504   4.250  47.966  0.00  0.00    +0.000 OA
ENDBRANCH   4  24
BRANCH   1  27
ATOM     27  C   UNL     1      22.076   4.935  52.183  0.00  0.00    +0.000 C 
BRANCH  27  28
ATOM     28  C   UNL     1      21.004   3.825  52.080  0.00  0.00    +0.000 C 
BRANCH  28  29
ATOM     29  O   UNL     1      20.258   3.795  50.862  0.00  0.00    +0.000 OA
BRANCH  29  30
ATOM     30  C   UNL     1      19.549   2.606  50.535  0.00  0.00    +0.000 C 
BRANCH  30  32
ATOM     31  C   UNL     1      20.393   0.325  51.338  0.00  0.00    +0.000 C 
ATOM     32  C   UNL     1      20.389   1.365  50.228  0.00  0.00    +0.000 C 
ENDBRANCH  30  32
ENDBRANCH  29  30
ENDBRANCH  28  29
ENDBRANCH  27  28
ENDBRANCH   1  27
TORSDOF 9
ENDMDL
MODEL 6
REMARK VINA RESULT:    -7.087      1.440      2.849
REMARK INTER + INTRA:         -12.812
REMARK INTER:                 -10.611
REMARK INTRA:                  -2.201
REMARK UNBOUND:                -1.996
REMARK  Name = 
REMARK  11 active torsions:
REMARK  status: ('A' for Active; 'I' for Inactive)
REMARK    1  A    between atoms: C_1  and  C_2
REMARK    2  A    between atoms: C_2  and  C_3
REMARK    3  A    between atoms: C_3  and  O_4
REMARK    4  A    between atoms: O_4  and  C_5
REMARK    5  A    between atoms: C_5  and  C_6
REMARK    6  A    between atoms: C_6  and  N_7
REMARK    7  A    between atoms: C_9  and  C_10
REMARK    8  A    between atoms: C_19  and  C_20
REMARK    9  A    between atoms: C_23  and  C_24
REMARK   10  A    between atoms: C_27  and  O_28
REMARK   11  A    between atoms: O_28  and  C_29
REMARK                            x       y       z     vdW  Elec       q    Type
REMARK                         _______ _______ _______ _____ _____    ______ ____
ROOT
ATOM      1  N   UNL     1      23.330   4.381  52.013  0.00  0.00    +0.000 N 
ATOM      2  C   UNL     1      24.146   5.409  51.351  0.00  0.00    +0.000 C 
ATOM      3  C   UNL     1      24.071   5.134  49.850  0.00  0.00    +0.000 C 
ATOM      4  C   UNL     1      23.986   3.609  49.782  0.00  0.00    +0.000 C 
ATOM      5  C   UNL     1      23.387   3.178  51.143  0.00  0.00    +0.000 C 
ATOM      6  H   UNL     1      23.692   4.141  52.935  0.00  0.00    +0.000 HD
ENDROOT
BRANCH   3   7
ATOM      7  C   UNL     1      25.211   5.841  49.141  0.00  0.00    +0.000 A 
ATOM      8  C   UNL     1      25.048   7.040  48.405  0.00  0.00    +0.000 A 
ATOM      9  C   UNL     1      26.118   7.618  47.709  0.00  0.00    +0.000 A 
ATOM     10  C   UNL     1      27.337   6.985  47.760  0.00  0.00    +0.000 A 
ATOM     11  C   UNL     1      27.510   5.811  48.452  0.00  0.00    +0.000 A 
ATOM     12  C   UNL     1      26.474   5.216  49.141  0.00  0.00    +0.000 A 
ATOM     13  O   UNL     1      28.779   5.335  48.359  0.00  0.00    +0.000 OA
ATOM     14  C   UNL     1      29.411   6.403  47.623  0.00  0.00    +0.000 C 
ATOM     15  O   UNL     1      28.482   7.403  47.157  0.00  0.00    +0.000 OA
ENDBRANCH   3   7
BRANCH   5  16
ATOM     16  C   UNL     1      24.247   2.071  51.759  0.00  0.00    +0.000 A 
ATOM     17  C   UNL     1      25.611   1.927  51.458  0.00  0.00    +0.000 A 
ATOM     18  C   UNL     1      26.367   0.868  51.979  0.00  0.00    +0.000 A 
ATOM     19  C   UNL     1      25.768  -0.074  52.812  0.00  0.00    +0.000 A 
ATOM     20  C   UNL     1      24.415   0.059  53.122  0.00  0.00    +0.000 A 
ATOM     21  C   UNL     1      23.658   1.116  52.601  0.00  0.00    +0.000 A 
BRANCH  19  22
ATOM     22  O   UNL     1      26.390  -1.158  53.370  0.00  0.00    +0.000 OA
ATOM     23  C   UNL     1      26.858  -2.159  52.475  0.00  0.00    +0.000 C 
ENDBRANCH  19  22
ENDBRANCH   5  16
BRANCH   4  24
ATOM     24  C   UNL     1      23.066   3.168  48.677  0.00  0.00    +0.000 C 
ATOM     25  O   UNL     1      22.708   3.831  47.719  0.00  0.00    +0.000 OA
ATOM     26  O   UNL     1      22.617   1.903  48.830  0.00  0.00    +0.000 OA
ENDBRANCH   4  24
BRANCH   1  27
ATOM     27  C   UNL     1      21.963   4.870  52.302  0.00  0.00    +0.000 C 
BRANCH  27  28
ATOM     28  C   UNL     1      20.836   4.041  51.643  0.00  0.00    +0.000 C 
BRANCH  28  29
ATOM     29  O   UNL     1      19.847   4.791  50.934  0.00  0.00    +0.000 OA
BRANCH  29  30
ATOM     30  C   UNL     1      20.178   5.294  49.646  0.00  0.00    +0.000 C 
BRANCH  30  32
ATOM     31  C   UNL     1      21.321   7.187  48.353  0.00  0.00    +0.000 C 
ATOM     32  C   UNL     1      20.459   6.794  49.544  0.00  0.00    +0.000 C 
ENDBRANCH  30  32
ENDBRANCH  29  30
ENDBRANCH  28  29
ENDBRANCH  27  28
ENDBRANCH   1  27
TORSDOF 9
ENDMDL
MODEL 7
REMARK VINA RESULT:    -7.080      1.970      6.515
REMARK INTER + INTRA:         -12.802
REMARK INTER:                 -11.042
REMARK INTRA:                  -1.760
REMARK UNBOUND:                -1.996
REMARK  Name = 
REMARK  11 active torsions:
REMARK  status: ('A' for Active; 'I' for Inactive)
REMARK    1  A    between atoms: C_1  and  C_2
REMARK    2  A    between atoms: C_2  and  C_3
REMARK    3  A    between atoms: C_3  and  O_4
REMARK    4  A    between atoms: O_4  and  C_5
REMARK    5  A    between atoms: C_5  and  C_6
REMARK    6  A    between atoms: C_6  and  N_7
REMARK    7  A    between atoms: C_9  and  C_10
REMARK    8  A    between atoms: C_19  and  C_20
REMARK    9  A    between atoms: C_23  and  C_24
REMARK   10  A    between atoms: C_27  and  O_28
REMARK   11  A    between atoms: O_28  and  C_29
REMARK                            x       y       z     vdW  Elec       q    Type
REMARK                         _______ _______ _______ _____ _____    ______ ____
ROOT
ATOM      1  N   UNL     1      23.033   3.753  52.712  0.00  0.00    +0.000 N 
ATOM      2  C   UNL     1      24.251   3.065  53.163  0.00  0.00    +0.000 C 
ATOM      3  C   UNL     1      25.007   2.635  51.907  0.00  0.00    +0.000 C 
ATOM      4  C   UNL     1      23.884   2.313  50.921  0.00  0.00    +0.000 C 
ATOM      5  C   UNL     1      22.674   3.150  51.402  0.00  0.00    +0.000 C 
ATOM      6  H   UNL     1      22.258   3.623  53.360  0.00  0.00    +0.000 HD
ENDROOT
BRANCH   3   7
ATOM      7  C   UNL     1      26.012   1.554  52.258  0.00  0.00    +0.000 A 
ATOM      8  C   UNL     1      25.737   0.168  52.152  0.00  0.00    +0.000 A 
ATOM      9  C   UNL     1      26.673  -0.793  52.556  0.00  0.00    +0.000 A 
ATOM     10  C   UNL     1      27.873  -0.351  53.061  0.00  0.00    +0.000 A 
ATOM     11  C   UNL     1      28.150   0.988  53.191  0.00  0.00    +0.000 A 
ATOM     12  C   UNL     1      27.246   1.955  52.808  0.00  0.00    +0.000 A 
ATOM     13  O   UNL     1      29.375   1.215  53.733  0.00  0.00    +0.000 OA
ATOM     14  C   UNL     1      29.880  -0.133  53.824  0.00  0.00    +0.000 C 
ATOM     15  O   UNL     1      28.897  -1.136  53.492  0.00  0.00    +0.000 OA
ENDBRANCH   3   7
BRANCH   5  16
ATOM     16  C   UNL     1      21.435   2.255  51.509  0.00  0.00    +0.000 A 
ATOM     17  C   UNL     1      20.137   2.781  51.599  0.00  0.00    +0.000 A 
ATOM     18  C   UNL     1      19.021   1.949  51.763  0.00  0.00    +0.000 A 
ATOM     19  C   UNL     1      19.185   0.568  51.844  0.00  0.00    +0.000 A 
ATOM     20  C   UNL     1      20.469   0.033  51.753  0.00  0.00    +0.000 A 
ATOM     21  C   UNL     1      21.586   0.863  51.590  0.00  0.00    +0.000 A 
BRANCH  19  22
ATOM     22  O   UNL     1      18.183  -0.347  52.020  0.00  0.00    +0.000 OA
ATOM     23  C   UNL     1      18.220  -1.117  53.216  0.00  0.00    +0.000 C 
ENDBRANCH  19  22
ENDBRANCH   5  16
BRANCH   4  24
ATOM     24  C   UNL     1      24.253   2.737  49.526  0.00  0.00    +0.000 C 
ATOM     25  O   UNL     1      23.509   2.801  48.563  0.00  0.00    +0.000 OA
ATOM     26  O   UNL     1      25.560   3.053  49.393  0.00  0.00    +0.000 OA
ENDBRANCH   4  24
BRANCH   1  27
ATOM     27  C   UNL     1      23.211   5.222  52.687  0.00  0.00    +0.000 C 
BRANCH  27  28
ATOM     28  C   UNL     1      22.774   5.896  51.365  0.00  0.00    +0.000 C 
BRANCH  28  29
ATOM     29  O   UNL     1      23.693   6.843  50.818  0.00  0.00    +0.000 OA
BRANCH  29  30
ATOM     30  C   UNL     1      24.999   6.395  50.477  0.00  0.00    +0.000 C 
BRANCH  30  32
ATOM     31  C   UNL     1      26.806   6.070  48.690  0.00  0.00    +0.000 C 
ATOM     32  C   UNL     1      25.519   6.777  49.090  0.00  0.00    +0.000 C 
ENDBRANCH  30  32
ENDBRANCH  29  30
ENDBRANCH  28  29
ENDBRANCH  27  28
ENDBRANCH   1  27
TORSDOF 9
ENDMDL
MODEL 8
REMARK VINA RESULT:    -7.051      1.659      2.019
REMARK INTER + INTRA:         -12.757
REMARK INTER:                 -10.825
REMARK INTRA:                  -1.932
REMARK UNBOUND:                -1.996
REMARK  Name = 
REMARK  11 active torsions:
REMARK  status: ('A' for Active; 'I' for Inactive)
REMARK    1  A    between atoms: C_1  and  C_2
REMARK    2  A    between atoms: C_2  and  C_3
REMARK    3  A    between atoms: C_3  and  O_4
REMARK    4  A    between atoms: O_4  and  C_5
REMARK    5  A    between atoms: C_5  and  C_6
REMARK    6  A    between atoms: C_6  and  N_7
REMARK    7  A    between atoms: C_9  and  C_10
REMARK    8  A    between atoms: C_19  and  C_20
REMARK    9  A    between atoms: C_23  and  C_24
REMARK   10  A    between atoms: C_27  and  O_28
REMARK   11  A    between atoms: O_28  and  C_29
REMARK                            x       y       z     vdW  Elec       q    Type
REMARK                         _______ _______ _______ _____ _____    ______ ____
ROOT
ATOM      1  N   UNL     1      22.264   3.287  52.344  0.00  0.00    +0.000 N 
ATOM      2  C   UNL     1      22.460   4.720  52.084  0.00  0.00    +0.000 C 
ATOM      3  C   UNL     1      22.594   4.879  50.570  0.00  0.00    +0.000 C 
ATOM      4  C   UNL     1      23.307   3.595  50.149  0.00  0.00    +0.000 C 
ATOM      5  C   UNL     1      22.964   2.564  51.252  0.00  0.00    +0.000 C 
ATOM      6  H   UNL     1      22.663   3.003  53.238  0.00  0.00    +0.000 HD
ENDROOT
BRANCH   3   7
ATOM      7  C   UNL     1      23.235   6.217  50.250  0.00  0.00    +0.000 A 
ATOM      8  C   UNL     1      22.532   7.299  49.665  0.00  0.00    +0.000 A 
ATOM      9  C   UNL     1      23.184   8.491  49.323  0.00  0.00    +0.000 A 
ATOM     10  C   UNL     1      24.533   8.582  49.572  0.00  0.00    +0.000 A 
ATOM     11  C   UNL     1      25.235   7.537  50.120  0.00  0.00    +0.000 A 
ATOM     12  C   UNL     1      24.622   6.350  50.460  0.00  0.00    +0.000 A 
ATOM     13  O   UNL     1      26.558   7.817  50.263  0.00  0.00    +0.000 OA
ATOM     14  C   UNL     1      26.584   9.198  49.846  0.00  0.00    +0.000 C 
ATOM     15  O   UNL     1      25.324   9.658  49.315  0.00  0.00    +0.000 OA
ENDBRANCH   3   7
BRANCH   5  16
ATOM     16  C   UNL     1      24.247   1.889  51.746  0.00  0.00    +0.000 A 
ATOM     17  C   UNL     1      25.522   2.323  51.350  0.00  0.00    +0.000 A 
ATOM     18  C   UNL     1      26.683   1.653  51.759  0.00  0.00    +0.000 A 
ATOM     19  C   UNL     1      26.588   0.526  52.574  0.00  0.00    +0.000 A 
ATOM     20  C   UNL     1      25.328   0.086  52.977  0.00  0.00    +0.000 A 
ATOM     21  C   UNL     1      24.166   0.755  52.567  0.00  0.00    +0.000 A 
BRANCH  19  22
ATOM     22  O   UNL     1      27.639  -0.223  53.027  0.00  0.00    +0.000 OA
ATOM     23  C   UNL     1      28.097   0.046  54.346  0.00  0.00    +0.000 C 
ENDBRANCH  19  22
ENDBRANCH   5  16
BRANCH   4  24
ATOM     24  C   UNL     1      22.786   3.096  48.829  0.00  0.00    +0.000 C 
ATOM     25  O   UNL     1      22.656   3.745  47.806  0.00  0.00    +0.000 OA
ATOM     26  O   UNL     1      22.434   1.793  48.853  0.00  0.00    +0.000 OA
ENDBRANCH   4  24
BRANCH   1  27
ATOM     27  C   UNL     1      20.831   2.948  52.490  0.00  0.00    +0.000 C 
BRANCH  27  28
ATOM     28  C   UNL     1      20.358   1.777  51.598  0.00  0.00    +0.000 C 
BRANCH  28  29
ATOM     29  O   UNL     1      20.567   0.468  52.131  0.00  0.00    +0.000 OA
BRANCH  29  30
ATOM     30  C   UNL     1      20.563   0.306  53.544  0.00  0.00    +0.000 C 
BRANCH  30  32
ATOM     31  C   UNL     1      22.142  -1.255  54.821  0.00  0.00    +0.000 C 
ATOM     32  C   UNL     1      20.823  -1.104  54.077  0.00  0.00    +0.000 C 
ENDBRANCH  30  32
ENDBRANCH  29  30
ENDBRANCH  28  29
ENDBRANCH  27  28
ENDBRANCH   1  27
TORSDOF 9
ENDMDL
MODEL 9
REMARK VINA RESULT:    -6.995      2.268      6.421
REMARK INTER + INTRA:         -12.671
REMARK INTER:                 -10.855
REMARK INTRA:                  -1.816
REMARK UNBOUND:                -1.996
REMARK  Name = 
REMARK  11 active torsions:
REMARK  status: ('A' for Active; 'I' for Inactive)
REMARK    1  A    between atoms: C_1  and  C_2
REMARK    2  A    between atoms: C_2  and  C_3
REMARK    3  A    between atoms: C_3  and  O_4
REMARK    4  A    between atoms: O_4  and  C_5
REMARK    5  A    between atoms: C_5  and  C_6
REMARK    6  A    between atoms: C_6  and  N_7
REMARK    7  A    between atoms: C_9  and  C_10
REMARK    8  A    between atoms: C_19  and  C_20
REMARK    9  A    between atoms: C_23  and  C_24
REMARK   10  A    between atoms: C_27  and  O_28
REMARK   11  A    between atoms: O_28  and  C_29
REMARK                            x       y       z     vdW  Elec       q    Type
REMARK                         _______ _______ _______ _____ _____    ______ ____
ROOT
ATOM      1  N   UNL     1      20.915   3.640  51.630  0.00  0.00    +0.000 N 
ATOM      2  C   UNL     1      22.299   3.550  52.116  0.00  0.00    +0.000 C 
ATOM      3  C   UNL     1      23.112   2.878  51.011  0.00  0.00    +0.000 C 
ATOM      4  C   UNL     1      22.115   1.896  50.397  0.00  0.00    +0.000 C 
ATOM      5  C   UNL     1      20.720   2.491  50.708  0.00  0.00    +0.000 C 
ATOM      6  H   UNL     1      20.238   3.574  52.389  0.00  0.00    +0.000 HD
ENDROOT
BRANCH   3   7
ATOM      7  C   UNL     1      24.413   2.345  51.584  0.00  0.00    +0.000 A 
ATOM      8  C   UNL     1      25.679   2.582  50.995  0.00  0.00    +0.000 A 
ATOM      9  C   UNL     1      26.845   2.010  51.521  0.00  0.00    +0.000 A 
ATOM     10  C   UNL     1      26.725   1.208  52.632  0.00  0.00    +0.000 A 
ATOM     11  C   UNL     1      25.504   0.952  53.205  0.00  0.00    +0.000 A 
ATOM     12  C   UNL     1      24.339   1.495  52.705  0.00  0.00    +0.000 A 
ATOM     13  O   UNL     1      25.596   0.119  54.274  0.00  0.00    +0.000 OA
ATOM     14  C   UNL     1      27.028  -0.027  54.375  0.00  0.00    +0.000 C 
ATOM     15  O   UNL     1      27.743   0.580  53.279  0.00  0.00    +0.000 OA
ENDBRANCH   3   7
BRANCH   5  16
ATOM     16  C   UNL     1      19.824   1.413  51.325  0.00  0.00    +0.000 A 
ATOM     17  C   UNL     1      20.198   0.694  52.472  0.00  0.00    +0.000 A 
ATOM     18  C   UNL     1      19.396  -0.335  52.984  0.00  0.00    +0.000 A 
ATOM     19  C   UNL     1      18.200  -0.669  52.351  0.00  0.00    +0.000 A 
ATOM     20  C   UNL     1      17.816   0.039  51.213  0.00  0.00    +0.000 A 
ATOM     21  C   UNL     1      18.617   1.068  50.699  0.00  0.00    +0.000 A 
BRANCH  19  22
ATOM     22  O   UNL     1      17.339  -1.659  52.739  0.00  0.00    +0.000 OA
ATOM     23  C   UNL     1      17.844  -2.625  53.653  0.00  0.00    +0.000 C 
ENDBRANCH  19  22
ENDBRANCH   5  16
BRANCH   4  24
ATOM     24  C   UNL     1      22.292   1.810  48.905  0.00  0.00    +0.000 C 
ATOM     25  O   UNL     1      21.911   0.910  48.178  0.00  0.00    +0.000 OA
ATOM     26  O   UNL     1      22.959   2.864  48.386  0.00  0.00    +0.000 OA
ENDBRANCH   4  24
BRANCH   1  27
ATOM     27  C   UNL     1      20.628   4.964  51.034  0.00  0.00    +0.000 C 
BRANCH  27  28
ATOM     28  C   UNL     1      21.834   5.933  51.022  0.00  0.00    +0.000 C 
BRANCH  28  29
ATOM     29  O   UNL     1      22.511   6.066  49.771  0.00  0.00    +0.000 OA
BRANCH  29  30
ATOM     30  C   UNL     1      23.873   6.472  49.781  0.00  0.00    +0.000 C 
BRANCH  30  32
ATOM     31  C   UNL     1      26.264   5.769  49.186  0.00  0.00    +0.000 C 
ATOM     32  C   UNL     1      24.801   5.798  48.768  0.00  0.00    +0.000 C 
ENDBRANCH  30  32
ENDBRANCH  29  30
ENDBRANCH  28  29
ENDBRANCH  27  28
ENDBRANCH   1  27
TORSDOF 9
ENDMDL
