MODEL 1
REMARK VINA RESULT:    -9.586      0.000      0.000
REMARK INTER + INTRA:         -12.052
REMARK INTER:                 -11.267
REMARK INTRA:                  -0.785
REMARK UNBOUND:                -0.785
REMARK  Name = 
REMARK  5 active torsions:
REMARK  status: ('A' for Active; 'I' for Inactive)
REMARK    1  A    between atoms: C_1  and  N_2
REMARK    2  A    between atoms: C_5  and  C_6
REMARK    3  A    between atoms: C_7  and  O_8
REMARK    4  A    between atoms: C_10  and  O_11
REMARK    5  A    between atoms: C_16  and  C_17
REMARK                            x       y       z     vdW  Elec       q    Type
REMARK                         _______ _______ _______ _____ _____    ______ ____
ROOT
ATOM      1  C   UNL     1      24.092  -0.316  53.922  0.00  0.00    +0.000 A 
ATOM      2  C   UNL     1      23.888  -1.188  55.008  0.00  0.00    +0.000 A 
ATOM      3  C   UNL     1      22.620  -1.691  55.301  0.00  0.00    +0.000 A 
ATOM      4  C   UNL     1      21.529  -1.318  54.515  0.00  0.00    +0.000 A 
ATOM      5  C   UNL     1      21.696  -0.439  53.435  0.00  0.00    +0.000 A 
ATOM      6  C   UNL     1      20.564  -0.001  52.582  0.00  0.00    +0.000 A 
ATOM      7  O   UNL     1      19.405  -0.372  52.719  0.00  0.00    +0.000 OA
ATOM      8  C   UNL     1      20.878   0.943  51.497  0.00  0.00    +0.000 A 
ATOM      9  C   UNL     1      22.140   1.338  51.325  0.00  0.00    +0.000 A 
ATOM     10  O   UNL     1      23.210   0.922  52.092  0.00  0.00    +0.000 OA
ATOM     11  C   UNL     1      22.976   0.055  53.142  0.00  0.00    +0.000 A 
ENDROOT
BRANCH   1  16
ATOM     12  C   UNL     1      29.443   1.108  53.907  0.00  0.00    +0.000 C 
ATOM     13  N   UNL     1      28.188   1.083  53.183  0.00  0.00    +0.000 N 
ATOM     14  C   UNL     1      27.749  -0.219  52.717  0.00  0.00    +0.000 C 
ATOM     15  C   UNL     1      26.346  -0.617  53.016  0.00  0.00    +0.000 C 
ATOM     16  C   UNL     1      25.443   0.190  53.600  0.00  0.00    +0.000 C 
ATOM     17  C   UNL     1      25.777   1.602  53.970  0.00  0.00    +0.000 C 
ATOM     18  C   UNL     1      27.206   2.066  53.622  0.00  0.00    +0.000 C 
ATOM     19  H   UNL     1      28.398   1.475  52.265  0.00  0.00    +0.000 HD
ENDBRANCH   1  16
BRANCH   9  20
ATOM     20  C   UNL     1      22.504   2.280  50.253  0.00  0.00    +0.000 A 
ATOM     21  C   UNL     1      22.269   1.902  48.919  0.00  0.00    +0.000 A 
ATOM     22  C   UNL     1      22.597   2.759  47.863  0.00  0.00    +0.000 A 
ATOM     23  C   UNL     1      23.156   4.006  48.125  0.00  0.00    +0.000 A 
ATOM     24  C   UNL     1      23.392   4.398  49.443  0.00  0.00    +0.000 A 
ATOM     25  C   UNL     1      23.073   3.540  50.504  0.00  0.00    +0.000 A 
ATOM     26 BR   UNL     1      23.456   4.152  52.262  0.00  0.00    +0.000 Br
ENDBRANCH   9  20
BRANCH   2  27
ATOM     27  O   UNL     1      24.947  -1.542  55.804  0.00  0.00    +0.000 OA
ATOM     28  H   UNL     1      24.797  -1.820  56.687  0.00  0.00    +0.000 HD
ENDBRANCH   2  27
BRANCH   4  29
ATOM     29  O   UNL     1      20.298  -1.821  54.824  0.00  0.00    +0.000 OA
ATOM     30  H   UNL     1      20.225  -2.588  55.359  0.00  0.00    +0.000 HD
ENDBRANCH   4  29
TORSDOF 4
ENDMDL
MODEL 2
REMARK VINA RESULT:    -9.418      2.483      5.055
REMARK INTER + INTRA:         -11.855
REMARK INTER:                 -11.010
REMARK INTRA:                  -0.845
REMARK UNBOUND:                -0.785
REMARK  Name = 
REMARK  5 active torsions:
REMARK  status: ('A' for Active; 'I' for Inactive)
REMARK    1  A    between atoms: C_1  and  N_2
REMARK    2  A    between atoms: C_5  and  C_6
REMARK    3  A    between atoms: C_7  and  O_8
REMARK    4  A    between atoms: C_10  and  O_11
REMARK    5  A    between atoms: C_16  and  C_17
REMARK                            x       y       z     vdW  Elec       q    Type
REMARK                         _______ _______ _______ _____ _____    ______ ____
ROOT
ATOM      1  C   UNL     1      22.178   0.127  53.317  0.00  0.00    +0.000 A 
ATOM      2  C   UNL     1      21.798  -0.881  54.222  0.00  0.00    +0.000 A 
ATOM      3  C   UNL     1      22.729  -1.467  55.082  0.00  0.00    +0.000 A 
ATOM      4  C   UNL     1      24.062  -1.058  55.040  0.00  0.00    +0.000 A 
ATOM      5  C   UNL     1      24.476  -0.065  54.138  0.00  0.00    +0.000 A 
ATOM      6  C   UNL     1      25.884   0.390  54.046  0.00  0.00    +0.000 A 
ATOM      7  O   UNL     1      26.798  -0.029  54.745  0.00  0.00    +0.000 OA
ATOM      8  C   UNL     1      26.183   1.421  53.039  0.00  0.00    +0.000 A 
ATOM      9  C   UNL     1      25.192   1.900  52.287  0.00  0.00    +0.000 A 
ATOM     10  O   UNL     1      23.871   1.507  52.375  0.00  0.00    +0.000 OA
ATOM     11  C   UNL     1      23.531   0.524  53.284  0.00  0.00    +0.000 A 
ENDROOT
BRANCH   1  16
ATOM     12  C   UNL     1      19.481   3.194  49.577  0.00  0.00    +0.000 C 
ATOM     13  N   UNL     1      19.406   2.142  50.571  0.00  0.00    +0.000 N 
ATOM     14  C   UNL     1      20.029   0.882  50.210  0.00  0.00    +0.000 C 
ATOM     15  C   UNL     1      20.961   0.270  51.198  0.00  0.00    +0.000 C 
ATOM     16  C   UNL     1      21.181   0.762  52.430  0.00  0.00    +0.000 C 
ATOM     17  C   UNL     1      20.457   1.973  52.931  0.00  0.00    +0.000 C 
ATOM     18  C   UNL     1      19.440   2.599  51.954  0.00  0.00    +0.000 C 
ATOM     19  H   UNL     1      18.442   1.811  50.542  0.00  0.00    +0.000 HD
ENDBRANCH   1  16
BRANCH   9  20
ATOM     20  C   UNL     1      25.440   2.933  51.267  0.00  0.00    +0.000 A 
ATOM     21  C   UNL     1      26.466   2.717  50.329  0.00  0.00    +0.000 A 
ATOM     22  C   UNL     1      26.744   3.666  49.340  0.00  0.00    +0.000 A 
ATOM     23  C   UNL     1      25.998   4.839  49.270  0.00  0.00    +0.000 A 
ATOM     24  C   UNL     1      24.975   5.067  50.190  0.00  0.00    +0.000 A 
ATOM     25  C   UNL     1      24.698   4.122  51.187  0.00  0.00    +0.000 A 
ATOM     26 BR   UNL     1      23.303   4.535  52.411  0.00  0.00    +0.000 Br
ENDBRANCH   9  20
BRANCH   2  27
ATOM     27  O   UNL     1      20.496  -1.311  54.256  0.00  0.00    +0.000 OA
ATOM     28  H   UNL     1      20.244  -1.995  54.846  0.00  0.00    +0.000 HD
ENDBRANCH   2  27
BRANCH   4  29
ATOM     29  O   UNL     1      24.955  -1.648  55.888  0.00  0.00    +0.000 OA
ATOM     30  H   UNL     1      25.817  -1.293  55.983  0.00  0.00    +0.000 HD
ENDBRANCH   4  29
TORSDOF 4
ENDMDL
MODEL 3
REMARK VINA RESULT:    -9.223      1.694      2.192
REMARK INTER + INTRA:         -11.625
REMARK INTER:                 -11.358
REMARK INTRA:                  -0.267
REMARK UNBOUND:                -0.785
REMARK  Name = 
REMARK  5 active torsions:
REMARK  status: ('A' for Active; 'I' for Inactive)
REMARK    1  A    between atoms: C_1  and  N_2
REMARK    2  A    between atoms: C_5  and  C_6
REMARK    3  A    between atoms: C_7  and  O_8
REMARK    4  A    between atoms: C_10  and  O_11
REMARK    5  A    between atoms: C_16  and  C_17
REMARK                            x       y       z     vdW  Elec       q    Type
REMARK                         _______ _______ _______ _____ _____    ______ ____
ROOT
ATOM      1  C   UNL     1      23.926  -0.271  54.019  0.00  0.00    +0.000 A 
ATOM      2  C   UNL     1      23.110  -1.078  54.834  0.00  0.00    +0.000 A 
ATOM      3  C   UNL     1      21.719  -0.968  54.794  0.00  0.00    +0.000 A 
ATOM      4  C   UNL     1      21.122  -0.038  53.942  0.00  0.00    +0.000 A 
ATOM      5  C   UNL     1      21.908   0.791  53.129  0.00  0.00    +0.000 A 
ATOM      6  C   UNL     1      21.320   1.805  52.221  0.00  0.00    +0.000 A 
ATOM      7  O   UNL     1      20.119   1.999  52.079  0.00  0.00    +0.000 OA
ATOM      8  C   UNL     1      22.263   2.624  51.441  0.00  0.00    +0.000 A 
ATOM      9  C   UNL     1      23.572   2.407  51.572  0.00  0.00    +0.000 A 
ATOM     10  O   UNL     1      24.137   1.451  52.392  0.00  0.00    +0.000 OA
ATOM     11  C   UNL     1      23.306   0.668  53.168  0.00  0.00    +0.000 A 
ENDROOT
BRANCH   1  16
ATOM     12  C   UNL     1      29.404   0.368  53.522  0.00  0.00    +0.000 C 
ATOM     13  N   UNL     1      28.313  -0.456  54.003  0.00  0.00    +0.000 N 
ATOM     14  C   UNL     1      27.592   0.054  55.155  0.00  0.00    +0.000 C 
ATOM     15  C   UNL     1      26.106   0.087  55.074  0.00  0.00    +0.000 C 
ATOM     16  C   UNL     1      25.397  -0.413  54.046  0.00  0.00    +0.000 C 
ATOM     17  C   UNL     1      26.064  -1.094  52.891  0.00  0.00    +0.000 C 
ATOM     18  C   UNL     1      27.601  -1.197  52.971  0.00  0.00    +0.000 C 
ATOM     19  H   UNL     1      28.758  -1.242  54.478  0.00  0.00    +0.000 HD
ENDBRANCH   1  16
BRANCH   9  20
ATOM     20  C   UNL     1      24.555   3.199  50.812  0.00  0.00    +0.000 A 
ATOM     21  C   UNL     1      25.655   2.534  50.242  0.00  0.00    +0.000 A 
ATOM     22  C   UNL     1      26.618   3.239  49.512  0.00  0.00    +0.000 A 
ATOM     23  C   UNL     1      26.491   4.613  49.336  0.00  0.00    +0.000 A 
ATOM     24  C   UNL     1      25.404   5.287  49.892  0.00  0.00    +0.000 A 
ATOM     25  C   UNL     1      24.441   4.587  50.631  0.00  0.00    +0.000 A 
ATOM     26 BR   UNL     1      23.011   5.596  51.371  0.00  0.00    +0.000 Br
ENDBRANCH   9  20
BRANCH   2  27
ATOM     27  O   UNL     1      23.684  -1.978  55.694  0.00  0.00    +0.000 OA
ATOM     28  H   UNL     1      23.781  -2.875  55.438  0.00  0.00    +0.000 HD
ENDBRANCH   2  27
BRANCH   4  29
ATOM     29  O   UNL     1      19.760   0.052  53.925  0.00  0.00    +0.000 OA
ATOM     30  H   UNL     1      19.268  -0.399  53.266  0.00  0.00    +0.000 HD
ENDBRANCH   4  29
TORSDOF 4
ENDMDL
MODEL 4
REMARK VINA RESULT:    -8.572      2.206      3.239
REMARK INTER + INTRA:         -10.861
REMARK INTER:                 -10.695
REMARK INTRA:                  -0.166
REMARK UNBOUND:                -0.785
REMARK  Name = 
REMARK  5 active torsions:
REMARK  status: ('A' for Active; 'I' for Inactive)
REMARK    1  A    between atoms: C_1  and  N_2
REMARK    2  A    between atoms: C_5  and  C_6
REMARK    3  A    between atoms: C_7  and  O_8
REMARK    4  A    between atoms: C_10  and  O_11
REMARK    5  A    between atoms: C_16  and  C_17
REMARK                            x       y       z     vdW  Elec       q    Type
REMARK                         _______ _______ _______ _____ _____    ______ ____
ROOT
ATOM      1  C   UNL     1      23.959   0.880  52.322  0.00  0.00    +0.000 A 
ATOM      2  C   UNL     1      23.015   0.007  52.895  0.00  0.00    +0.000 A 
ATOM      3  C   UNL     1      21.684   0.008  52.474  0.00  0.00    +0.000 A 
ATOM      4  C   UNL     1      21.274   0.893  51.478  0.00  0.00    +0.000 A 
ATOM      5  C   UNL     1      22.187   1.786  50.897  0.00  0.00    +0.000 A 
ATOM      6  C   UNL     1      21.794   2.756  49.846  0.00  0.00    +0.000 A 
ATOM      7  O   UNL     1      20.667   2.857  49.379  0.00  0.00    +0.000 OA
ATOM      8  C   UNL     1      22.849   3.651  49.342  0.00  0.00    +0.000 A 
ATOM      9  C   UNL     1      24.084   3.536  49.829  0.00  0.00    +0.000 A 
ATOM     10  O   UNL     1      24.475   2.623  50.788  0.00  0.00    +0.000 OA
ATOM     11  C   UNL     1      23.525   1.772  51.319  0.00  0.00    +0.000 A 
ENDROOT
BRANCH   1  16
ATOM     12  C   UNL     1      28.776   0.084  54.937  0.00  0.00    +0.000 C 
ATOM     13  N   UNL     1      28.092   0.647  53.789  0.00  0.00    +0.000 N 
ATOM     14  C   UNL     1      27.589  -0.308  52.818  0.00  0.00    +0.000 C 
ATOM     15  C   UNL     1      26.175  -0.160  52.379  0.00  0.00    +0.000 C 
ATOM     16  C   UNL     1      25.373   0.854  52.752  0.00  0.00    +0.000 C 
ATOM     17  C   UNL     1      25.867   1.961  53.630  0.00  0.00    +0.000 C 
ATOM     18  C   UNL     1      27.347   1.870  54.056  0.00  0.00    +0.000 C 
ATOM     19  H   UNL     1      28.827   1.039  53.202  0.00  0.00    +0.000 HD
ENDBRANCH   1  16
BRANCH   9  20
ATOM     20  C   UNL     1      25.174   4.407  49.355  0.00  0.00    +0.000 A 
ATOM     21  C   UNL     1      26.457   3.852  49.200  0.00  0.00    +0.000 A 
ATOM     22  C   UNL     1      27.527   4.635  48.754  0.00  0.00    +0.000 A 
ATOM     23  C   UNL     1      27.328   5.978  48.450  0.00  0.00    +0.000 A 
ATOM     24  C   UNL     1      26.061   6.543  48.593  0.00  0.00    +0.000 A 
ATOM     25  C   UNL     1      24.988   5.765  49.048  0.00  0.00    +0.000 A 
ATOM     26 BR   UNL     1      23.306   6.630  49.238  0.00  0.00    +0.000 Br
ENDBRANCH   9  20
BRANCH   2  27
ATOM     27  O   UNL     1      23.399  -0.850  53.894  0.00  0.00    +0.000 OA
ATOM     28  H   UNL     1      22.751  -1.304  54.396  0.00  0.00    +0.000 HD
ENDBRANCH   2  27
BRANCH   4  29
ATOM     29  O   UNL     1      19.966   0.877  51.087  0.00  0.00    +0.000 OA
ATOM     30  H   UNL     1      19.723   0.469  50.278  0.00  0.00    +0.000 HD
ENDBRANCH   4  29
TORSDOF 4
ENDMDL
MODEL 5
REMARK VINA RESULT:    -8.457      2.746      6.174
REMARK INTER + INTRA:         -10.726
REMARK INTER:                 -10.223
REMARK INTRA:                  -0.502
REMARK UNBOUND:                -0.785
REMARK  Name = 
REMARK  5 active torsions:
REMARK  status: ('A' for Active; 'I' for Inactive)
REMARK    1  A    between atoms: C_1  and  N_2
REMARK    2  A    between atoms: C_5  and  C_6
REMARK    3  A    between atoms: C_7  and  O_8
REMARK    4  A    between atoms: C_10  and  O_11
REMARK    5  A    between atoms: C_16  and  C_17
REMARK                            x       y       z     vdW  Elec       q    Type
REMARK                         _______ _______ _______ _____ _____    ______ ____
ROOT
ATOM      1  C   UNL     1      24.809   2.715  51.074  0.00  0.00    +0.000 A 
ATOM      2  C   UNL     1      26.176   3.053  51.069  0.00  0.00    +0.000 A 
ATOM      3  C   UNL     1      27.114   2.268  51.742  0.00  0.00    +0.000 A 
ATOM      4  C   UNL     1      26.696   1.136  52.441  0.00  0.00    +0.000 A 
ATOM      5  C   UNL     1      25.339   0.781  52.477  0.00  0.00    +0.000 A 
ATOM      6  C   UNL     1      24.845  -0.404  53.220  0.00  0.00    +0.000 A 
ATOM      7  O   UNL     1      25.558  -1.182  53.842  0.00  0.00    +0.000 OA
ATOM      8  C   UNL     1      23.393  -0.645  53.194  0.00  0.00    +0.000 A 
ATOM      9  C   UNL     1      22.610   0.183  52.503  0.00  0.00    +0.000 A 
ATOM     10  O   UNL     1      23.054   1.276  51.784  0.00  0.00    +0.000 OA
ATOM     11  C   UNL     1      24.403   1.570  51.791  0.00  0.00    +0.000 A 
ENDROOT
BRANCH   1  16
ATOM     12  C   UNL     1      20.302   4.811  48.632  0.00  0.00    +0.000 C 
ATOM     13  N   UNL     1      21.706   4.984  48.952  0.00  0.00    +0.000 N 
ATOM     14  C   UNL     1      22.011   5.259  50.344  0.00  0.00    +0.000 C 
ATOM     15  C   UNL     1      23.073   4.439  50.988  0.00  0.00    +0.000 C 
ATOM     16  C   UNL     1      23.825   3.535  50.335  0.00  0.00    +0.000 C 
ATOM     17  C   UNL     1      23.674   3.305  48.864  0.00  0.00    +0.000 C 
ATOM     18  C   UNL     1      22.621   4.180  48.153  0.00  0.00    +0.000 C 
ATOM     19  H   UNL     1      21.953   5.905  48.590  0.00  0.00    +0.000 HD
ENDBRANCH   1  16
BRANCH   9  20
ATOM     20  C   UNL     1      21.152  -0.017  52.444  0.00  0.00    +0.000 A 
ATOM     21  C   UNL     1      20.499  -0.527  53.581  0.00  0.00    +0.000 A 
ATOM     22  C   UNL     1      19.116  -0.737  53.579  0.00  0.00    +0.000 A 
ATOM     23  C   UNL     1      18.367  -0.436  52.446  0.00  0.00    +0.000 A 
ATOM     24  C   UNL     1      18.999   0.074  51.311  0.00  0.00    +0.000 A 
ATOM     25  C   UNL     1      20.385   0.279  51.306  0.00  0.00    +0.000 A 
ATOM     26 BR   UNL     1      21.158   0.951  49.705  0.00  0.00    +0.000 Br
ENDBRANCH   9  20
BRANCH   2  27
ATOM     27  O   UNL     1      26.597   4.178  50.408  0.00  0.00    +0.000 OA
ATOM     28  H   UNL     1      27.476   4.229  50.084  0.00  0.00    +0.000 HD
ENDBRANCH   2  27
BRANCH   4  29
ATOM     29  O   UNL     1      27.632   0.387  53.094  0.00  0.00    +0.000 OA
ATOM     30  H   UNL     1      27.875  -0.456  52.761  0.00  0.00    +0.000 HD
ENDBRANCH   4  29
TORSDOF 4
ENDMDL
MODEL 6
REMARK VINA RESULT:    -8.377      2.377      4.345
REMARK INTER + INTRA:         -10.631
REMARK INTER:                 -10.321
REMARK INTRA:                  -0.309
REMARK UNBOUND:                -0.785
REMARK  Name = 
REMARK  5 active torsions:
REMARK  status: ('A' for Active; 'I' for Inactive)
REMARK    1  A    between atoms: C_1  and  N_2
REMARK    2  A    between atoms: C_5  and  C_6
REMARK    3  A    between atoms: C_7  and  O_8
REMARK    4  A    between atoms: C_10  and  O_11
REMARK    5  A    between atoms: C_16  and  C_17
REMARK                            x       y       z     vdW  Elec       q    Type
REMARK                         _______ _______ _______ _____ _____    ______ ____
ROOT
ATOM      1  C   UNL     1      24.827   1.781  53.139  0.00  0.00    +0.000 A 
ATOM      2  C   UNL     1      25.992   1.640  53.917  0.00  0.00    +0.000 A 
ATOM      3  C   UNL     1      26.145   0.567  54.797  0.00  0.00    +0.000 A 
ATOM      4  C   UNL     1      25.126  -0.378  54.921  0.00  0.00    +0.000 A 
ATOM      5  C   UNL     1      23.947  -0.256  54.171  0.00  0.00    +0.000 A 
ATOM      6  C   UNL     1      22.830  -1.226  54.281  0.00  0.00    +0.000 A 
ATOM      7  O   UNL     1      22.836  -2.215  55.003  0.00  0.00    +0.000 OA
ATOM      8  C   UNL     1      21.641  -0.965  53.454  0.00  0.00    +0.000 A 
ATOM      9  C   UNL     1      21.632   0.097  52.648  0.00  0.00    +0.000 A 
ATOM     10  O   UNL     1      22.670   0.996  52.513  0.00  0.00    +0.000 OA
ATOM     11  C   UNL     1      23.804   0.820  53.281  0.00  0.00    +0.000 A 
ENDROOT
BRANCH   1  16
ATOM     12  C   UNL     1      25.317   6.471  50.235  0.00  0.00    +0.000 C 
ATOM     13  N   UNL     1      24.612   5.217  50.412  0.00  0.00    +0.000 N 
ATOM     14  C   UNL     1      25.346   4.019  50.047  0.00  0.00    +0.000 C 
ATOM     15  C   UNL     1      25.372   2.904  51.033  0.00  0.00    +0.000 C 
ATOM     16  C   UNL     1      24.683   2.904  52.188  0.00  0.00    +0.000 C 
ATOM     17  C   UNL     1      23.783   4.039  52.563  0.00  0.00    +0.000 C 
ATOM     18  C   UNL     1      23.686   5.187  51.537  0.00  0.00    +0.000 C 
ATOM     19  H   UNL     1      23.934   5.179  49.653  0.00  0.00    +0.000 HD
ENDBRANCH   1  16
BRANCH   9  20
ATOM     20  C   UNL     1      20.466   0.400  51.800  0.00  0.00    +0.000 A 
ATOM     21  C   UNL     1      19.187   0.045  52.266  0.00  0.00    +0.000 A 
ATOM     22  C   UNL     1      18.047   0.309  51.500  0.00  0.00    +0.000 A 
ATOM     23  C   UNL     1      18.168   0.936  50.263  0.00  0.00    +0.000 A 
ATOM     24  C   UNL     1      19.428   1.298  49.789  0.00  0.00    +0.000 A 
ATOM     25  C   UNL     1      20.574   1.029  50.549  0.00  0.00    +0.000 A 
ATOM     26 BR   UNL     1      22.249   1.535  49.806  0.00  0.00    +0.000 Br
ENDBRANCH   9  20
BRANCH   2  27
ATOM     27  O   UNL     1      26.990   2.576  53.824  0.00  0.00    +0.000 OA
ATOM     28  H   UNL     1      27.769   2.481  54.337  0.00  0.00    +0.000 HD
ENDBRANCH   2  27
BRANCH   4  29
ATOM     29  O   UNL     1      25.299  -1.415  55.791  0.00  0.00    +0.000 OA
ATOM     30  H   UNL     1      25.065  -2.286  55.535  0.00  0.00    +0.000 HD
ENDBRANCH   4  29
TORSDOF 4
ENDMDL
MODEL 7
REMARK VINA RESULT:    -7.695      2.633      4.985
REMARK INTER + INTRA:          -9.829
REMARK INTER:                  -9.511
REMARK INTRA:                  -0.318
REMARK UNBOUND:                -0.785
REMARK  Name = 
REMARK  5 active torsions:
REMARK  status: ('A' for Active; 'I' for Inactive)
REMARK    1  A    between atoms: C_1  and  N_2
REMARK    2  A    between atoms: C_5  and  C_6
REMARK    3  A    between atoms: C_7  and  O_8
REMARK    4  A    between atoms: C_10  and  O_11
REMARK    5  A    between atoms: C_16  and  C_17
REMARK                            x       y       z     vdW  Elec       q    Type
REMARK                         _______ _______ _______ _____ _____    ______ ____
ROOT
ATOM      1  C   UNL     1      24.184   0.457  53.279  0.00  0.00    +0.000 A 
ATOM      2  C   UNL     1      25.303   0.036  54.022  0.00  0.00    +0.000 A 
ATOM      3  C   UNL     1      26.586   0.492  53.716  0.00  0.00    +0.000 A 
ATOM      4  C   UNL     1      26.771   1.373  52.650  0.00  0.00    +0.000 A 
ATOM      5  C   UNL     1      25.678   1.800  51.880  0.00  0.00    +0.000 A 
ATOM      6  C   UNL     1      25.828   2.721  50.728  0.00  0.00    +0.000 A 
ATOM      7  O   UNL     1      26.890   3.205  50.357  0.00  0.00    +0.000 OA
ATOM      8  C   UNL     1      24.601   3.069  49.993  0.00  0.00    +0.000 A 
ATOM      9  C   UNL     1      23.436   2.565  50.401  0.00  0.00    +0.000 A 
ATOM     10  O   UNL     1      23.273   1.726  51.485  0.00  0.00    +0.000 OA
ATOM     11  C   UNL     1      24.391   1.343  52.201  0.00  0.00    +0.000 A 
ENDROOT
BRANCH   1  16
ATOM     12  C   UNL     1      18.932  -1.297  53.280  0.00  0.00    +0.000 C 
ATOM     13  N   UNL     1      20.102  -0.956  54.065  0.00  0.00    +0.000 N 
ATOM     14  C   UNL     1      21.212  -1.888  53.988  0.00  0.00    +0.000 C 
ATOM     15  C   UNL     1      22.562  -1.324  53.713  0.00  0.00    +0.000 C 
ATOM     16  C   UNL     1      22.825  -0.008  53.627  0.00  0.00    +0.000 C 
ATOM     17  C   UNL     1      21.759   1.020  53.848  0.00  0.00    +0.000 C 
ATOM     18  C   UNL     1      20.360   0.472  54.194  0.00  0.00    +0.000 C 
ATOM     19  H   UNL     1      19.845  -1.154  55.032  0.00  0.00    +0.000 HD
ENDBRANCH   1  16
BRANCH   9  20
ATOM     20  C   UNL     1      22.180   2.884  49.699  0.00  0.00    +0.000 A 
ATOM     21  C   UNL     1      21.824   2.114  48.577  0.00  0.00    +0.000 A 
ATOM     22  C   UNL     1      20.643   2.376  47.874  0.00  0.00    +0.000 A 
ATOM     23  C   UNL     1      19.800   3.404  48.287  0.00  0.00    +0.000 A 
ATOM     24  C   UNL     1      20.136   4.174  49.400  0.00  0.00    +0.000 A 
ATOM     25  C   UNL     1      21.322   3.920  50.102  0.00  0.00    +0.000 A 
ATOM     26 BR   UNL     1      21.708   5.041  51.589  0.00  0.00    +0.000 Br
ENDBRANCH   9  20
BRANCH   2  27
ATOM     27  O   UNL     1      25.138  -0.850  55.056  0.00  0.00    +0.000 OA
ATOM     28  H   UNL     1      25.249  -0.562  55.942  0.00  0.00    +0.000 HD
ENDBRANCH   2  27
BRANCH   4  29
ATOM     29  O   UNL     1      28.036   1.801  52.368  0.00  0.00    +0.000 OA
ATOM     30  H   UNL     1      28.775   1.339  52.713  0.00  0.00    +0.000 HD
ENDBRANCH   4  29
TORSDOF 4
ENDMDL
MODEL 8
REMARK VINA RESULT:    -7.403      2.832      5.411
REMARK INTER + INTRA:          -9.486
REMARK INTER:                  -9.502
REMARK INTRA:                   0.016
REMARK UNBOUND:                -0.785
REMARK  Name = 
REMARK  5 active torsions:
REMARK  status: ('A' for Active; 'I' for Inactive)
REMARK    1  A    between atoms: C_1  and  N_2
REMARK    2  A    between atoms: C_5  and  C_6
REMARK    3  A    between atoms: C_7  and  O_8
REMARK    4  A    between atoms: C_10  and  O_11
REMARK    5  A    between atoms: C_16  and  C_17
REMARK                            x       y       z     vdW  Elec       q    Type
REMARK                         _______ _______ _______ _____ _____    ______ ____
ROOT
ATOM      1  C   UNL     1      23.976   1.808  52.376  0.00  0.00    +0.000 A 
ATOM      2  C   UNL     1      25.305   1.729  52.832  0.00  0.00    +0.000 A 
ATOM      3  C   UNL     1      25.702   0.738  53.732  0.00  0.00    +0.000 A 
ATOM      4  C   UNL     1      24.767  -0.186  54.199  0.00  0.00    +0.000 A 
ATOM      5  C   UNL     1      23.431  -0.125  53.775  0.00  0.00    +0.000 A 
ATOM      6  C   UNL     1      22.399  -1.076  54.257  0.00  0.00    +0.000 A 
ATOM      7  O   UNL     1      22.610  -1.997  55.036  0.00  0.00    +0.000 OA
ATOM      8  C   UNL     1      21.031  -0.882  53.748  0.00  0.00    +0.000 A 
ATOM      9  C   UNL     1      20.794   0.104  52.883  0.00  0.00    +0.000 A 
ATOM     10  O   UNL     1      21.746   0.982  52.404  0.00  0.00    +0.000 OA
ATOM     11  C   UNL     1      23.043   0.868  52.863  0.00  0.00    +0.000 A 
ENDROOT
BRANCH   1  16
ATOM     12  C   UNL     1      21.263   5.166  48.908  0.00  0.00    +0.000 C 
ATOM     13  N   UNL     1      22.530   4.811  49.518  0.00  0.00    +0.000 N 
ATOM     14  C   UNL     1      22.667   5.128  50.927  0.00  0.00    +0.000 C 
ATOM     15  C   UNL     1      23.159   4.049  51.828  0.00  0.00    +0.000 C 
ATOM     16  C   UNL     1      23.571   2.842  51.401  0.00  0.00    +0.000 C 
ATOM     17  C   UNL     1      23.604   2.495  49.945  0.00  0.00    +0.000 C 
ATOM     18  C   UNL     1      23.155   3.611  48.979  0.00  0.00    +0.000 C 
ATOM     19  H   UNL     1      23.197   5.500  49.174  0.00  0.00    +0.000 HD
ENDBRANCH   1  16
BRANCH   9  20
ATOM     20  C   UNL     1      19.442   0.337  52.345  0.00  0.00    +0.000 A 
ATOM     21  C   UNL     1      19.221   1.483  51.561  0.00  0.00    +0.000 A 
ATOM     22  C   UNL     1      17.956   1.752  51.026  0.00  0.00    +0.000 A 
ATOM     23  C   UNL     1      16.900   0.877  51.261  0.00  0.00    +0.000 A 
ATOM     24  C   UNL     1      17.104  -0.266  52.033  0.00  0.00    +0.000 A 
ATOM     25  C   UNL     1      18.367  -0.535  52.577  0.00  0.00    +0.000 A 
ATOM     26 BR   UNL     1      18.539  -2.103  53.638  0.00  0.00    +0.000 Br
ENDBRANCH   9  20
BRANCH   2  27
ATOM     27  O   UNL     1      26.228   2.647  52.401  0.00  0.00    +0.000 OA
ATOM     28  H   UNL     1      25.951   3.393  51.905  0.00  0.00    +0.000 HD
ENDBRANCH   2  27
BRANCH   4  29
ATOM     29  O   UNL     1      25.178  -1.143  55.082  0.00  0.00    +0.000 OA
ATOM     30  H   UNL     1      25.054  -1.016  56.003  0.00  0.00    +0.000 HD
ENDBRANCH   4  29
TORSDOF 4
ENDMDL
MODEL 9
REMARK VINA RESULT:    -7.351      2.966      4.690
REMARK INTER + INTRA:          -9.426
REMARK INTER:                  -8.924
REMARK INTRA:                  -0.501
REMARK UNBOUND:                -0.785
REMARK  Name = 
REMARK  5 active torsions:
REMARK  status: ('A' for Active; 'I' for Inactive)
REMARK    1  A    between atoms: C_1  and  N_2
REMARK    2  A    between atoms: C_5  and  C_6
REMARK    3  A    between atoms: C_7  and  O_8
REMARK    4  A    between atoms: C_10  and  O_11
REMARK    5  A    between atoms: C_16  and  C_17
REMARK                            x       y       z     vdW  Elec       q    Type
REMARK                         _______ _______ _______ _____ _____    ______ ____
ROOT
ATOM      1  C   UNL     1      23.224   2.450  51.941  0.00  0.00    +0.000 A 
ATOM      2  C   UNL     1      22.007   1.929  52.416  0.00  0.00    +0.000 A 
ATOM      3  C   UNL     1      20.786   2.346  51.883  0.00  0.00    +0.000 A 
ATOM      4  C   UNL     1      20.766   3.305  50.869  0.00  0.00    +0.000 A 
ATOM      5  C   UNL     1      21.962   3.855  50.384  0.00  0.00    +0.000 A 
ATOM      6  C   UNL     1      21.989   4.887  49.320  0.00  0.00    +0.000 A 
ATOM      7  O   UNL     1      20.998   5.335  48.758  0.00  0.00    +0.000 OA
ATOM      8  C   UNL     1      23.313   5.395  48.923  0.00  0.00    +0.000 A 
ATOM      9  C   UNL     1      24.402   4.900  49.513  0.00  0.00    +0.000 A 
ATOM     10  O   UNL     1      24.397   3.922  50.486  0.00  0.00    +0.000 OA
ATOM     11  C   UNL     1      23.185   3.422  50.920  0.00  0.00    +0.000 A 
ENDROOT
BRANCH   1  16
ATOM     12  C   UNL     1      28.551   1.616  53.206  0.00  0.00    +0.000 C 
ATOM     13  N   UNL     1      27.170   1.246  53.446  0.00  0.00    +0.000 N 
ATOM     14  C   UNL     1      26.366   2.222  54.159  0.00  0.00    +0.000 C 
ATOM     15  C   UNL     1      25.043   2.577  53.575  0.00  0.00    +0.000 C 
ATOM     16  C   UNL     1      24.514   1.982  52.491  0.00  0.00    +0.000 C 
ATOM     17  C   UNL     1      25.217   0.860  51.793  0.00  0.00    +0.000 C 
ATOM     18  C   UNL     1      26.564   0.426  52.406  0.00  0.00    +0.000 C 
ATOM     19  H   UNL     1      27.203   0.550  54.191  0.00  0.00    +0.000 HD
ENDBRANCH   1  16
BRANCH   9  20
ATOM     20  C   UNL     1      25.748   5.375  49.149  0.00  0.00    +0.000 A 
ATOM     21  C   UNL     1      26.750   4.421  48.898  0.00  0.00    +0.000 A 
ATOM     22  C   UNL     1      28.046   4.818  48.550  0.00  0.00    +0.000 A 
ATOM     23  C   UNL     1      28.354   6.171  48.440  0.00  0.00    +0.000 A 
ATOM     24  C   UNL     1      27.371   7.129  48.681  0.00  0.00    +0.000 A 
ATOM     25  C   UNL     1      26.074   6.737  49.039  0.00  0.00    +0.000 A 
ATOM     26 BR   UNL     1      24.810   8.116  49.374  0.00  0.00    +0.000 Br
ENDBRANCH   9  20
BRANCH   2  27
ATOM     27  O   UNL     1      22.011   1.005  53.431  0.00  0.00    +0.000 OA
ATOM     28  H   UNL     1      21.206   0.615  53.712  0.00  0.00    +0.000 HD
ENDBRANCH   2  27
BRANCH   4  29
ATOM     29  O   UNL     1      19.560   3.700  50.367  0.00  0.00    +0.000 OA
ATOM     30  H   UNL     1      19.348   4.612  50.317  0.00  0.00    +0.000 HD
ENDBRANCH   4  29
TORSDOF 4
ENDMDL
