MODEL 1
REMARK VINA RESULT:    -9.760      0.000      0.000
REMARK INTER + INTRA:         -11.987
REMARK INTER:                 -11.471
REMARK INTRA:                  -0.515
REMARK UNBOUND:                -0.515
REMARK  Name = 
REMARK  4 active torsions:
REMARK  status: ('A' for Active; 'I' for Inactive)
REMARK    1  A    between atoms: C_4  and  C_5
REMARK    2  A    between atoms: C_14  and  C_15
REMARK    3  A    between atoms: C_21  and  O_22
REMARK    4  A    between atoms: C_24  and  O_25
REMARK                            x       y       z     vdW  Elec       q    Type
REMARK                         _______ _______ _______ _____ _____    ______ ____
ROOT
ATOM      1  O   UNL     1      20.540   1.678  52.493  0.00  0.00    +0.000 OA
ATOM      2  C   UNL     1      21.763   1.575  52.534  0.00  0.00    +0.000 A 
ATOM      3  C   UNL     1      22.562   2.465  51.688  0.00  0.00    +0.000 A 
ATOM      4  C   UNL     1      23.887   2.321  51.684  0.00  0.00    +0.000 A 
ATOM      5  O   UNL     1      24.560   1.359  52.394  0.00  0.00    +0.000 OA
ATOM      6  C   UNL     1      23.884   0.564  53.300  0.00  0.00    +0.000 A 
ATOM      7  C   UNL     1      24.662  -0.315  54.105  0.00  0.00    +0.000 A 
ATOM      8  C   UNL     1      23.947  -1.142  55.006  0.00  0.00    +0.000 A 
ATOM      9  C   UNL     1      22.553  -1.124  55.088  0.00  0.00    +0.000 A 
ATOM     10  C   UNL     1      21.830  -0.248  54.286  0.00  0.00    +0.000 A 
ATOM     11  C   UNL     1      22.486   0.610  53.395  0.00  0.00    +0.000 A 
ENDROOT
BRANCH   4  12
ATOM     12  C   UNL     1      24.749   3.179  50.858  0.00  0.00    +0.000 A 
ATOM     13  C   UNL     1      25.856   2.595  50.223  0.00  0.00    +0.000 A 
ATOM     14  C   UNL     1      26.707   3.361  49.422  0.00  0.00    +0.000 A 
ATOM     15  C   UNL     1      26.461   4.720  49.242  0.00  0.00    +0.000 A 
ATOM     16  C   UNL     1      25.366   5.317  49.866  0.00  0.00    +0.000 A 
ATOM     17  C   UNL     1      24.516   4.554  50.677  0.00  0.00    +0.000 A 
ATOM     18 CL   UNL     1      23.194   5.364  51.441  0.00  0.00    +0.000 Cl
ENDBRANCH   4  12
BRANCH   7  19
ATOM     19  C   UNL     1      26.154  -0.364  54.008  0.00  0.00    +0.000 A 
ATOM     20  C   UNL     1      26.816  -1.149  53.053  0.00  0.00    +0.000 A 
ATOM     21  C   UNL     1      28.196  -1.187  53.019  0.00  0.00    +0.000 A 
ATOM     22  N   UNL     1      28.987  -0.464  53.834  0.00  0.00    +0.000 NA
ATOM     23  C   UNL     1      28.358   0.315  54.737  0.00  0.00    +0.000 A 
ATOM     24  C   UNL     1      26.977   0.375  54.870  0.00  0.00    +0.000 A 
ENDBRANCH   7  19
BRANCH   8  25
ATOM     25  O   UNL     1      24.623  -1.984  55.854  0.00  0.00    +0.000 OA
ATOM     26  H   UNL     1      25.279  -1.640  56.429  0.00  0.00    +0.000 HD
ENDBRANCH   8  25
BRANCH  10  27
ATOM     27  O   UNL     1      20.469  -0.243  54.395  0.00  0.00    +0.000 OA
ATOM     28  H   UNL     1      20.065  -0.136  55.234  0.00  0.00    +0.000 HD
ENDBRANCH  10  27
TORSDOF 4
ENDMDL
MODEL 2
REMARK VINA RESULT:    -9.617      1.641      2.126
REMARK INTER + INTRA:         -11.819
REMARK INTER:                 -10.928
REMARK INTRA:                  -0.891
REMARK UNBOUND:                -0.515
REMARK  Name = 
REMARK  4 active torsions:
REMARK  status: ('A' for Active; 'I' for Inactive)
REMARK    1  A    between atoms: C_4  and  C_5
REMARK    2  A    between atoms: C_14  and  C_15
REMARK    3  A    between atoms: C_21  and  O_22
REMARK    4  A    between atoms: C_24  and  O_25
REMARK                            x       y       z     vdW  Elec       q    Type
REMARK                         _______ _______ _______ _____ _____    ______ ____
ROOT
ATOM      1  O   UNL     1      19.535  -0.301  52.787  0.00  0.00    +0.000 OA
ATOM      2  C   UNL     1      20.695   0.074  52.652  0.00  0.00    +0.000 A 
ATOM      3  C   UNL     1      20.991   1.046  51.596  0.00  0.00    +0.000 A 
ATOM      4  C   UNL     1      22.258   1.416  51.406  0.00  0.00    +0.000 A 
ATOM      5  O   UNL     1      23.322   0.913  52.112  0.00  0.00    +0.000 OA
ATOM      6  C   UNL     1      23.106   0.085  53.197  0.00  0.00    +0.000 A 
ATOM      7  C   UNL     1      24.242  -0.287  53.970  0.00  0.00    +0.000 A 
ATOM      8  C   UNL     1      24.004  -1.160  55.060  0.00  0.00    +0.000 A 
ATOM      9  C   UNL     1      22.732  -1.657  55.352  0.00  0.00    +0.000 A 
ATOM     10  C   UNL     1      21.647  -1.266  54.573  0.00  0.00    +0.000 A 
ATOM     11  C   UNL     1      21.821  -0.387  53.499  0.00  0.00    +0.000 A 
ENDROOT
BRANCH   4  12
ATOM     12  C   UNL     1      22.626   2.385  50.363  0.00  0.00    +0.000 A 
ATOM     13  C   UNL     1      22.291   2.090  49.032  0.00  0.00    +0.000 A 
ATOM     14  C   UNL     1      22.612   2.977  48.002  0.00  0.00    +0.000 A 
ATOM     15  C   UNL     1      23.268   4.172  48.287  0.00  0.00    +0.000 A 
ATOM     16  C   UNL     1      23.609   4.480  49.603  0.00  0.00    +0.000 A 
ATOM     17  C   UNL     1      23.297   3.590  50.638  0.00  0.00    +0.000 A 
ATOM     18 CL   UNL     1      23.772   4.024  52.242  0.00  0.00    +0.000 Cl
ENDBRANCH   4  12
BRANCH   7  19
ATOM     19  C   UNL     1      25.614   0.217  53.652  0.00  0.00    +0.000 A 
ATOM     20  C   UNL     1      26.017   1.528  53.946  0.00  0.00    +0.000 A 
ATOM     21  C   UNL     1      27.284   1.959  53.608  0.00  0.00    +0.000 A 
ATOM     22  N   UNL     1      28.217   1.175  53.035  0.00  0.00    +0.000 NA
ATOM     23  C   UNL     1      27.847  -0.096  52.775  0.00  0.00    +0.000 A 
ATOM     24  C   UNL     1      26.579  -0.596  53.038  0.00  0.00    +0.000 A 
ENDBRANCH   7  19
BRANCH   8  25
ATOM     25  O   UNL     1      25.036  -1.528  55.886  0.00  0.00    +0.000 OA
ATOM     26  H   UNL     1      25.915  -1.537  55.561  0.00  0.00    +0.000 HD
ENDBRANCH   8  25
BRANCH  10  27
ATOM     27  O   UNL     1      20.413  -1.759  54.888  0.00  0.00    +0.000 OA
ATOM     28  H   UNL     1      20.057  -2.477  54.403  0.00  0.00    +0.000 HD
ENDBRANCH  10  27
TORSDOF 4
ENDMDL
MODEL 3
REMARK VINA RESULT:    -9.454      2.492      4.658
REMARK INTER + INTRA:         -11.627
REMARK INTER:                 -10.827
REMARK INTRA:                  -0.799
REMARK UNBOUND:                -0.515
REMARK  Name = 
REMARK  4 active torsions:
REMARK  status: ('A' for Active; 'I' for Inactive)
REMARK    1  A    between atoms: C_4  and  C_5
REMARK    2  A    between atoms: C_14  and  C_15
REMARK    3  A    between atoms: C_21  and  O_22
REMARK    4  A    between atoms: C_24  and  O_25
REMARK                            x       y       z     vdW  Elec       q    Type
REMARK                         _______ _______ _______ _____ _____    ______ ____
ROOT
ATOM      1  O   UNL     1      26.757  -0.059  54.745  0.00  0.00    +0.000 OA
ATOM      2  C   UNL     1      25.839   0.373  54.054  0.00  0.00    +0.000 A 
ATOM      3  C   UNL     1      26.150   1.386  53.043  0.00  0.00    +0.000 A 
ATOM      4  C   UNL     1      25.151   1.901  52.327  0.00  0.00    +0.000 A 
ATOM      5  O   UNL     1      23.829   1.574  52.502  0.00  0.00    +0.000 OA
ATOM      6  C   UNL     1      23.475   0.545  53.353  0.00  0.00    +0.000 A 
ATOM      7  C   UNL     1      22.104   0.164  53.382  0.00  0.00    +0.000 A 
ATOM      8  C   UNL     1      21.757  -0.872  54.283  0.00  0.00    +0.000 A 
ATOM      9  C   UNL     1      22.697  -1.476  55.121  0.00  0.00    +0.000 A 
ATOM     10  C   UNL     1      24.028  -1.077  55.060  0.00  0.00    +0.000 A 
ATOM     11  C   UNL     1      24.431  -0.073  54.171  0.00  0.00    +0.000 A 
ENDROOT
BRANCH   4  12
ATOM     12  C   UNL     1      25.391   2.922  51.297  0.00  0.00    +0.000 A 
ATOM     13  C   UNL     1      26.456   2.728  50.403  0.00  0.00    +0.000 A 
ATOM     14  C   UNL     1      26.728   3.663  49.401  0.00  0.00    +0.000 A 
ATOM     15  C   UNL     1      25.936   4.803  49.276  0.00  0.00    +0.000 A 
ATOM     16  C   UNL     1      24.875   5.012  50.156  0.00  0.00    +0.000 A 
ATOM     17  C   UNL     1      24.605   4.081  51.167  0.00  0.00    +0.000 A 
ATOM     18 CL   UNL     1      23.291   4.417  52.238  0.00  0.00    +0.000 Cl
ENDBRANCH   4  12
BRANCH   7  19
ATOM     19  C   UNL     1      21.083   0.821  52.508  0.00  0.00    +0.000 A 
ATOM     20  C   UNL     1      20.717   0.295  51.260  0.00  0.00    +0.000 A 
ATOM     21  C   UNL     1      19.791   0.951  50.473  0.00  0.00    +0.000 A 
ATOM     22  N   UNL     1      19.152   2.076  50.845  0.00  0.00    +0.000 NA
ATOM     23  C   UNL     1      19.477   2.573  52.056  0.00  0.00    +0.000 A 
ATOM     24  C   UNL     1      20.432   2.003  52.888  0.00  0.00    +0.000 A 
ENDBRANCH   7  19
BRANCH   8  25
ATOM     25  O   UNL     1      20.466  -1.334  54.338  0.00  0.00    +0.000 OA
ATOM     26  H   UNL     1      19.944  -1.174  55.100  0.00  0.00    +0.000 HD
ENDBRANCH   8  25
BRANCH  10  27
ATOM     27  O   UNL     1      24.927  -1.691  55.884  0.00  0.00    +0.000 OA
ATOM     28  H   UNL     1      25.482  -2.369  55.550  0.00  0.00    +0.000 HD
ENDBRANCH  10  27
TORSDOF 4
ENDMDL
MODEL 4
REMARK VINA RESULT:    -9.275      2.424      5.409
REMARK INTER + INTRA:         -11.417
REMARK INTER:                 -10.517
REMARK INTRA:                  -0.900
REMARK UNBOUND:                -0.515
REMARK  Name = 
REMARK  4 active torsions:
REMARK  status: ('A' for Active; 'I' for Inactive)
REMARK    1  A    between atoms: C_4  and  C_5
REMARK    2  A    between atoms: C_14  and  C_15
REMARK    3  A    between atoms: C_21  and  O_22
REMARK    4  A    between atoms: C_24  and  O_25
REMARK                            x       y       z     vdW  Elec       q    Type
REMARK                         _______ _______ _______ _____ _____    ______ ____
ROOT
ATOM      1  O   UNL     1      22.428  -1.837  55.379  0.00  0.00    +0.000 OA
ATOM      2  C   UNL     1      23.038  -1.035  54.678  0.00  0.00    +0.000 A 
ATOM      3  C   UNL     1      24.502  -1.102  54.662  0.00  0.00    +0.000 A 
ATOM      4  C   UNL     1      25.174  -0.199  53.948  0.00  0.00    +0.000 A 
ATOM      5  O   UNL     1      24.585   0.827  53.253  0.00  0.00    +0.000 OA
ATOM      6  C   UNL     1      23.210   0.883  53.128  0.00  0.00    +0.000 A 
ATOM      7  C   UNL     1      22.671   1.889  52.278  0.00  0.00    +0.000 A 
ATOM      8  C   UNL     1      21.259   1.948  52.188  0.00  0.00    +0.000 A 
ATOM      9  C   UNL     1      20.430   1.088  52.911  0.00  0.00    +0.000 A 
ATOM     10  C   UNL     1      20.996   0.115  53.728  0.00  0.00    +0.000 A 
ATOM     11  C   UNL     1      22.387  -0.003  53.837  0.00  0.00    +0.000 A 
ENDROOT
BRANCH   4  12
ATOM     12  C   UNL     1      26.643  -0.207  53.888  0.00  0.00    +0.000 A 
ATOM     13  C   UNL     1      27.346   0.726  54.667  0.00  0.00    +0.000 A 
ATOM     14  C   UNL     1      28.742   0.760  54.653  0.00  0.00    +0.000 A 
ATOM     15  C   UNL     1      29.455  -0.139  53.863  0.00  0.00    +0.000 A 
ATOM     16  C   UNL     1      28.773  -1.072  53.083  0.00  0.00    +0.000 A 
ATOM     17  C   UNL     1      27.373  -1.104  53.088  0.00  0.00    +0.000 A 
ATOM     18 CL   UNL     1      26.593  -2.268  52.077  0.00  0.00    +0.000 Cl
ENDBRANCH   4  12
BRANCH   7  19
ATOM     19  C   UNL     1      23.547   2.834  51.518  0.00  0.00    +0.000 A 
ATOM     20  C   UNL     1      23.789   4.146  51.955  0.00  0.00    +0.000 A 
ATOM     21  C   UNL     1      24.580   4.993  51.206  0.00  0.00    +0.000 A 
ATOM     22  N   UNL     1      25.202   4.631  50.068  0.00  0.00    +0.000 NA
ATOM     23  C   UNL     1      24.998   3.363  49.656  0.00  0.00    +0.000 A 
ATOM     24  C   UNL     1      24.178   2.462  50.322  0.00  0.00    +0.000 A 
ENDBRANCH   7  19
BRANCH   8  25
ATOM     25  O   UNL     1      20.659   2.856  51.352  0.00  0.00    +0.000 OA
ATOM     26  H   UNL     1      20.293   3.645  51.703  0.00  0.00    +0.000 HD
ENDBRANCH   8  25
BRANCH  10  27
ATOM     27  O   UNL     1      20.162  -0.719  54.416  0.00  0.00    +0.000 OA
ATOM     28  H   UNL     1      20.434  -1.593  54.617  0.00  0.00    +0.000 HD
ENDBRANCH  10  27
TORSDOF 4
ENDMDL
MODEL 5
REMARK VINA RESULT:    -9.187      3.032      5.608
REMARK INTER + INTRA:         -11.313
REMARK INTER:                 -10.398
REMARK INTRA:                  -0.916
REMARK UNBOUND:                -0.515
REMARK  Name = 
REMARK  4 active torsions:
REMARK  status: ('A' for Active; 'I' for Inactive)
REMARK    1  A    between atoms: C_4  and  C_5
REMARK    2  A    between atoms: C_14  and  C_15
REMARK    3  A    between atoms: C_21  and  O_22
REMARK    4  A    between atoms: C_24  and  O_25
REMARK                            x       y       z     vdW  Elec       q    Type
REMARK                         _______ _______ _______ _____ _____    ______ ____
ROOT
ATOM      1  O   UNL     1      21.129  -1.579  55.005  0.00  0.00    +0.000 OA
ATOM      2  C   UNL     1      21.558  -0.923  54.061  0.00  0.00    +0.000 A 
ATOM      3  C   UNL     1      22.994  -0.638  54.010  0.00  0.00    +0.000 A 
ATOM      4  C   UNL     1      23.459   0.121  53.018  0.00  0.00    +0.000 A 
ATOM      5  O   UNL     1      22.671   0.694  52.052  0.00  0.00    +0.000 OA
ATOM      6  C   UNL     1      21.329   0.374  51.969  0.00  0.00    +0.000 A 
ATOM      7  C   UNL     1      20.601   0.892  50.861  0.00  0.00    +0.000 A 
ATOM      8  C   UNL     1      19.221   0.576  50.811  0.00  0.00    +0.000 A 
ATOM      9  C   UNL     1      18.593  -0.178  51.805  0.00  0.00    +0.000 A 
ATOM     10  C   UNL     1      19.341  -0.668  52.870  0.00  0.00    +0.000 A 
ATOM     11  C   UNL     1      20.714  -0.407  52.957  0.00  0.00    +0.000 A 
ENDROOT
BRANCH   4  12
ATOM     12  C   UNL     1      24.888   0.448  52.907  0.00  0.00    +0.000 A 
ATOM     13  C   UNL     1      25.798  -0.603  52.714  0.00  0.00    +0.000 A 
ATOM     14  C   UNL     1      27.167  -0.350  52.597  0.00  0.00    +0.000 A 
ATOM     15  C   UNL     1      27.645   0.957  52.667  0.00  0.00    +0.000 A 
ATOM     16  C   UNL     1      26.755   2.013  52.859  0.00  0.00    +0.000 A 
ATOM     17  C   UNL     1      25.383   1.763  52.986  0.00  0.00    +0.000 A 
ATOM     18 CL   UNL     1      24.340   3.116  53.249  0.00  0.00    +0.000 Cl
ENDBRANCH   4  12
BRANCH   7  19
ATOM     19  C   UNL     1      21.256   1.723  49.804  0.00  0.00    +0.000 A 
ATOM     20  C   UNL     1      21.404   3.113  49.929  0.00  0.00    +0.000 A 
ATOM     21  C   UNL     1      21.988   3.845  48.915  0.00  0.00    +0.000 A 
ATOM     22  N   UNL     1      22.489   3.302  47.789  0.00  0.00    +0.000 NA
ATOM     23  C   UNL     1      22.376   1.963  47.673  0.00  0.00    +0.000 A 
ATOM     24  C   UNL     1      21.760   1.159  48.623  0.00  0.00    +0.000 A 
ENDBRANCH   7  19
BRANCH   8  25
ATOM     25  O   UNL     1      18.457   0.994  49.751  0.00  0.00    +0.000 OA
ATOM     26  H   UNL     1      18.322   0.425  49.018  0.00  0.00    +0.000 HD
ENDBRANCH   8  25
BRANCH  10  27
ATOM     27  O   UNL     1      18.704  -1.412  53.821  0.00  0.00    +0.000 OA
ATOM     28  H   UNL     1      19.170  -1.702  54.581  0.00  0.00    +0.000 HD
ENDBRANCH  10  27
TORSDOF 4
ENDMDL
MODEL 6
REMARK VINA RESULT:    -8.758      3.127      6.631
REMARK INTER + INTRA:         -10.809
REMARK INTER:                 -10.155
REMARK INTRA:                  -0.654
REMARK UNBOUND:                -0.515
REMARK  Name = 
REMARK  4 active torsions:
REMARK  status: ('A' for Active; 'I' for Inactive)
REMARK    1  A    between atoms: C_4  and  C_5
REMARK    2  A    between atoms: C_14  and  C_15
REMARK    3  A    between atoms: C_21  and  O_22
REMARK    4  A    between atoms: C_24  and  O_25
REMARK                            x       y       z     vdW  Elec       q    Type
REMARK                         _______ _______ _______ _____ _____    ______ ____
ROOT
ATOM      1  O   UNL     1      25.601  -1.082  53.967  0.00  0.00    +0.000 OA
ATOM      2  C   UNL     1      24.878  -0.342  53.307  0.00  0.00    +0.000 A 
ATOM      3  C   UNL     1      23.438  -0.608  53.297  0.00  0.00    +0.000 A 
ATOM      4  C   UNL     1      22.652   0.156  52.538  0.00  0.00    +0.000 A 
ATOM      5  O   UNL     1      23.111   1.161  51.724  0.00  0.00    +0.000 OA
ATOM      6  C   UNL     1      24.437   1.544  51.771  0.00  0.00    +0.000 A 
ATOM      7  C   UNL     1      24.816   2.684  51.007  0.00  0.00    +0.000 A 
ATOM      8  C   UNL     1      26.186   3.041  51.045  0.00  0.00    +0.000 A 
ATOM      9  C   UNL     1      27.127   2.306  51.769  0.00  0.00    +0.000 A 
ATOM     10  C   UNL     1      26.716   1.201  52.506  0.00  0.00    +0.000 A 
ATOM     11  C   UNL     1      25.370   0.816  52.523  0.00  0.00    +0.000 A 
ENDROOT
BRANCH   4  12
ATOM     12  C   UNL     1      21.199  -0.056  52.480  0.00  0.00    +0.000 A 
ATOM     13  C   UNL     1      20.558  -0.587  53.611  0.00  0.00    +0.000 A 
ATOM     14  C   UNL     1      19.178  -0.805  53.613  0.00  0.00    +0.000 A 
ATOM     15  C   UNL     1      18.420  -0.493  52.488  0.00  0.00    +0.000 A 
ATOM     16  C   UNL     1      19.040   0.034  51.356  0.00  0.00    +0.000 A 
ATOM     17  C   UNL     1      20.424   0.247  51.346  0.00  0.00    +0.000 A 
ATOM     18 CL   UNL     1      21.130   0.878  49.901  0.00  0.00    +0.000 Cl
ENDBRANCH   4  12
BRANCH   7  19
ATOM     19  C   UNL     1      23.822   3.464  50.206  0.00  0.00    +0.000 A 
ATOM     20  C   UNL     1      23.576   3.196  48.851  0.00  0.00    +0.000 A 
ATOM     21  C   UNL     1      22.672   3.961  48.143  0.00  0.00    +0.000 A 
ATOM     22  N   UNL     1      21.943   4.956  48.684  0.00  0.00    +0.000 NA
ATOM     23  C   UNL     1      22.153   5.202  49.993  0.00  0.00    +0.000 A 
ATOM     24  C   UNL     1      23.078   4.513  50.766  0.00  0.00    +0.000 A 
ENDBRANCH   7  19
BRANCH   8  25
ATOM     25  O   UNL     1      26.626   4.156  50.377  0.00  0.00    +0.000 OA
ATOM     26  H   UNL     1      26.682   4.978  50.824  0.00  0.00    +0.000 HD
ENDBRANCH   8  25
BRANCH  10  27
ATOM     27  O   UNL     1      27.656   0.507  53.213  0.00  0.00    +0.000 OA
ATOM     28  H   UNL     1      27.402  -0.230  53.733  0.00  0.00    +0.000 HD
ENDBRANCH  10  27
TORSDOF 4
ENDMDL
MODEL 7
REMARK VINA RESULT:    -8.458      2.502      5.495
REMARK INTER + INTRA:         -10.457
REMARK INTER:                 -10.808
REMARK INTRA:                   0.351
REMARK UNBOUND:                -0.515
REMARK  Name = 
REMARK  4 active torsions:
REMARK  status: ('A' for Active; 'I' for Inactive)
REMARK    1  A    between atoms: C_4  and  C_5
REMARK    2  A    between atoms: C_14  and  C_15
REMARK    3  A    between atoms: C_21  and  O_22
REMARK    4  A    between atoms: C_24  and  O_25
REMARK                            x       y       z     vdW  Elec       q    Type
REMARK                         _______ _______ _______ _____ _____    ______ ____
ROOT
ATOM      1  O   UNL     1      25.908   4.031  49.730  0.00  0.00    +0.000 OA
ATOM      2  C   UNL     1      25.589   3.148  50.520  0.00  0.00    +0.000 A 
ATOM      3  C   UNL     1      26.651   2.323  51.103  0.00  0.00    +0.000 A 
ATOM      4  C   UNL     1      26.309   1.325  51.918  0.00  0.00    +0.000 A 
ATOM      5  O   UNL     1      25.014   0.986  52.220  0.00  0.00    +0.000 OA
ATOM      6  C   UNL     1      23.970   1.789  51.801  0.00  0.00    +0.000 A 
ATOM      7  C   UNL     1      22.666   1.459  52.266  0.00  0.00    +0.000 A 
ATOM      8  C   UNL     1      21.606   2.276  51.801  0.00  0.00    +0.000 A 
ATOM      9  C   UNL     1      21.815   3.333  50.913  0.00  0.00    +0.000 A 
ATOM     10  C   UNL     1      23.106   3.624  50.485  0.00  0.00    +0.000 A 
ATOM     11  C   UNL     1      24.194   2.865  50.931  0.00  0.00    +0.000 A 
ENDROOT
BRANCH   4  12
ATOM     12  C   UNL     1      27.323   0.459  52.537  0.00  0.00    +0.000 A 
ATOM     13  C   UNL     1      27.209  -0.929  52.360  0.00  0.00    +0.000 A 
ATOM     14  C   UNL     1      28.146  -1.800  52.922  0.00  0.00    +0.000 A 
ATOM     15  C   UNL     1      29.212  -1.296  53.664  0.00  0.00    +0.000 A 
ATOM     16  C   UNL     1      29.340   0.080  53.850  0.00  0.00    +0.000 A 
ATOM     17  C   UNL     1      28.397   0.956  53.296  0.00  0.00    +0.000 A 
ATOM     18 CL   UNL     1      28.603   2.647  53.589  0.00  0.00    +0.000 Cl
ENDBRANCH   4  12
BRANCH   7  19
ATOM     19  C   UNL     1      22.425   0.313  53.196  0.00  0.00    +0.000 A 
ATOM     20  C   UNL     1      21.237  -0.434  53.172  0.00  0.00    +0.000 A 
ATOM     21  C   UNL     1      21.045  -1.465  54.070  0.00  0.00    +0.000 A 
ATOM     22  N   UNL     1      21.965  -1.856  54.973  0.00  0.00    +0.000 NA
ATOM     23  C   UNL     1      23.120  -1.161  54.984  0.00  0.00    +0.000 A 
ATOM     24  C   UNL     1      23.375  -0.080  54.150  0.00  0.00    +0.000 A 
ENDBRANCH   7  19
BRANCH   8  25
ATOM     25  O   UNL     1      20.324   2.058  52.240  0.00  0.00    +0.000 OA
ATOM     26  H   UNL     1      19.600   2.214  51.665  0.00  0.00    +0.000 HD
ENDBRANCH   8  25
BRANCH  10  27
ATOM     27  O   UNL     1      23.282   4.671  49.625  0.00  0.00    +0.000 OA
ATOM     28  H   UNL     1      24.112   5.103  49.576  0.00  0.00    +0.000 HD
ENDBRANCH  10  27
TORSDOF 4
ENDMDL
MODEL 8
REMARK VINA RESULT:    -8.378      2.524      5.721
REMARK INTER + INTRA:         -10.362
REMARK INTER:                 -10.123
REMARK INTRA:                  -0.239
REMARK UNBOUND:                -0.515
REMARK  Name = 
REMARK  4 active torsions:
REMARK  status: ('A' for Active; 'I' for Inactive)
REMARK    1  A    between atoms: C_4  and  C_5
REMARK    2  A    between atoms: C_14  and  C_15
REMARK    3  A    between atoms: C_21  and  O_22
REMARK    4  A    between atoms: C_24  and  O_25
REMARK                            x       y       z     vdW  Elec       q    Type
REMARK                         _______ _______ _______ _____ _____    ______ ____
ROOT
ATOM      1  O   UNL     1      20.953   3.591  49.153  0.00  0.00    +0.000 OA
ATOM      2  C   UNL     1      21.650   2.951  49.934  0.00  0.00    +0.000 A 
ATOM      3  C   UNL     1      21.009   1.913  50.745  0.00  0.00    +0.000 A 
ATOM      4  C   UNL     1      21.748   1.252  51.637  0.00  0.00    +0.000 A 
ATOM      5  O   UNL     1      23.074   1.509  51.879  0.00  0.00    +0.000 OA
ATOM      6  C   UNL     1      23.770   2.390  51.074  0.00  0.00    +0.000 A 
ATOM      7  C   UNL     1      25.173   2.503  51.290  0.00  0.00    +0.000 A 
ATOM      8  C   UNL     1      25.862   3.433  50.474  0.00  0.00    +0.000 A 
ATOM      9  C   UNL     1      25.207   4.220  49.525  0.00  0.00    +0.000 A 
ATOM     10  C   UNL     1      23.836   4.077  49.342  0.00  0.00    +0.000 A 
ATOM     11  C   UNL     1      23.108   3.155  50.105  0.00  0.00    +0.000 A 
ENDROOT
BRANCH   4  12
ATOM     12  C   UNL     1      21.169   0.200  52.484  0.00  0.00    +0.000 A 
ATOM     13  C   UNL     1      19.771   0.075  52.528  0.00  0.00    +0.000 A 
ATOM     14  C   UNL     1      19.166  -0.911  53.312  0.00  0.00    +0.000 A 
ATOM     15  C   UNL     1      19.950  -1.787  54.060  0.00  0.00    +0.000 A 
ATOM     16  C   UNL     1      21.339  -1.677  54.028  0.00  0.00    +0.000 A 
ATOM     17  C   UNL     1      21.949  -0.685  53.250  0.00  0.00    +0.000 A 
ATOM     18 CL   UNL     1      23.675  -0.589  53.278  0.00  0.00    +0.000 Cl
ENDBRANCH   4  12
BRANCH   7  19
ATOM     19  C   UNL     1      25.882   1.685  52.322  0.00  0.00    +0.000 A 
ATOM     20  C   UNL     1      25.906   2.046  53.677  0.00  0.00    +0.000 A 
ATOM     21  C   UNL     1      26.598   1.276  54.590  0.00  0.00    +0.000 A 
ATOM     22  N   UNL     1      27.240   0.135  54.277  0.00  0.00    +0.000 NA
ATOM     23  C   UNL     1      27.199  -0.235  52.981  0.00  0.00    +0.000 A 
ATOM     24  C   UNL     1      26.567   0.506  51.991  0.00  0.00    +0.000 A 
ENDBRANCH   7  19
BRANCH   8  25
ATOM     25  O   UNL     1      27.223   3.569  50.584  0.00  0.00    +0.000 OA
ATOM     26  H   UNL     1      27.774   3.365  49.853  0.00  0.00    +0.000 HD
ENDBRANCH   8  25
BRANCH  10  27
ATOM     27  O   UNL     1      23.223   4.852  48.400  0.00  0.00    +0.000 OA
ATOM     28  H   UNL     1      23.729   5.441  47.876  0.00  0.00    +0.000 HD
ENDBRANCH  10  27
TORSDOF 4
ENDMDL
MODEL 9
REMARK VINA RESULT:    -8.239      1.697      2.480
REMARK INTER + INTRA:         -10.199
REMARK INTER:                  -9.681
REMARK INTRA:                  -0.518
REMARK UNBOUND:                -0.515
REMARK  Name = 
REMARK  4 active torsions:
REMARK  status: ('A' for Active; 'I' for Inactive)
REMARK    1  A    between atoms: C_4  and  C_5
REMARK    2  A    between atoms: C_14  and  C_15
REMARK    3  A    between atoms: C_21  and  O_22
REMARK    4  A    between atoms: C_24  and  O_25
REMARK                            x       y       z     vdW  Elec       q    Type
REMARK                         _______ _______ _______ _____ _____    ______ ____
ROOT
ATOM      1  O   UNL     1      20.602   4.270  50.351  0.00  0.00    +0.000 OA
ATOM      2  C   UNL     1      21.747   3.931  50.634  0.00  0.00    +0.000 A 
ATOM      3  C   UNL     1      22.859   4.686  50.051  0.00  0.00    +0.000 A 
ATOM      4  C   UNL     1      24.105   4.289  50.308  0.00  0.00    +0.000 A 
ATOM      5  O   UNL     1      24.422   3.184  51.057  0.00  0.00    +0.000 OA
ATOM      6  C   UNL     1      23.433   2.495  51.732  0.00  0.00    +0.000 A 
ATOM      7  C   UNL     1      23.845   1.446  52.602  0.00  0.00    +0.000 A 
ATOM      8  C   UNL     1      22.814   0.733  53.262  0.00  0.00    +0.000 A 
ATOM      9  C   UNL     1      21.463   1.018  53.056  0.00  0.00    +0.000 A 
ATOM     10  C   UNL     1      21.102   2.053  52.200  0.00  0.00    +0.000 A 
ATOM     11  C   UNL     1      22.080   2.806  51.541  0.00  0.00    +0.000 A 
ENDROOT
BRANCH   4  12
ATOM     12  C   UNL     1      25.266   5.000  49.754  0.00  0.00    +0.000 A 
ATOM     13  C   UNL     1      26.315   4.240  49.213  0.00  0.00    +0.000 A 
ATOM     14  C   UNL     1      27.441   4.863  48.669  0.00  0.00    +0.000 A 
ATOM     15  C   UNL     1      27.533   6.253  48.654  0.00  0.00    +0.000 A 
ATOM     16  C   UNL     1      26.500   7.023  49.188  0.00  0.00    +0.000 A 
ATOM     17  C   UNL     1      25.374   6.402  49.742  0.00  0.00    +0.000 A 
ATOM     18 CL   UNL     1      24.144   7.417  50.410  0.00  0.00    +0.000 Cl
ENDBRANCH   4  12
BRANCH   7  19
ATOM     19  C   UNL     1      25.289   1.114  52.811  0.00  0.00    +0.000 A 
ATOM     20  C   UNL     1      25.896   0.002  52.208  0.00  0.00    +0.000 A 
ATOM     21  C   UNL     1      27.224  -0.283  52.453  0.00  0.00    +0.000 A 
ATOM     22  N   UNL     1      28.027   0.479  53.219  0.00  0.00    +0.000 NA
ATOM     23  C   UNL     1      27.459   1.565  53.781  0.00  0.00    +0.000 A 
ATOM     24  C   UNL     1      26.119   1.897  53.626  0.00  0.00    +0.000 A 
ENDBRANCH   7  19
BRANCH   8  25
ATOM     25  O   UNL     1      23.126  -0.260  54.156  0.00  0.00    +0.000 OA
ATOM     26  H   UNL     1      22.882  -0.173  55.057  0.00  0.00    +0.000 HD
ENDBRANCH   8  25
BRANCH  10  27
ATOM     27  O   UNL     1      19.773   2.316  52.026  0.00  0.00    +0.000 OA
ATOM     28  H   UNL     1      19.437   3.172  52.205  0.00  0.00    +0.000 HD
ENDBRANCH  10  27
TORSDOF 4
ENDMDL
