MODEL 1
REMARK VINA RESULT:    -8.434      0.000      0.000
REMARK INTER + INTRA:         -10.577
REMARK INTER:                  -9.914
REMARK INTRA:                  -0.663
REMARK UNBOUND:                -0.663
REMARK  Name = 
REMARK  3 active torsions:
REMARK  status: ('A' for Active; 'I' for Inactive)
REMARK    1  A    between atoms: C_2  and  C_3
REMARK    2  A    between atoms: C_2  and  C_11
REMARK    3  A    between atoms: C_14  and  N_15
REMARK                            x       y       z     vdW  Elec       q    Type
REMARK                         _______ _______ _______ _____ _____    ______ ____
ROOT
ATOM      1  C   UNL     1      22.645   0.707  53.091  0.00  0.00    +0.000 A 
ATOM      2  C   UNL     1      23.664   1.426  52.455  0.00  0.00    +0.000 A 
ATOM      3  C   UNL     1      24.989   1.015  52.540  0.00  0.00    +0.000 A 
ATOM      4  C   UNL     1      25.359  -0.073  53.331  0.00  0.00    +0.000 A 
ATOM      5  C   UNL     1      24.341  -0.788  53.984  0.00  0.00    +0.000 A 
ATOM      6  C   UNL     1      22.995  -0.400  53.877  0.00  0.00    +0.000 A 
ATOM      7 CL   UNL     1      21.849  -1.361  54.747  0.00  0.00    +0.000 Cl
ENDROOT
BRANCH   4   8
ATOM      8  N   UNL     1      26.734  -0.438  53.483  0.00  0.00    +0.000 N 
ATOM      9  N   UNL     1      27.473   0.459  54.231  0.00  0.00    +0.000 NA
ATOM     10  C   UNL     1      28.720   0.187  54.438  0.00  0.00    +0.000 A 
ATOM     11  C   UNL     1      29.393  -1.021  53.889  0.00  0.00    +0.000 A 
ATOM     12  O   UNL     1      30.581  -1.216  54.120  0.00  0.00    +0.000 OA
ATOM     13  N   UNL     1      28.603  -1.828  53.147  0.00  0.00    +0.000 N 
ATOM     14  C   UNL     1      27.278  -1.597  52.898  0.00  0.00    +0.000 A 
ATOM     15  O   UNL     1      26.696  -2.399  52.168  0.00  0.00    +0.000 OA
ATOM     16  H   UNL     1      29.008  -2.638  52.760  0.00  0.00    +0.000 HD
ENDBRANCH   4   8
BRANCH   1  18
ATOM     17  O   UNL     1      20.474   1.183  53.868  0.00  0.00    +0.000 OA
ATOM     18  C   UNL     1      21.242   1.164  52.910  0.00  0.00    +0.000 C 
BRANCH  18  19
ATOM     19  C   UNL     1      20.757   1.750  51.627  0.00  0.00    +0.000 A 
ATOM     20  C   UNL     1      20.221   0.832  50.706  0.00  0.00    +0.000 A 
ATOM     21  C   UNL     1      19.674   1.268  49.499  0.00  0.00    +0.000 A 
ATOM     22  C   UNL     1      19.642   2.627  49.211  0.00  0.00    +0.000 A 
ATOM     23 CL   UNL     1      18.958   3.172  47.731  0.00  0.00    +0.000 Cl
ATOM     24  C   UNL     1      20.183   3.551  50.101  0.00  0.00    +0.000 A 
ATOM     25  C   UNL     1      20.776   3.116  51.290  0.00  0.00    +0.000 A 
ATOM     26 CL   UNL     1      21.555   4.339  52.235  0.00  0.00    +0.000 Cl
ENDBRANCH  18  19
ENDBRANCH   1  18
TORSDOF 3
ENDMDL
MODEL 2
REMARK VINA RESULT:    -8.397      2.509      3.287
REMARK INTER + INTRA:         -10.533
REMARK INTER:                  -9.673
REMARK INTRA:                  -0.860
REMARK UNBOUND:                -0.663
REMARK  Name = 
REMARK  3 active torsions:
REMARK  status: ('A' for Active; 'I' for Inactive)
REMARK    1  A    between atoms: C_2  and  C_3
REMARK    2  A    between atoms: C_2  and  C_11
REMARK    3  A    between atoms: C_14  and  N_15
REMARK                            x       y       z     vdW  Elec       q    Type
REMARK                         _______ _______ _______ _____ _____    ______ ____
ROOT
ATOM      1  C   UNL     1      23.931   2.560  51.779  0.00  0.00    +0.000 A 
ATOM      2  C   UNL     1      24.006   1.829  52.970  0.00  0.00    +0.000 A 
ATOM      3  C   UNL     1      25.210   1.281  53.398  0.00  0.00    +0.000 A 
ATOM      4  C   UNL     1      26.361   1.364  52.613  0.00  0.00    +0.000 A 
ATOM      5  C   UNL     1      26.285   2.082  51.408  0.00  0.00    +0.000 A 
ATOM      6  C   UNL     1      25.080   2.668  50.984  0.00  0.00    +0.000 A 
ATOM      7 CL   UNL     1      25.127   3.509  49.473  0.00  0.00    +0.000 Cl
ENDROOT
BRANCH   4   8
ATOM      8  N   UNL     1      27.574   0.723  53.018  0.00  0.00    +0.000 N 
ATOM      9  N   UNL     1      27.526  -0.657  52.962  0.00  0.00    +0.000 NA
ATOM     10  C   UNL     1      28.593  -1.311  53.286  0.00  0.00    +0.000 A 
ATOM     11  C   UNL     1      29.847  -0.650  53.738  0.00  0.00    +0.000 A 
ATOM     12  O   UNL     1      30.822  -1.331  54.035  0.00  0.00    +0.000 OA
ATOM     13  N   UNL     1      29.797   0.699  53.789  0.00  0.00    +0.000 N 
ATOM     14  C   UNL     1      28.701   1.445  53.454  0.00  0.00    +0.000 A 
ATOM     15  O   UNL     1      28.790   2.665  53.591  0.00  0.00    +0.000 OA
ATOM     16  H   UNL     1      30.605   1.178  54.087  0.00  0.00    +0.000 HD
ENDBRANCH   4   8
BRANCH   1  18
ATOM     17  O   UNL     1      22.538   4.389  51.269  0.00  0.00    +0.000 OA
ATOM     18  C   UNL     1      22.627   3.172  51.409  0.00  0.00    +0.000 C 
BRANCH  18  19
ATOM     19  C   UNL     1      21.435   2.348  51.052  0.00  0.00    +0.000 A 
ATOM     20  C   UNL     1      20.517   2.128  52.094  0.00  0.00    +0.000 A 
ATOM     21  C   UNL     1      19.331   1.430  51.866  0.00  0.00    +0.000 A 
ATOM     22  C   UNL     1      19.046   0.961  50.589  0.00  0.00    +0.000 A 
ATOM     23 CL   UNL     1      17.581   0.111  50.297  0.00  0.00    +0.000 Cl
ATOM     24  C   UNL     1      19.950   1.153  49.547  0.00  0.00    +0.000 A 
ATOM     25  C   UNL     1      21.162   1.810  49.782  0.00  0.00    +0.000 A 
ATOM     26 CL   UNL     1      22.270   1.845  48.453  0.00  0.00    +0.000 Cl
ENDBRANCH  18  19
ENDBRANCH   1  18
TORSDOF 3
ENDMDL
MODEL 3
REMARK VINA RESULT:    -8.221      3.297      4.456
REMARK INTER + INTRA:         -10.326
REMARK INTER:                  -9.509
REMARK INTRA:                  -0.817
REMARK UNBOUND:                -0.663
REMARK  Name = 
REMARK  3 active torsions:
REMARK  status: ('A' for Active; 'I' for Inactive)
REMARK    1  A    between atoms: C_2  and  C_3
REMARK    2  A    between atoms: C_2  and  C_11
REMARK    3  A    between atoms: C_14  and  N_15
REMARK                            x       y       z     vdW  Elec       q    Type
REMARK                         _______ _______ _______ _____ _____    ______ ____
ROOT
ATOM      1  C   UNL     1      24.152   3.433  51.948  0.00  0.00    +0.000 A 
ATOM      2  C   UNL     1      24.358   3.020  53.270  0.00  0.00    +0.000 A 
ATOM      3  C   UNL     1      25.489   2.295  53.624  0.00  0.00    +0.000 A 
ATOM      4  C   UNL     1      26.411   1.878  52.663  0.00  0.00    +0.000 A 
ATOM      5  C   UNL     1      26.198   2.276  51.332  0.00  0.00    +0.000 A 
ATOM      6  C   UNL     1      25.075   3.038  50.970  0.00  0.00    +0.000 A 
ATOM      7 CL   UNL     1      24.932   3.443  49.295  0.00  0.00    +0.000 Cl
ENDROOT
BRANCH   4   8
ATOM      8  N   UNL     1      27.527   1.058  53.021  0.00  0.00    +0.000 N 
ATOM      9  N   UNL     1      27.280  -0.299  52.928  0.00  0.00    +0.000 NA
ATOM     10  C   UNL     1      28.248  -1.108  53.209  0.00  0.00    +0.000 A 
ATOM     11  C   UNL     1      29.592  -0.648  53.650  0.00  0.00    +0.000 A 
ATOM     12  O   UNL     1      30.465  -1.471  53.905  0.00  0.00    +0.000 OA
ATOM     13  N   UNL     1      29.738   0.692  53.739  0.00  0.00    +0.000 N 
ATOM     14  C   UNL     1      28.754   1.597  53.450  0.00  0.00    +0.000 A 
ATOM     15  O   UNL     1      29.020   2.787  53.620  0.00  0.00    +0.000 OA
ATOM     16  H   UNL     1      30.611   1.041  54.032  0.00  0.00    +0.000 HD
ENDBRANCH   4   8
BRANCH   1  18
ATOM     17  O   UNL     1      21.871   3.980  52.159  0.00  0.00    +0.000 OA
ATOM     18  C   UNL     1      22.952   4.259  51.647  0.00  0.00    +0.000 C 
BRANCH  18  19
ATOM     19  C   UNL     1      23.035   5.519  50.854  0.00  0.00    +0.000 A 
ATOM     20  C   UNL     1      23.878   6.513  51.381  0.00  0.00    +0.000 A 
ATOM     21  C   UNL     1      24.090   7.708  50.695  0.00  0.00    +0.000 A 
ATOM     22  C   UNL     1      23.473   7.913  49.467  0.00  0.00    +0.000 A 
ATOM     23 CL   UNL     1      23.739   9.379  48.609  0.00  0.00    +0.000 Cl
ATOM     24  C   UNL     1      22.619   6.950  48.935  0.00  0.00    +0.000 A 
ATOM     25  C   UNL     1      22.366   5.770  49.642  0.00  0.00    +0.000 A 
ATOM     26 CL   UNL     1      21.168   4.725  48.959  0.00  0.00    +0.000 Cl
ENDBRANCH  18  19
ENDBRANCH   1  18
TORSDOF 3
ENDMDL
MODEL 4
REMARK VINA RESULT:    -8.019      3.843      8.111
REMARK INTER + INTRA:         -10.089
REMARK INTER:                  -9.545
REMARK INTRA:                  -0.543
REMARK UNBOUND:                -0.663
REMARK  Name = 
REMARK  3 active torsions:
REMARK  status: ('A' for Active; 'I' for Inactive)
REMARK    1  A    between atoms: C_2  and  C_3
REMARK    2  A    between atoms: C_2  and  C_11
REMARK    3  A    between atoms: C_14  and  N_15
REMARK                            x       y       z     vdW  Elec       q    Type
REMARK                         _______ _______ _______ _____ _____    ______ ____
ROOT
ATOM      1  C   UNL     1      23.993   0.046  53.343  0.00  0.00    +0.000 A 
ATOM      2  C   UNL     1      24.433   1.098  52.531  0.00  0.00    +0.000 A 
ATOM      3  C   UNL     1      23.559   1.747  51.668  0.00  0.00    +0.000 A 
ATOM      4  C   UNL     1      22.240   1.317  51.516  0.00  0.00    +0.000 A 
ATOM      5  C   UNL     1      21.800   0.250  52.317  0.00  0.00    +0.000 A 
ATOM      6  C   UNL     1      22.668  -0.390  53.218  0.00  0.00    +0.000 A 
ATOM      7 CL   UNL     1      21.996  -1.699  54.129  0.00  0.00    +0.000 Cl
ENDROOT
BRANCH   4   8
ATOM      8  N   UNL     1      21.371   1.934  50.562  0.00  0.00    +0.000 N 
ATOM      9  N   UNL     1      21.559   1.496  49.265  0.00  0.00    +0.000 NA
ATOM     10  C   UNL     1      20.793   1.986  48.346  0.00  0.00    +0.000 A 
ATOM     11  C   UNL     1      19.748   3.010  48.617  0.00  0.00    +0.000 A 
ATOM     12  O   UNL     1      19.058   3.436  47.698  0.00  0.00    +0.000 OA
ATOM     13  N   UNL     1      19.651   3.401  49.907  0.00  0.00    +0.000 N 
ATOM     14  C   UNL     1      20.429   2.915  50.922  0.00  0.00    +0.000 A 
ATOM     15  O   UNL     1      20.255   3.398  52.041  0.00  0.00    +0.000 OA
ATOM     16  H   UNL     1      18.975   4.081  50.132  0.00  0.00    +0.000 HD
ENDBRANCH   4   8
BRANCH   1  18
ATOM     17  O   UNL     1      24.559  -1.213  55.252  0.00  0.00    +0.000 OA
ATOM     18  C   UNL     1      24.964  -0.566  54.290  0.00  0.00    +0.000 C 
BRANCH  18  19
ATOM     19  C   UNL     1      26.435  -0.551  54.040  0.00  0.00    +0.000 A 
ATOM     20  C   UNL     1      27.176   0.336  54.839  0.00  0.00    +0.000 A 
ATOM     21  C   UNL     1      28.567   0.391  54.744  0.00  0.00    +0.000 A 
ATOM     22  C   UNL     1      29.229  -0.454  53.862  0.00  0.00    +0.000 A 
ATOM     23 CL   UNL     1      30.943  -0.401  53.749  0.00  0.00    +0.000 Cl
ATOM     24  C   UNL     1      28.512  -1.329  53.048  0.00  0.00    +0.000 A 
ATOM     25  C   UNL     1      27.114  -1.353  53.105  0.00  0.00    +0.000 A 
ATOM     26 CL   UNL     1      26.331  -2.361  51.936  0.00  0.00    +0.000 Cl
ENDBRANCH  18  19
ENDBRANCH   1  18
TORSDOF 3
ENDMDL
MODEL 5
REMARK VINA RESULT:    -7.995      4.904      6.692
REMARK INTER + INTRA:         -10.060
REMARK INTER:                  -9.604
REMARK INTRA:                  -0.456
REMARK UNBOUND:                -0.663
REMARK  Name = 
REMARK  3 active torsions:
REMARK  status: ('A' for Active; 'I' for Inactive)
REMARK    1  A    between atoms: C_2  and  C_3
REMARK    2  A    between atoms: C_2  and  C_11
REMARK    3  A    between atoms: C_14  and  N_15
REMARK                            x       y       z     vdW  Elec       q    Type
REMARK                         _______ _______ _______ _____ _____    ______ ____
ROOT
ATOM      1  C   UNL     1      23.865   4.182  50.261  0.00  0.00    +0.000 A 
ATOM      2  C   UNL     1      24.125   4.317  51.630  0.00  0.00    +0.000 A 
ATOM      3  C   UNL     1      23.921   3.255  52.504  0.00  0.00    +0.000 A 
ATOM      4  C   UNL     1      23.368   2.052  52.063  0.00  0.00    +0.000 A 
ATOM      5  C   UNL     1      23.090   1.920  50.692  0.00  0.00    +0.000 A 
ATOM      6  C   UNL     1      23.325   2.976  49.796  0.00  0.00    +0.000 A 
ATOM      7 CL   UNL     1      22.920   2.679  48.140  0.00  0.00    +0.000 Cl
ENDROOT
BRANCH   4   8
ATOM      8  N   UNL     1      23.081   0.995  52.982  0.00  0.00    +0.000 N 
ATOM      9  N   UNL     1      24.175   0.211  53.297  0.00  0.00    +0.000 NA
ATOM     10  C   UNL     1      24.004  -0.751  54.143  0.00  0.00    +0.000 A 
ATOM     11  C   UNL     1      22.689  -1.064  54.766  0.00  0.00    +0.000 A 
ATOM     12  O   UNL     1      22.596  -1.994  55.559  0.00  0.00    +0.000 OA
ATOM     13  N   UNL     1      21.670  -0.264  54.383  0.00  0.00    +0.000 N 
ATOM     14  C   UNL     1      21.790   0.770  53.496  0.00  0.00    +0.000 A 
ATOM     15  O   UNL     1      20.762   1.385  53.209  0.00  0.00    +0.000 OA
ATOM     16  H   UNL     1      20.780  -0.439  54.767  0.00  0.00    +0.000 HD
ENDBRANCH   4   8
BRANCH   1  18
ATOM     17  O   UNL     1      23.285   6.156  49.114  0.00  0.00    +0.000 OA
ATOM     18  C   UNL     1      24.163   5.336  49.371  0.00  0.00    +0.000 C 
BRANCH  18  19
ATOM     19  C   UNL     1      25.542   5.629  48.885  0.00  0.00    +0.000 A 
ATOM     20  C   UNL     1      25.728   6.903  48.321  0.00  0.00    +0.000 A 
ATOM     21  C   UNL     1      26.988   7.319  47.892  0.00  0.00    +0.000 A 
ATOM     22  C   UNL     1      28.078   6.469  48.041  0.00  0.00    +0.000 A 
ATOM     23 CL   UNL     1      29.637   6.978  47.527  0.00  0.00    +0.000 Cl
ATOM     24  C   UNL     1      27.913   5.196  48.581  0.00  0.00    +0.000 A 
ATOM     25  C   UNL     1      26.643   4.757  48.968  0.00  0.00    +0.000 A 
ATOM     26 CL   UNL     1      26.538   3.105  49.473  0.00  0.00    +0.000 Cl
ENDBRANCH  18  19
ENDBRANCH   1  18
TORSDOF 3
ENDMDL
MODEL 6
REMARK VINA RESULT:    -7.964      6.509      8.108
REMARK INTER + INTRA:         -10.023
REMARK INTER:                  -9.205
REMARK INTRA:                  -0.818
REMARK UNBOUND:                -0.663
REMARK  Name = 
REMARK  3 active torsions:
REMARK  status: ('A' for Active; 'I' for Inactive)
REMARK    1  A    between atoms: C_2  and  C_3
REMARK    2  A    between atoms: C_2  and  C_11
REMARK    3  A    between atoms: C_14  and  N_15
REMARK                            x       y       z     vdW  Elec       q    Type
REMARK                         _______ _______ _______ _____ _____    ______ ____
ROOT
ATOM      1  C   UNL     1      26.099   5.557  49.257  0.00  0.00    +0.000 A 
ATOM      2  C   UNL     1      26.734   4.316  49.129  0.00  0.00    +0.000 A 
ATOM      3  C   UNL     1      26.335   3.226  49.894  0.00  0.00    +0.000 A 
ATOM      4  C   UNL     1      25.353   3.354  50.877  0.00  0.00    +0.000 A 
ATOM      5  C   UNL     1      24.725   4.603  51.020  0.00  0.00    +0.000 A 
ATOM      6  C   UNL     1      25.098   5.701  50.227  0.00  0.00    +0.000 A 
ATOM      7 CL   UNL     1      24.252   7.181  50.523  0.00  0.00    +0.000 Cl
ENDROOT
BRANCH   4   8
ATOM      8  N   UNL     1      25.009   2.251  51.720  0.00  0.00    +0.000 N 
ATOM      9  N   UNL     1      25.944   1.981  52.701  0.00  0.00    +0.000 NA
ATOM     10  C   UNL     1      25.694   1.015  53.523  0.00  0.00    +0.000 A 
ATOM     11  C   UNL     1      24.470   0.173  53.442  0.00  0.00    +0.000 A 
ATOM     12  O   UNL     1      24.297  -0.731  54.252  0.00  0.00    +0.000 OA
ATOM     13  N   UNL     1      23.623   0.489  52.437  0.00  0.00    +0.000 N 
ATOM     14  C   UNL     1      23.831   1.502  51.541  0.00  0.00    +0.000 A 
ATOM     15  O   UNL     1      22.992   1.643  50.652  0.00  0.00    +0.000 OA
ATOM     16  H   UNL     1      22.802  -0.046  52.343  0.00  0.00    +0.000 HD
ENDBRANCH   4   8
BRANCH   1  18
ATOM     17  O   UNL     1      25.721   7.201  47.614  0.00  0.00    +0.000 OA
ATOM     18  C   UNL     1      26.532   6.665  48.365  0.00  0.00    +0.000 C 
BRANCH  18  19
ATOM     19  C   UNL     1      27.896   7.264  48.447  0.00  0.00    +0.000 A 
ATOM     20  C   UNL     1      28.881   6.635  47.665  0.00  0.00    +0.000 A 
ATOM     21  C   UNL     1      30.178   7.144  47.605  0.00  0.00    +0.000 A 
ATOM     22  C   UNL     1      30.497   8.296  48.314  0.00  0.00    +0.000 A 
ATOM     23 CL   UNL     1      32.090   8.936  48.236  0.00  0.00    +0.000 Cl
ATOM     24  C   UNL     1      29.541   8.924  49.109  0.00  0.00    +0.000 A 
ATOM     25  C   UNL     1      28.252   8.390  49.210  0.00  0.00    +0.000 A 
ATOM     26 CL   UNL     1      27.204   9.163  50.349  0.00  0.00    +0.000 Cl
ENDBRANCH  18  19
ENDBRANCH   1  18
TORSDOF 3
ENDMDL
MODEL 7
REMARK VINA RESULT:    -7.886      7.503      9.084
REMARK INTER + INTRA:          -9.933
REMARK INTER:                  -8.997
REMARK INTRA:                  -0.935
REMARK UNBOUND:                -0.663
REMARK  Name = 
REMARK  3 active torsions:
REMARK  status: ('A' for Active; 'I' for Inactive)
REMARK    1  A    between atoms: C_2  and  C_3
REMARK    2  A    between atoms: C_2  and  C_11
REMARK    3  A    between atoms: C_14  and  N_15
REMARK                            x       y       z     vdW  Elec       q    Type
REMARK                         _______ _______ _______ _____ _____    ______ ____
ROOT
ATOM      1  C   UNL     1      25.693   5.072  49.641  0.00  0.00    +0.000 A 
ATOM      2  C   UNL     1      26.784   5.016  48.766  0.00  0.00    +0.000 A 
ATOM      3  C   UNL     1      27.539   6.150  48.491  0.00  0.00    +0.000 A 
ATOM      4  C   UNL     1      27.182   7.397  49.005  0.00  0.00    +0.000 A 
ATOM      5  C   UNL     1      26.077   7.460  49.871  0.00  0.00    +0.000 A 
ATOM      6  C   UNL     1      25.329   6.313  50.181  0.00  0.00    +0.000 A 
ATOM      7 CL   UNL     1      23.985   6.540  51.246  0.00  0.00    +0.000 Cl
ENDROOT
BRANCH   4   8
ATOM      8  N   UNL     1      27.912   8.575  48.648  0.00  0.00    +0.000 N 
ATOM      9  N   UNL     1      29.023   8.807  49.438  0.00  0.00    +0.000 NA
ATOM     10  C   UNL     1      29.752   9.839  49.162  0.00  0.00    +0.000 A 
ATOM     11  C   UNL     1      29.436  10.790  48.063  0.00  0.00    +0.000 A 
ATOM     12  O   UNL     1      30.168  11.751  47.859  0.00  0.00    +0.000 OA
ATOM     13  N   UNL     1      28.318  10.502  47.360  0.00  0.00    +0.000 N 
ATOM     14  C   UNL     1      27.511   9.424  47.600  0.00  0.00    +0.000 A 
ATOM     15  O   UNL     1      26.501   9.314  46.904  0.00  0.00    +0.000 OA
ATOM     16  H   UNL     1      28.068  11.108  46.625  0.00  0.00    +0.000 HD
ENDBRANCH   4   8
BRANCH   1  18
ATOM     17  O   UNL     1      24.153   3.363  49.135  0.00  0.00    +0.000 OA
ATOM     18  C   UNL     1      24.965   3.810  49.940  0.00  0.00    +0.000 C 
BRANCH  18  19
ATOM     19  C   UNL     1      25.289   2.970  51.130  0.00  0.00    +0.000 A 
ATOM     20  C   UNL     1      26.499   2.258  51.057  0.00  0.00    +0.000 A 
ATOM     21  C   UNL     1      26.943   1.491  52.134  0.00  0.00    +0.000 A 
ATOM     22  C   UNL     1      26.189   1.444  53.300  0.00  0.00    +0.000 A 
ATOM     23 CL   UNL     1      26.736   0.511  54.636  0.00  0.00    +0.000 Cl
ATOM     24  C   UNL     1      24.978   2.127  53.387  0.00  0.00    +0.000 A 
ATOM     25  C   UNL     1      24.505   2.858  52.292  0.00  0.00    +0.000 A 
ATOM     26 CL   UNL     1      22.919   3.528  52.463  0.00  0.00    +0.000 Cl
ENDBRANCH  18  19
ENDBRANCH   1  18
TORSDOF 3
ENDMDL
MODEL 8
REMARK VINA RESULT:    -7.759      2.390      3.236
REMARK INTER + INTRA:          -9.782
REMARK INTER:                  -9.259
REMARK INTRA:                  -0.524
REMARK UNBOUND:                -0.663
REMARK  Name = 
REMARK  3 active torsions:
REMARK  status: ('A' for Active; 'I' for Inactive)
REMARK    1  A    between atoms: C_2  and  C_3
REMARK    2  A    between atoms: C_2  and  C_11
REMARK    3  A    between atoms: C_14  and  N_15
REMARK                            x       y       z     vdW  Elec       q    Type
REMARK                         _______ _______ _______ _____ _____    ______ ____
ROOT
ATOM      1  C   UNL     1      23.595   1.990  51.631  0.00  0.00    +0.000 A 
ATOM      2  C   UNL     1      24.783   2.379  51.001  0.00  0.00    +0.000 A 
ATOM      3  C   UNL     1      26.007   1.847  51.391  0.00  0.00    +0.000 A 
ATOM      4  C   UNL     1      26.103   0.978  52.479  0.00  0.00    +0.000 A 
ATOM      5  C   UNL     1      24.914   0.599  53.125  0.00  0.00    +0.000 A 
ATOM      6  C   UNL     1      23.669   1.105  52.716  0.00  0.00    +0.000 A 
ATOM      7 CL   UNL     1      22.291   0.566  53.612  0.00  0.00    +0.000 Cl
ENDROOT
BRANCH   4   8
ATOM      8  N   UNL     1      27.375   0.503  52.929  0.00  0.00    +0.000 N 
ATOM      9  N   UNL     1      27.525  -0.869  52.841  0.00  0.00    +0.000 NA
ATOM     10  C   UNL     1      28.657  -1.375  53.203  0.00  0.00    +0.000 A 
ATOM     11  C   UNL     1      29.784  -0.559  53.731  0.00  0.00    +0.000 A 
ATOM     12  O   UNL     1      30.830  -1.105  54.061  0.00  0.00    +0.000 OA
ATOM     13  N   UNL     1      29.541   0.768  53.808  0.00  0.00    +0.000 N 
ATOM     14  C   UNL     1      28.367   1.362  53.436  0.00  0.00    +0.000 A 
ATOM     15  O   UNL     1      28.276   2.579  53.604  0.00  0.00    +0.000 OA
ATOM     16  H   UNL     1      30.258   1.347  54.157  0.00  0.00    +0.000 HD
ENDBRANCH   4   8
BRANCH   1  18
ATOM     17  O   UNL     1      21.281   1.890  51.205  0.00  0.00    +0.000 OA
ATOM     18  C   UNL     1      22.314   2.550  51.125  0.00  0.00    +0.000 C 
BRANCH  18  19
ATOM     19  C   UNL     1      22.196   3.959  50.648  0.00  0.00    +0.000 A 
ATOM     20  C   UNL     1      21.921   4.913  51.644  0.00  0.00    +0.000 A 
ATOM     21  C   UNL     1      21.855   6.271  51.332  0.00  0.00    +0.000 A 
ATOM     22  C   UNL     1      22.080   6.687  50.025  0.00  0.00    +0.000 A 
ATOM     23 CL   UNL     1      22.012   8.360  49.636  0.00  0.00    +0.000 Cl
ATOM     24  C   UNL     1      22.335   5.757  49.021  0.00  0.00    +0.000 A 
ATOM     25  C   UNL     1      22.355   4.390  49.320  0.00  0.00    +0.000 A 
ATOM     26 CL   UNL     1      22.521   3.326  47.965  0.00  0.00    +0.000 Cl
ENDBRANCH  18  19
ENDBRANCH   1  18
TORSDOF 3
ENDMDL
MODEL 9
REMARK VINA RESULT:    -7.736      5.016      6.712
REMARK INTER + INTRA:          -9.756
REMARK INTER:                  -8.979
REMARK INTRA:                  -0.777
REMARK UNBOUND:                -0.663
REMARK  Name = 
REMARK  3 active torsions:
REMARK  status: ('A' for Active; 'I' for Inactive)
REMARK    1  A    between atoms: C_2  and  C_3
REMARK    2  A    between atoms: C_2  and  C_11
REMARK    3  A    between atoms: C_14  and  N_15
REMARK                            x       y       z     vdW  Elec       q    Type
REMARK                         _______ _______ _______ _____ _____    ______ ____
ROOT
ATOM      1  C   UNL     1      23.945   4.371  50.334  0.00  0.00    +0.000 A 
ATOM      2  C   UNL     1      24.168   4.437  51.714  0.00  0.00    +0.000 A 
ATOM      3  C   UNL     1      23.923   3.339  52.531  0.00  0.00    +0.000 A 
ATOM      4  C   UNL     1      23.364   2.168  52.019  0.00  0.00    +0.000 A 
ATOM      5  C   UNL     1      23.124   2.104  50.636  0.00  0.00    +0.000 A 
ATOM      6  C   UNL     1      23.400   3.196  49.797  0.00  0.00    +0.000 A 
ATOM      7 CL   UNL     1      23.040   2.984  48.119  0.00  0.00    +0.000 Cl
ENDROOT
BRANCH   4   8
ATOM      8  N   UNL     1      23.034   1.074  52.880  0.00  0.00    +0.000 N 
ATOM      9  N   UNL     1      21.706   1.043  53.263  0.00  0.00    +0.000 NA
ATOM     10  C   UNL     1      21.320   0.068  54.020  0.00  0.00    +0.000 A 
ATOM     11  C   UNL     1      22.239  -0.994  54.513  0.00  0.00    +0.000 A 
ATOM     12  O   UNL     1      21.807  -1.888  55.232  0.00  0.00    +0.000 OA
ATOM     13  N   UNL     1      23.523  -0.871  54.111  0.00  0.00    +0.000 N 
ATOM     14  C   UNL     1      23.989   0.134  53.308  0.00  0.00    +0.000 A 
ATOM     15  O   UNL     1      25.195   0.140  53.061  0.00  0.00    +0.000 OA
ATOM     16  H   UNL     1      24.168  -1.550  54.418  0.00  0.00    +0.000 HD
ENDBRANCH   4   8
BRANCH   1  18
ATOM     17  O   UNL     1      23.403   6.335  49.155  0.00  0.00    +0.000 OA
ATOM     18  C   UNL     1      24.287   5.560  49.508  0.00  0.00    +0.000 C 
BRANCH  18  19
ATOM     19  C   UNL     1      25.698   5.939  49.207  0.00  0.00    +0.000 A 
ATOM     20  C   UNL     1      26.559   4.871  48.900  0.00  0.00    +0.000 A 
ATOM     21  C   UNL     1      27.885   5.105  48.535  0.00  0.00    +0.000 A 
ATOM     22  C   UNL     1      28.355   6.410  48.457  0.00  0.00    +0.000 A 
ATOM     23 CL   UNL     1      29.984   6.707  47.996  0.00  0.00    +0.000 Cl
ATOM     24  C   UNL     1      27.524   7.481  48.774  0.00  0.00    +0.000 A 
ATOM     25  C   UNL     1      26.207   7.249  49.187  0.00  0.00    +0.000 A 
ATOM     26 CL   UNL     1      25.325   8.644  49.708  0.00  0.00    +0.000 Cl
ENDBRANCH  18  19
ENDBRANCH   1  18
TORSDOF 3
ENDMDL
