MODEL 1
REMARK VINA RESULT:    -8.852      0.000      0.000
REMARK INTER + INTRA:         -10.292
REMARK INTER:                 -10.146
REMARK INTRA:                  -0.146
REMARK UNBOUND:                -0.146
REMARK  Name = 
REMARK  3 active torsions:
REMARK  status: ('A' for Active; 'I' for Inactive)
REMARK    1  A    between atoms: C_4  and  N_5
REMARK    2  A    between atoms: C_8  and  S_9
REMARK    3  A    between atoms: S_9  and  C_12
REMARK                            x       y       z     vdW  Elec       q    Type
REMARK                         _______ _______ _______ _____ _____    ______ ____
ROOT
ATOM      1  N   UNL     1      17.899  -2.520  54.028  0.00  0.00    +0.000 N 
ATOM      2  C   UNL     1      18.861  -1.606  53.650  0.00  0.00    +0.000 A 
ATOM      3  N   UNL     1      18.519  -0.676  52.760  0.00  0.00    +0.000 NA
ATOM      4  C   UNL     1      19.474   0.187  52.391  0.00  0.00    +0.000 A 
ATOM      5  C   UNL     1      20.781   0.130  52.880  0.00  0.00    +0.000 A 
ATOM      6  C   UNL     1      21.820   1.021  52.514  0.00  0.00    +0.000 A 
ATOM      7  C   UNL     1      23.100   0.852  53.039  0.00  0.00    +0.000 A 
ATOM      8  C   UNL     1      23.359  -0.189  53.926  0.00  0.00    +0.000 A 
ATOM      9  C   UNL     1      22.315  -1.046  54.296  0.00  0.00    +0.000 A 
ATOM     10  C   UNL     1      21.029  -0.905  53.785  0.00  0.00    +0.000 A 
ATOM     11  N   UNL     1      20.080  -1.765  54.167  0.00  0.00    +0.000 NA
ATOM     12  H   UNL     1      16.983  -2.446  53.672  0.00  0.00    +0.000 HD
ATOM     13  H   UNL     1      18.127  -3.246  54.653  0.00  0.00    +0.000 HD
ENDROOT
BRANCH   4  14
ATOM     14  N   UNL     1      19.070   1.185  51.496  0.00  0.00    +0.000 N 
ATOM     15  H   UNL     1      18.147   1.527  51.524  0.00  0.00    +0.000 HD
ATOM     16  H   UNL     1      19.709   1.545  50.839  0.00  0.00    +0.000 HD
ENDBRANCH   4  14
BRANCH   7  17
ATOM     17  S   UNL     1      24.422   1.906  52.492  0.00  0.00    +0.000 S 
ATOM     18  O   UNL     1      24.318   2.012  51.049  0.00  0.00    +0.000 OA
ATOM     19  O   UNL     1      24.395   3.098  53.318  0.00  0.00    +0.000 OA
BRANCH  17  20
ATOM     20  C   UNL     1      25.938   1.049  52.854  0.00  0.00    +0.000 A 
ATOM     21  C   UNL     1      26.091  -0.279  52.450  0.00  0.00    +0.000 A 
ATOM     22  C   UNL     1      27.290  -0.943  52.718  0.00  0.00    +0.000 A 
ATOM     23  C   UNL     1      28.332  -0.280  53.376  0.00  0.00    +0.000 A 
ATOM     24 CL   UNL     1      29.779  -1.171  53.685  0.00  0.00    +0.000 Cl
ATOM     25  C   UNL     1      28.178   1.060  53.757  0.00  0.00    +0.000 A 
ATOM     26 CL   UNL     1      29.431   1.944  54.554  0.00  0.00    +0.000 Cl
ATOM     27  C   UNL     1      26.981   1.729  53.491  0.00  0.00    +0.000 A 
ENDBRANCH  17  20
ENDBRANCH   7  17
TORSDOF 3
ENDMDL
MODEL 2
REMARK VINA RESULT:    -8.684      0.931      2.016
REMARK INTER + INTRA:         -10.100
REMARK INTER:                  -9.824
REMARK INTRA:                  -0.276
REMARK UNBOUND:                -0.146
REMARK  Name = 
REMARK  3 active torsions:
REMARK  status: ('A' for Active; 'I' for Inactive)
REMARK    1  A    between atoms: C_4  and  N_5
REMARK    2  A    between atoms: C_8  and  S_9
REMARK    3  A    between atoms: S_9  and  C_12
REMARK                            x       y       z     vdW  Elec       q    Type
REMARK                         _______ _______ _______ _____ _____    ______ ____
ROOT
ATOM      1  N   UNL     1      18.103  -1.940  53.669  0.00  0.00    +0.000 N 
ATOM      2  C   UNL     1      19.334  -1.319  53.610  0.00  0.00    +0.000 A 
ATOM      3  N   UNL     1      20.288  -1.754  54.431  0.00  0.00    +0.000 NA
ATOM      4  C   UNL     1      21.469  -1.124  54.372  0.00  0.00    +0.000 A 
ATOM      5  C   UNL     1      21.714  -0.047  53.519  0.00  0.00    +0.000 A 
ATOM      6  C   UNL     1      22.946   0.649  53.428  0.00  0.00    +0.000 A 
ATOM      7  C   UNL     1      23.070   1.734  52.564  0.00  0.00    +0.000 A 
ATOM      8  C   UNL     1      21.988   2.136  51.785  0.00  0.00    +0.000 A 
ATOM      9  C   UNL     1      20.786   1.424  51.869  0.00  0.00    +0.000 A 
ATOM     10  C   UNL     1      20.630   0.339  52.726  0.00  0.00    +0.000 A 
ATOM     11  N   UNL     1      19.451  -0.289  52.770  0.00  0.00    +0.000 NA
ATOM     12  H   UNL     1      17.965  -2.704  54.275  0.00  0.00    +0.000 HD
ATOM     13  H   UNL     1      17.362  -1.618  53.106  0.00  0.00    +0.000 HD
ENDROOT
BRANCH   4  14
ATOM     14  N   UNL     1      22.467  -1.639  55.208  0.00  0.00    +0.000 N 
ATOM     15  H   UNL     1      22.519  -2.608  55.374  0.00  0.00    +0.000 HD
ATOM     16  H   UNL     1      23.118  -1.031  55.628  0.00  0.00    +0.000 HD
ENDBRANCH   4  14
BRANCH   7  17
ATOM     17  S   UNL     1      24.583   2.668  52.535  0.00  0.00    +0.000 S 
ATOM     18  O   UNL     1      24.729   3.208  51.198  0.00  0.00    +0.000 OA
ATOM     19  O   UNL     1      24.567   3.552  53.685  0.00  0.00    +0.000 OA
BRANCH  17  20
ATOM     20  C   UNL     1      25.904   1.503  52.786  0.00  0.00    +0.000 A 
ATOM     21  C   UNL     1      25.839   0.248  52.177  0.00  0.00    +0.000 A 
ATOM     22  C   UNL     1      26.886  -0.657  52.359  0.00  0.00    +0.000 A 
ATOM     23  C   UNL     1      27.996  -0.305  53.136  0.00  0.00    +0.000 A 
ATOM     24 CL   UNL     1      29.246  -1.482  53.327  0.00  0.00    +0.000 Cl
ATOM     25  C   UNL     1      28.063   0.965  53.724  0.00  0.00    +0.000 A 
ATOM     26 CL   UNL     1      29.411   1.471  54.679  0.00  0.00    +0.000 Cl
ATOM     27  C   UNL     1      27.017   1.875  53.546  0.00  0.00    +0.000 A 
ENDBRANCH  17  20
ENDBRANCH   7  17
TORSDOF 3
ENDMDL
MODEL 3
REMARK VINA RESULT:    -8.574      5.270      6.973
REMARK INTER + INTRA:          -9.973
REMARK INTER:                  -9.428
REMARK INTRA:                  -0.545
REMARK UNBOUND:                -0.146
REMARK  Name = 
REMARK  3 active torsions:
REMARK  status: ('A' for Active; 'I' for Inactive)
REMARK    1  A    between atoms: C_4  and  N_5
REMARK    2  A    between atoms: C_8  and  S_9
REMARK    3  A    between atoms: S_9  and  C_12
REMARK                            x       y       z     vdW  Elec       q    Type
REMARK                         _______ _______ _______ _____ _____    ______ ____
ROOT
ATOM      1  N   UNL     1      26.608   8.626  47.824  0.00  0.00    +0.000 N 
ATOM      2  C   UNL     1      26.096   7.665  48.672  0.00  0.00    +0.000 A 
ATOM      3  N   UNL     1      25.262   8.064  49.630  0.00  0.00    +0.000 NA
ATOM      4  C   UNL     1      24.793   7.118  50.455  0.00  0.00    +0.000 A 
ATOM      5  C   UNL     1      25.157   5.774  50.355  0.00  0.00    +0.000 A 
ATOM      6  C   UNL     1      24.687   4.744  51.208  0.00  0.00    +0.000 A 
ATOM      7  C   UNL     1      25.143   3.438  51.039  0.00  0.00    +0.000 A 
ATOM      8  C   UNL     1      26.057   3.142  50.032  0.00  0.00    +0.000 A 
ATOM      9  C   UNL     1      26.493   4.166  49.183  0.00  0.00    +0.000 A 
ATOM     10  C   UNL     1      26.059   5.480  49.330  0.00  0.00    +0.000 A 
ATOM     11  N   UNL     1      26.525   6.415  48.496  0.00  0.00    +0.000 NA
ATOM     12  H   UNL     1      26.323   9.565  47.914  0.00  0.00    +0.000 HD
ATOM     13  H   UNL     1      27.259   8.373  47.130  0.00  0.00    +0.000 HD
ENDROOT
BRANCH   4  14
ATOM     14  N   UNL     1      23.877   7.560  51.417  0.00  0.00    +0.000 N 
ATOM     15  H   UNL     1      22.910   7.468  51.257  0.00  0.00    +0.000 HD
ATOM     16  H   UNL     1      24.201   7.962  52.256  0.00  0.00    +0.000 HD
ENDBRANCH   4  14
BRANCH   7  17
ATOM     17  S   UNL     1      24.633   2.174  52.180  0.00  0.00    +0.000 S 
ATOM     18  O   UNL     1      24.123   2.842  53.362  0.00  0.00    +0.000 OA
ATOM     19  O   UNL     1      23.797   1.242  51.447  0.00  0.00    +0.000 OA
BRANCH  17  20
ATOM     20  C   UNL     1      26.104   1.297  52.658  0.00  0.00    +0.000 A 
ATOM     21  C   UNL     1      26.235  -0.055  52.334  0.00  0.00    +0.000 A 
ATOM     22  C   UNL     1      27.399  -0.737  52.693  0.00  0.00    +0.000 A 
ATOM     23  C   UNL     1      28.430  -0.068  53.362  0.00  0.00    +0.000 A 
ATOM     24 CL   UNL     1      29.834  -0.981  53.786  0.00  0.00    +0.000 Cl
ATOM     25  C   UNL     1      28.300   1.294  53.662  0.00  0.00    +0.000 A 
ATOM     26 CL   UNL     1      29.542   2.185  54.469  0.00  0.00    +0.000 Cl
ATOM     27  C   UNL     1      27.137   1.982  53.306  0.00  0.00    +0.000 A 
ENDBRANCH  17  20
ENDBRANCH   7  17
TORSDOF 3
ENDMDL
MODEL 4
REMARK VINA RESULT:    -8.545      5.521      7.244
REMARK INTER + INTRA:          -9.941
REMARK INTER:                  -9.454
REMARK INTRA:                  -0.487
REMARK UNBOUND:                -0.146
REMARK  Name = 
REMARK  3 active torsions:
REMARK  status: ('A' for Active; 'I' for Inactive)
REMARK    1  A    between atoms: C_4  and  N_5
REMARK    2  A    between atoms: C_8  and  S_9
REMARK    3  A    between atoms: S_9  and  C_12
REMARK                            x       y       z     vdW  Elec       q    Type
REMARK                         _______ _______ _______ _____ _____    ______ ____
ROOT
ATOM      1  N   UNL     1      29.842  -1.914  53.874  0.00  0.00    +0.000 N 
ATOM      2  C   UNL     1      29.011  -0.836  53.652  0.00  0.00    +0.000 A 
ATOM      3  N   UNL     1      29.456   0.372  53.994  0.00  0.00    +0.000 NA
ATOM      4  C   UNL     1      28.625   1.403  53.789  0.00  0.00    +0.000 A 
ATOM      5  C   UNL     1      27.341   1.251  53.264  0.00  0.00    +0.000 A 
ATOM      6  C   UNL     1      26.431   2.313  53.035  0.00  0.00    +0.000 A 
ATOM      7  C   UNL     1      25.158   2.044  52.537  0.00  0.00    +0.000 A 
ATOM      8  C   UNL     1      24.778   0.733  52.260  0.00  0.00    +0.000 A 
ATOM      9  C   UNL     1      25.697  -0.302  52.469  0.00  0.00    +0.000 A 
ATOM     10  C   UNL     1      26.974  -0.064  52.970  0.00  0.00    +0.000 A 
ATOM     11  N   UNL     1      27.798  -1.098  53.161  0.00  0.00    +0.000 NA
ATOM     12  H   UNL     1      30.747  -1.772  54.237  0.00  0.00    +0.000 HD
ATOM     13  H   UNL     1      29.530  -2.826  53.671  0.00  0.00    +0.000 HD
ENDROOT
BRANCH   4  14
ATOM     14  N   UNL     1      29.142   2.664  54.109  0.00  0.00    +0.000 N 
ATOM     15  H   UNL     1      29.662   2.788  54.935  0.00  0.00    +0.000 HD
ATOM     16  H   UNL     1      28.986   3.427  53.506  0.00  0.00    +0.000 HD
ENDBRANCH   4  14
BRANCH   7  17
ATOM     17  S   UNL     1      23.986   3.368  52.355  0.00  0.00    +0.000 S 
ATOM     18  O   UNL     1      22.767   2.792  51.819  0.00  0.00    +0.000 OA
ATOM     19  O   UNL     1      23.961   4.099  53.607  0.00  0.00    +0.000 OA
BRANCH  17  20
ATOM     20  C   UNL     1      24.644   4.464  51.119  0.00  0.00    +0.000 A 
ATOM     21  C   UNL     1      25.472   3.952  50.116  0.00  0.00    +0.000 A 
ATOM     22  C   UNL     1      25.972   4.811  49.135  0.00  0.00    +0.000 A 
ATOM     23  C   UNL     1      25.637   6.170  49.151  0.00  0.00    +0.000 A 
ATOM     24 CL   UNL     1      26.305   7.172  47.913  0.00  0.00    +0.000 Cl
ATOM     25  C   UNL     1      24.787   6.670  50.146  0.00  0.00    +0.000 A 
ATOM     26 CL   UNL     1      24.319   8.332  50.213  0.00  0.00    +0.000 Cl
ATOM     27  C   UNL     1      24.284   5.815  51.131  0.00  0.00    +0.000 A 
ENDBRANCH  17  20
ENDBRANCH   7  17
TORSDOF 3
ENDMDL
MODEL 5
REMARK VINA RESULT:    -8.466      5.293      7.568
REMARK INTER + INTRA:          -9.849
REMARK INTER:                  -9.523
REMARK INTRA:                  -0.327
REMARK UNBOUND:                -0.146
REMARK  Name = 
REMARK  3 active torsions:
REMARK  status: ('A' for Active; 'I' for Inactive)
REMARK    1  A    between atoms: C_4  and  N_5
REMARK    2  A    between atoms: C_8  and  S_9
REMARK    3  A    between atoms: S_9  and  C_12
REMARK                            x       y       z     vdW  Elec       q    Type
REMARK                         _______ _______ _______ _____ _____    ______ ____
ROOT
ATOM      1  N   UNL     1      30.577  -1.705  54.024  0.00  0.00    +0.000 N 
ATOM      2  C   UNL     1      29.564  -0.808  53.754  0.00  0.00    +0.000 A 
ATOM      3  N   UNL     1      29.779   0.475  54.040  0.00  0.00    +0.000 NA
ATOM      4  C   UNL     1      28.775   1.325  53.789  0.00  0.00    +0.000 A 
ATOM      5  C   UNL     1      27.543   0.917  53.274  0.00  0.00    +0.000 A 
ATOM      6  C   UNL     1      26.455   1.783  52.998  0.00  0.00    +0.000 A 
ATOM      7  C   UNL     1      25.256   1.263  52.515  0.00  0.00    +0.000 A 
ATOM      8  C   UNL     1      25.125  -0.106  52.299  0.00  0.00    +0.000 A 
ATOM      9  C   UNL     1      26.217  -0.945  52.554  0.00  0.00    +0.000 A 
ATOM     10  C   UNL     1      27.425  -0.455  53.041  0.00  0.00    +0.000 A 
ATOM     11  N   UNL     1      28.424  -1.311  53.278  0.00  0.00    +0.000 NA
ATOM     12  H   UNL     1      31.438  -1.384  54.378  0.00  0.00    +0.000 HD
ATOM     13  H   UNL     1      30.439  -2.667  53.863  0.00  0.00    +0.000 HD
ENDROOT
BRANCH   4  14
ATOM     14  N   UNL     1      29.049   2.673  54.050  0.00  0.00    +0.000 N 
ATOM     15  H   UNL     1      28.316   3.292  54.268  0.00  0.00    +0.000 HD
ATOM     16  H   UNL     1      29.977   3.001  54.018  0.00  0.00    +0.000 HD
ENDBRANCH   4  14
BRANCH   7  17
ATOM     17  S   UNL     1      23.863   2.340  52.275  0.00  0.00    +0.000 S 
ATOM     18  O   UNL     1      23.911   3.344  53.320  0.00  0.00    +0.000 OA
ATOM     19  O   UNL     1      23.857   2.735  50.879  0.00  0.00    +0.000 OA
BRANCH  17  20
ATOM     20  C   UNL     1      22.407   1.357  52.549  0.00  0.00    +0.000 A 
ATOM     21  C   UNL     1      22.267   0.653  53.747  0.00  0.00    +0.000 A 
ATOM     22  C   UNL     1      21.114  -0.102  53.969  0.00  0.00    +0.000 A 
ATOM     23  C   UNL     1      20.102  -0.145  53.002  0.00  0.00    +0.000 A 
ATOM     24 CL   UNL     1      18.712  -1.111  53.342  0.00  0.00    +0.000 Cl
ATOM     25  C   UNL     1      20.240   0.583  51.813  0.00  0.00    +0.000 A 
ATOM     26 CL   UNL     1      19.023   0.590  50.587  0.00  0.00    +0.000 Cl
ATOM     27  C   UNL     1      21.393   1.341  51.586  0.00  0.00    +0.000 A 
ENDBRANCH  17  20
ENDBRANCH   7  17
TORSDOF 3
ENDMDL
MODEL 6
REMARK VINA RESULT:    -8.197      5.111      6.897
REMARK INTER + INTRA:          -9.541
REMARK INTER:                  -8.953
REMARK INTRA:                  -0.588
REMARK UNBOUND:                -0.146
REMARK  Name = 
REMARK  3 active torsions:
REMARK  status: ('A' for Active; 'I' for Inactive)
REMARK    1  A    between atoms: C_4  and  N_5
REMARK    2  A    between atoms: C_8  and  S_9
REMARK    3  A    between atoms: S_9  and  C_12
REMARK                            x       y       z     vdW  Elec       q    Type
REMARK                         _______ _______ _______ _____ _____    ______ ____
ROOT
ATOM      1  N   UNL     1      28.431  -0.253  55.133  0.00  0.00    +0.000 N 
ATOM      2  C   UNL     1      27.466   0.218  54.268  0.00  0.00    +0.000 A 
ATOM      3  N   UNL     1      27.797   1.220  53.454  0.00  0.00    +0.000 NA
ATOM      4  C   UNL     1      26.839   1.676  52.637  0.00  0.00    +0.000 A 
ATOM      5  C   UNL     1      25.540   1.164  52.628  0.00  0.00    +0.000 A 
ATOM      6  C   UNL     1      24.497   1.620  51.783  0.00  0.00    +0.000 A 
ATOM      7  C   UNL     1      23.226   1.059  51.881  0.00  0.00    +0.000 A 
ATOM      8  C   UNL     1      22.977   0.049  52.805  0.00  0.00    +0.000 A 
ATOM      9  C   UNL     1      24.024  -0.407  53.616  0.00  0.00    +0.000 A 
ATOM     10  C   UNL     1      25.303   0.137  53.544  0.00  0.00    +0.000 A 
ATOM     11  N   UNL     1      26.254  -0.332  54.357  0.00  0.00    +0.000 NA
ATOM     12  H   UNL     1      29.341   0.122  55.108  0.00  0.00    +0.000 HD
ATOM     13  H   UNL     1      28.210  -0.965  55.777  0.00  0.00    +0.000 HD
ENDROOT
BRANCH   4  14
ATOM     14  N   UNL     1      27.232   2.691  51.757  0.00  0.00    +0.000 N 
ATOM     15  H   UNL     1      27.113   2.576  50.787  0.00  0.00    +0.000 HD
ATOM     16  H   UNL     1      27.628   3.521  52.109  0.00  0.00    +0.000 HD
ENDBRANCH   4  14
BRANCH   7  17
ATOM     17  S   UNL     1      21.898   1.711  50.895  0.00  0.00    +0.000 S 
ATOM     18  O   UNL     1      22.018   1.126  49.573  0.00  0.00    +0.000 OA
ATOM     19  O   UNL     1      20.674   1.552  51.658  0.00  0.00    +0.000 OA
BRANCH  17  20
ATOM     20  C   UNL     1      22.194   3.457  50.733  0.00  0.00    +0.000 A 
ATOM     21  C   UNL     1      21.908   4.305  51.806  0.00  0.00    +0.000 A 
ATOM     22  C   UNL     1      22.159   5.673  51.684  0.00  0.00    +0.000 A 
ATOM     23  C   UNL     1      22.703   6.188  50.501  0.00  0.00    +0.000 A 
ATOM     24 CL   UNL     1      22.973   7.891  50.419  0.00  0.00    +0.000 Cl
ATOM     25  C   UNL     1      23.008   5.326  49.439  0.00  0.00    +0.000 A 
ATOM     26 CL   UNL     1      23.697   5.892  47.959  0.00  0.00    +0.000 Cl
ATOM     27  C   UNL     1      22.758   3.956  49.555  0.00  0.00    +0.000 A 
ENDBRANCH  17  20
ENDBRANCH   7  17
TORSDOF 3
ENDMDL
MODEL 7
REMARK VINA RESULT:    -8.129      4.163      5.246
REMARK INTER + INTRA:          -9.463
REMARK INTER:                  -8.974
REMARK INTRA:                  -0.489
REMARK UNBOUND:                -0.146
REMARK  Name = 
REMARK  3 active torsions:
REMARK  status: ('A' for Active; 'I' for Inactive)
REMARK    1  A    between atoms: C_4  and  N_5
REMARK    2  A    between atoms: C_8  and  S_9
REMARK    3  A    between atoms: S_9  and  C_12
REMARK                            x       y       z     vdW  Elec       q    Type
REMARK                         _______ _______ _______ _____ _____    ______ ____
ROOT
ATOM      1  N   UNL     1      23.387  -1.915  55.896  0.00  0.00    +0.000 N 
ATOM      2  C   UNL     1      23.048  -1.030  54.894  0.00  0.00    +0.000 A 
ATOM      3  N   UNL     1      21.755  -0.876  54.613  0.00  0.00    +0.000 NA
ATOM      4  C   UNL     1      21.450  -0.028  53.622  0.00  0.00    +0.000 A 
ATOM      5  C   UNL     1      22.415   0.661  52.886  0.00  0.00    +0.000 A 
ATOM      6  C   UNL     1      22.134   1.564  51.830  0.00  0.00    +0.000 A 
ATOM      7  C   UNL     1      23.179   2.173  51.138  0.00  0.00    +0.000 A 
ATOM      8  C   UNL     1      24.500   1.901  51.485  0.00  0.00    +0.000 A 
ATOM      9  C   UNL     1      24.759   1.025  52.546  0.00  0.00    +0.000 A 
ATOM     10  C   UNL     1      23.737   0.398  53.252  0.00  0.00    +0.000 A 
ATOM     11  N   UNL     1      24.053  -0.438  54.245  0.00  0.00    +0.000 NA
ATOM     12  H   UNL     1      22.682  -2.378  56.404  0.00  0.00    +0.000 HD
ATOM     13  H   UNL     1      24.335  -2.084  56.104  0.00  0.00    +0.000 HD
ENDROOT
BRANCH   4  14
ATOM     14  N   UNL     1      20.082   0.153  53.386  0.00  0.00    +0.000 N 
ATOM     15  H   UNL     1      19.468  -0.616  53.431  0.00  0.00    +0.000 HD
ATOM     16  H   UNL     1      19.732   1.049  53.176  0.00  0.00    +0.000 HD
ENDBRANCH   4  14
BRANCH   7  17
ATOM     17  S   UNL     1      22.822   3.218  49.746  0.00  0.00    +0.000 S 
ATOM     18  O   UNL     1      23.214   2.493  48.552  0.00  0.00    +0.000 OA
ATOM     19  O   UNL     1      21.459   3.694  49.900  0.00  0.00    +0.000 OA
BRANCH  17  20
ATOM     20  C   UNL     1      23.891   4.633  49.884  0.00  0.00    +0.000 A 
ATOM     21  C   UNL     1      23.518   5.698  50.707  0.00  0.00    +0.000 A 
ATOM     22  C   UNL     1      24.368   6.800  50.829  0.00  0.00    +0.000 A 
ATOM     23  C   UNL     1      25.587   6.830  50.141  0.00  0.00    +0.000 A 
ATOM     24 CL   UNL     1      26.579   8.231  50.332  0.00  0.00    +0.000 Cl
ATOM     25  C   UNL     1      25.963   5.746  49.337  0.00  0.00    +0.000 A 
ATOM     26 CL   UNL     1      27.461   5.710  48.476  0.00  0.00    +0.000 Cl
ATOM     27  C   UNL     1      25.116   4.641  49.210  0.00  0.00    +0.000 A 
ENDBRANCH  17  20
ENDBRANCH   7  17
TORSDOF 3
ENDMDL
MODEL 8
REMARK VINA RESULT:    -8.108      1.541      2.194
REMARK INTER + INTRA:          -9.439
REMARK INTER:                  -9.040
REMARK INTRA:                  -0.400
REMARK UNBOUND:                -0.146
REMARK  Name = 
REMARK  3 active torsions:
REMARK  status: ('A' for Active; 'I' for Inactive)
REMARK    1  A    between atoms: C_4  and  N_5
REMARK    2  A    between atoms: C_8  and  S_9
REMARK    3  A    between atoms: S_9  and  C_12
REMARK                            x       y       z     vdW  Elec       q    Type
REMARK                         _______ _______ _______ _____ _____    ______ ____
ROOT
ATOM      1  N   UNL     1      16.614  -2.503  53.319  0.00  0.00    +0.000 N 
ATOM      2  C   UNL     1      17.567  -1.607  52.881  0.00  0.00    +0.000 A 
ATOM      3  N   UNL     1      17.347  -0.983  51.724  0.00  0.00    +0.000 NA
ATOM      4  C   UNL     1      18.295  -0.133  51.308  0.00  0.00    +0.000 A 
ATOM      5  C   UNL     1      19.476   0.095  52.015  0.00  0.00    +0.000 A 
ATOM      6  C   UNL     1      20.504   0.983  51.608  0.00  0.00    +0.000 A 
ATOM      7  C   UNL     1      21.659   1.109  52.376  0.00  0.00    +0.000 A 
ATOM      8  C   UNL     1      21.806   0.369  53.545  0.00  0.00    +0.000 A 
ATOM      9  C   UNL     1      20.771  -0.485  53.946  0.00  0.00    +0.000 A 
ATOM     10  C   UNL     1      19.608  -0.636  53.198  0.00  0.00    +0.000 A 
ATOM     11  N   UNL     1      18.664  -1.479  53.628  0.00  0.00    +0.000 NA
ATOM     12  H   UNL     1      15.786  -2.634  52.802  0.00  0.00    +0.000 HD
ATOM     13  H   UNL     1      16.762  -3.012  54.150  0.00  0.00    +0.000 HD
ENDROOT
BRANCH   4  14
ATOM     14  N   UNL     1      18.011   0.546  50.117  0.00  0.00    +0.000 N 
ATOM     15  H   UNL     1      18.086   1.527  50.079  0.00  0.00    +0.000 HD
ATOM     16  H   UNL     1      17.737   0.042  49.316  0.00  0.00    +0.000 HD
ENDBRANCH   4  14
BRANCH   7  17
ATOM     17  S   UNL     1      22.988   2.141  51.802  0.00  0.00    +0.000 S 
ATOM     18  O   UNL     1      23.126   1.912  50.377  0.00  0.00    +0.000 OA
ATOM     19  O   UNL     1      22.748   3.479  52.310  0.00  0.00    +0.000 OA
BRANCH  17  20
ATOM     20  C   UNL     1      24.470   1.541  52.582  0.00  0.00    +0.000 A 
ATOM     21  C   UNL     1      25.115   2.334  53.534  0.00  0.00    +0.000 A 
ATOM     22  C   UNL     1      26.268   1.853  54.159  0.00  0.00    +0.000 A 
ATOM     23  C   UNL     1      26.765   0.584  53.842  0.00  0.00    +0.000 A 
ATOM     24 CL   UNL     1      28.202   0.063  54.646  0.00  0.00    +0.000 Cl
ATOM     25  C   UNL     1      26.098  -0.214  52.903  0.00  0.00    +0.000 A 
ATOM     26 CL   UNL     1      26.646  -1.796  52.479  0.00  0.00    +0.000 Cl
ATOM     27  C   UNL     1      24.944   0.263  52.273  0.00  0.00    +0.000 A 
ENDBRANCH  17  20
ENDBRANCH   7  17
TORSDOF 3
ENDMDL
MODEL 9
REMARK VINA RESULT:    -8.091      4.484      5.803
REMARK INTER + INTRA:          -9.420
REMARK INTER:                  -8.931
REMARK INTRA:                  -0.489
REMARK UNBOUND:                -0.146
REMARK  Name = 
REMARK  3 active torsions:
REMARK  status: ('A' for Active; 'I' for Inactive)
REMARK    1  A    between atoms: C_4  and  N_5
REMARK    2  A    between atoms: C_8  and  S_9
REMARK    3  A    between atoms: S_9  and  C_12
REMARK                            x       y       z     vdW  Elec       q    Type
REMARK                         _______ _______ _______ _____ _____    ______ ____
ROOT
ATOM      1  N   UNL     1      24.982  -1.534  55.919  0.00  0.00    +0.000 N 
ATOM      2  C   UNL     1      24.783  -0.748  54.803  0.00  0.00    +0.000 A 
ATOM      3  N   UNL     1      25.816  -0.039  54.352  0.00  0.00    +0.000 NA
ATOM      4  C   UNL     1      25.594   0.733  53.279  0.00  0.00    +0.000 A 
ATOM      5  C   UNL     1      24.350   0.830  52.655  0.00  0.00    +0.000 A 
ATOM      6  C   UNL     1      24.073   1.636  51.522  0.00  0.00    +0.000 A 
ATOM      7  C   UNL     1      22.783   1.682  50.999  0.00  0.00    +0.000 A 
ATOM      8  C   UNL     1      21.764   0.936  51.583  0.00  0.00    +0.000 A 
ATOM      9  C   UNL     1      22.059   0.126  52.686  0.00  0.00    +0.000 A 
ATOM     10  C   UNL     1      23.337   0.062  53.234  0.00  0.00    +0.000 A 
ATOM     11  N   UNL     1      23.549  -0.719  54.298  0.00  0.00    +0.000 NA
ATOM     12  H   UNL     1      25.875  -1.588  56.331  0.00  0.00    +0.000 HD
ATOM     13  H   UNL     1      24.230  -2.041  56.305  0.00  0.00    +0.000 HD
ENDROOT
BRANCH   4  14
ATOM     14  N   UNL     1      26.712   1.425  52.797  0.00  0.00    +0.000 N 
ATOM     15  H   UNL     1      27.598   0.997  52.807  0.00  0.00    +0.000 HD
ATOM     16  H   UNL     1      26.611   2.340  52.446  0.00  0.00    +0.000 HD
ENDBRANCH   4  14
BRANCH   7  17
ATOM     17  S   UNL     1      22.421   2.778  49.647  0.00  0.00    +0.000 S 
ATOM     18  O   UNL     1      22.794   2.091  48.425  0.00  0.00    +0.000 OA
ATOM     19  O   UNL     1      21.066   3.261  49.832  0.00  0.00    +0.000 OA
BRANCH  17  20
ATOM     20  C   UNL     1      23.506   4.177  49.822  0.00  0.00    +0.000 A 
ATOM     21  C   UNL     1      23.085   5.285  50.561  0.00  0.00    +0.000 A 
ATOM     22  C   UNL     1      23.945   6.374  50.713  0.00  0.00    +0.000 A 
ATOM     23  C   UNL     1      25.222   6.351  50.139  0.00  0.00    +0.000 A 
ATOM     24 CL   UNL     1      26.224   7.740  50.360  0.00  0.00    +0.000 Cl
ATOM     25  C   UNL     1      25.644   5.225  49.420  0.00  0.00    +0.000 A 
ATOM     26 CL   UNL     1      27.212   5.122  48.702  0.00  0.00    +0.000 Cl
ATOM     27  C   UNL     1      24.787   4.132  49.263  0.00  0.00    +0.000 A 
ENDBRANCH  17  20
ENDBRANCH   7  17
TORSDOF 3
ENDMDL
