MODEL 1
REMARK VINA RESULT:    -9.437      0.000      0.000
REMARK INTER + INTRA:         -11.179
REMARK INTER:                 -10.816
REMARK INTRA:                  -0.363
REMARK UNBOUND:                -0.363
REMARK  Name = 
REMARK  9 active torsions:
REMARK  status: ('A' for Active; 'I' for Inactive)
REMARK    1  A    between atoms: C_1  and  C_2
REMARK    2  A    between atoms: C_2  and  C_3
REMARK    3  A    between atoms: C_3  and  C_4
REMARK    4  A    between atoms: C_16  and  C_17
REMARK    5  A    between atoms: C_16  and  C_18
REMARK    6  A    between atoms: C_22  and  C_23
REMARK    7  A    between atoms: C_24  and  C_25
REMARK    8  A    between atoms: C_24  and  C_26
REMARK    9  A    between atoms: C_27  and  O_28
REMARK                            x       y       z     vdW  Elec       q    Type
REMARK                         _______ _______ _______ _____ _____    ______ ____
ROOT
ATOM      1  C   UNL     1      22.102   0.804  52.838  0.00  0.00    +0.000 A 
ATOM      2  C   UNL     1      20.866   1.314  52.590  0.00  0.00    +0.000 A 
ATOM      3  C   UNL     1      20.593   2.735  52.377  0.00  0.00    +0.000 A 
ATOM      4  O   UNL     1      19.459   3.171  52.198  0.00  0.00    +0.000 OA
ATOM      5  O   UNL     1      21.698   3.530  52.342  0.00  0.00    +0.000 OA
ATOM      6  C   UNL     1      22.911   2.882  52.135  0.00  0.00    +0.000 A 
ATOM      7  C   UNL     1      23.664   3.353  51.096  0.00  0.00    +0.000 A 
ATOM      8  C   UNL     1      25.028   3.214  51.150  0.00  0.00    +0.000 A 
ATOM      9  C   UNL     1      25.552   2.349  52.112  0.00  0.00    +0.000 A 
ATOM     10  C   UNL     1      24.679   1.475  52.818  0.00  0.00    +0.000 A 
ATOM     11  C   UNL     1      23.283   1.705  52.743  0.00  0.00    +0.000 A 
ATOM     12  O   UNL     1      25.170   0.456  53.605  0.00  0.00    +0.000 OA
ATOM     13  C   UNL     1      26.604   0.189  53.592  0.00  0.00    +0.000 C 
ATOM     14  C   UNL     1      27.047  -0.141  55.029  0.00  0.00    +0.000 C 
ATOM     15  C   UNL     1      26.848  -1.036  52.704  0.00  0.00    +0.000 C 
ATOM     16  C   UNL     1      27.471   1.315  53.080  0.00  0.00    +0.000 C 
ATOM     17  C   UNL     1      26.985   2.316  52.354  0.00  0.00    +0.000 C 
ATOM     18  O   UNL     1      25.822   3.947  50.313  0.00  0.00    +0.000 OA
ATOM     19  C   UNL     1      25.201   4.636  49.189  0.00  0.00    +0.000 C 
ATOM     20  C   UNL     1      26.075   5.857  48.916  0.00  0.00    +0.000 C 
ATOM     21  C   UNL     1      23.693   5.017  49.330  0.00  0.00    +0.000 C 
ATOM     22  C   UNL     1      23.435   6.186  50.308  0.00  0.00    +0.000 C 
ATOM     23  C   UNL     1      23.067   5.364  47.964  0.00  0.00    +0.000 C 
ATOM     24  C   UNL     1      22.970   3.801  49.863  0.00  0.00    +0.000 C 
ENDROOT
BRANCH  24  25
ATOM     25  O   UNL     1      23.006   2.712  48.931  0.00  0.00    +0.000 OA
ATOM     26  H   UNL     1      23.419   3.007  48.104  0.00  0.00    +0.000 HD
ENDBRANCH  24  25
BRANCH   1  27
ATOM     27  C   UNL     1      22.221  -0.690  52.825  0.00  0.00    +0.000 C 
BRANCH  27  29
ATOM     28  C   UNL     1      22.725  -1.480  55.153  0.00  0.00    +0.000 C 
ATOM     29  C   UNL     1      21.649  -1.323  54.087  0.00  0.00    +0.000 C 
ENDBRANCH  27  29
ENDBRANCH   1  27
TORSDOF 3
ENDMDL
MODEL 2
REMARK VINA RESULT:    -8.374      1.956      5.438
REMARK INTER + INTRA:          -9.961
REMARK INTER:                  -9.593
REMARK INTRA:                  -0.368
REMARK UNBOUND:                -0.363
REMARK  Name = 
REMARK  9 active torsions:
REMARK  status: ('A' for Active; 'I' for Inactive)
REMARK    1  A    between atoms: C_1  and  C_2
REMARK    2  A    between atoms: C_2  and  C_3
REMARK    3  A    between atoms: C_3  and  C_4
REMARK    4  A    between atoms: C_16  and  C_17
REMARK    5  A    between atoms: C_16  and  C_18
REMARK    6  A    between atoms: C_22  and  C_23
REMARK    7  A    between atoms: C_24  and  C_25
REMARK    8  A    between atoms: C_24  and  C_26
REMARK    9  A    between atoms: C_27  and  O_28
REMARK                            x       y       z     vdW  Elec       q    Type
REMARK                         _______ _______ _______ _____ _____    ______ ____
ROOT
ATOM      1  C   UNL     1      23.640   3.626  49.815  0.00  0.00    +0.000 A 
ATOM      2  C   UNL     1      22.806   4.178  48.894  0.00  0.00    +0.000 A 
ATOM      3  C   UNL     1      21.654   3.489  48.314  0.00  0.00    +0.000 A 
ATOM      4  O   UNL     1      20.943   3.998  47.452  0.00  0.00    +0.000 OA
ATOM      5  O   UNL     1      21.399   2.259  48.841  0.00  0.00    +0.000 OA
ATOM      6  C   UNL     1      21.995   1.984  50.068  0.00  0.00    +0.000 A 
ATOM      7  C   UNL     1      21.148   1.574  51.059  0.00  0.00    +0.000 A 
ATOM      8  C   UNL     1      21.636   0.766  52.054  0.00  0.00    +0.000 A 
ATOM      9  C   UNL     1      23.021   0.642  52.167  0.00  0.00    +0.000 A 
ATOM     10  C   UNL     1      23.864   1.523  51.433  0.00  0.00    +0.000 A 
ATOM     11  C   UNL     1      23.293   2.299  50.395  0.00  0.00    +0.000 A 
ATOM     12  O   UNL     1      25.218   1.590  51.681  0.00  0.00    +0.000 OA
ATOM     13  C   UNL     1      25.761   0.845  52.813  0.00  0.00    +0.000 C 
ATOM     14  C   UNL     1      27.112   0.241  52.391  0.00  0.00    +0.000 C 
ATOM     15  C   UNL     1      25.997   1.836  53.959  0.00  0.00    +0.000 C 
ATOM     16  C   UNL     1      24.889  -0.272  53.336  0.00  0.00    +0.000 C 
ATOM     17  C   UNL     1      23.591  -0.351  53.061  0.00  0.00    +0.000 C 
ATOM     18  O   UNL     1      20.772   0.078  52.861  0.00  0.00    +0.000 OA
ATOM     19  C   UNL     1      19.360   0.442  52.838  0.00  0.00    +0.000 C 
ATOM     20  C   UNL     1      18.597  -0.833  53.190  0.00  0.00    +0.000 C 
ATOM     21  C   UNL     1      18.814   1.109  51.537  0.00  0.00    +0.000 C 
ATOM     22  C   UNL     1      18.675   0.133  50.347  0.00  0.00    +0.000 C 
ATOM     23  C   UNL     1      17.454   1.794  51.779  0.00  0.00    +0.000 C 
ATOM     24  C   UNL     1      19.798   2.186  51.137  0.00  0.00    +0.000 C 
ENDROOT
BRANCH  24  25
ATOM     25  O   UNL     1      19.859   3.236  52.112  0.00  0.00    +0.000 OA
ATOM     26  H   UNL     1      18.975   3.385  52.483  0.00  0.00    +0.000 HD
ENDBRANCH  24  25
BRANCH   1  27
ATOM     27  C   UNL     1      24.640   4.549  50.445  0.00  0.00    +0.000 C 
BRANCH  27  29
ATOM     28  C   UNL     1      26.804   3.804  49.416  0.00  0.00    +0.000 C 
ATOM     29  C   UNL     1      25.766   4.916  49.488  0.00  0.00    +0.000 C 
ENDBRANCH  27  29
ENDBRANCH   1  27
TORSDOF 3
ENDMDL
MODEL 3
REMARK VINA RESULT:    -8.129      1.539      4.605
REMARK INTER + INTRA:          -9.680
REMARK INTER:                  -9.311
REMARK INTRA:                  -0.369
REMARK UNBOUND:                -0.363
REMARK  Name = 
REMARK  9 active torsions:
REMARK  status: ('A' for Active; 'I' for Inactive)
REMARK    1  A    between atoms: C_1  and  C_2
REMARK    2  A    between atoms: C_2  and  C_3
REMARK    3  A    between atoms: C_3  and  C_4
REMARK    4  A    between atoms: C_16  and  C_17
REMARK    5  A    between atoms: C_16  and  C_18
REMARK    6  A    between atoms: C_22  and  C_23
REMARK    7  A    between atoms: C_24  and  C_25
REMARK    8  A    between atoms: C_24  and  C_26
REMARK    9  A    between atoms: C_27  and  O_28
REMARK                            x       y       z     vdW  Elec       q    Type
REMARK                         _______ _______ _______ _____ _____    ______ ____
ROOT
ATOM      1  C   UNL     1      25.591   1.678  52.211  0.00  0.00    +0.000 A 
ATOM      2  C   UNL     1      26.484   2.455  51.545  0.00  0.00    +0.000 A 
ATOM      3  C   UNL     1      26.197   3.138  50.284  0.00  0.00    +0.000 A 
ATOM      4  O   UNL     1      27.039   3.800  49.682  0.00  0.00    +0.000 OA
ATOM      5  O   UNL     1      24.910   3.026  49.853  0.00  0.00    +0.000 OA
ATOM      6  C   UNL     1      23.979   2.627  50.807  0.00  0.00    +0.000 A 
ATOM      7  C   UNL     1      22.894   3.445  50.954  0.00  0.00    +0.000 A 
ATOM      8  C   UNL     1      21.712   2.903  51.392  0.00  0.00    +0.000 A 
ATOM      9  C   UNL     1      21.751   1.620  51.939  0.00  0.00    +0.000 A 
ATOM     10  C   UNL     1      23.008   1.028  52.246  0.00  0.00    +0.000 A 
ATOM     11  C   UNL     1      24.183   1.625  51.727  0.00  0.00    +0.000 A 
ATOM     12  O   UNL     1      23.091  -0.131  52.988  0.00  0.00    +0.000 OA
ATOM     13  C   UNL     1      21.873  -0.672  53.582  0.00  0.00    +0.000 C 
ATOM     14  C   UNL     1      21.912  -2.205  53.453  0.00  0.00    +0.000 C 
ATOM     15  C   UNL     1      21.868  -0.298  55.069  0.00  0.00    +0.000 C 
ATOM     16  C   UNL     1      20.580  -0.182  52.975  0.00  0.00    +0.000 C 
ATOM     17  C   UNL     1      20.513   0.916  52.228  0.00  0.00    +0.000 C 
ATOM     18  O   UNL     1      20.545   3.599  51.240  0.00  0.00    +0.000 OA
ATOM     19  C   UNL     1      20.617   5.011  50.886  0.00  0.00    +0.000 C 
ATOM     20  C   UNL     1      19.339   5.310  50.107  0.00  0.00    +0.000 C 
ATOM     21  C   UNL     1      21.892   5.493  50.125  0.00  0.00    +0.000 C 
ATOM     22  C   UNL     1      21.951   5.029  48.652  0.00  0.00    +0.000 C 
ATOM     23  C   UNL     1      22.030   7.029  50.168  0.00  0.00    +0.000 C 
ATOM     24  C   UNL     1      23.090   4.911  50.841  0.00  0.00    +0.000 C 
ENDROOT
BRANCH  24  25
ATOM     25  O   UNL     1      23.217   5.432  52.171  0.00  0.00    +0.000 OA
ATOM     26  H   UNL     1      23.677   4.785  52.729  0.00  0.00    +0.000 HD
ENDBRANCH  24  25
BRANCH   1  27
ATOM     27  C   UNL     1      25.992   1.229  53.584  0.00  0.00    +0.000 C 
BRANCH  27  29
ATOM     28  C   UNL     1      26.498  -1.105  52.812  0.00  0.00    +0.000 C 
ATOM     29  C   UNL     1      27.034   0.119  53.544  0.00  0.00    +0.000 C 
ENDBRANCH  27  29
ENDBRANCH   1  27
TORSDOF 3
ENDMDL
MODEL 4
REMARK VINA RESULT:    -7.727      1.563      5.582
REMARK INTER + INTRA:          -9.219
REMARK INTER:                  -8.859
REMARK INTRA:                  -0.360
REMARK UNBOUND:                -0.363
REMARK  Name = 
REMARK  9 active torsions:
REMARK  status: ('A' for Active; 'I' for Inactive)
REMARK    1  A    between atoms: C_1  and  C_2
REMARK    2  A    between atoms: C_2  and  C_3
REMARK    3  A    between atoms: C_3  and  C_4
REMARK    4  A    between atoms: C_16  and  C_17
REMARK    5  A    between atoms: C_16  and  C_18
REMARK    6  A    between atoms: C_22  and  C_23
REMARK    7  A    between atoms: C_24  and  C_25
REMARK    8  A    between atoms: C_24  and  C_26
REMARK    9  A    between atoms: C_27  and  O_28
REMARK                            x       y       z     vdW  Elec       q    Type
REMARK                         _______ _______ _______ _____ _____    ______ ____
ROOT
ATOM      1  C   UNL     1      22.101   2.209  52.366  0.00  0.00    +0.000 A 
ATOM      2  C   UNL     1      21.672   1.144  53.094  0.00  0.00    +0.000 A 
ATOM      3  C   UNL     1      22.376  -0.136  53.167  0.00  0.00    +0.000 A 
ATOM      4  O   UNL     1      21.943  -1.095  53.800  0.00  0.00    +0.000 OA
ATOM      5  O   UNL     1      23.576  -0.166  52.523  0.00  0.00    +0.000 OA
ATOM      6  C   UNL     1      24.138   1.070  52.219  0.00  0.00    +0.000 A 
ATOM      7  C   UNL     1      25.416   1.264  52.662  0.00  0.00    +0.000 A 
ATOM      8  C   UNL     1      26.231   2.128  51.974  0.00  0.00    +0.000 A 
ATOM      9  C   UNL     1      25.633   2.978  51.042  0.00  0.00    +0.000 A 
ATOM     10  C   UNL     1      24.215   3.097  51.012  0.00  0.00    +0.000 A 
ATOM     11  C   UNL     1      23.440   2.144  51.718  0.00  0.00    +0.000 A 
ATOM     12  O   UNL     1      23.596   4.081  50.272  0.00  0.00    +0.000 OA
ATOM     13  C   UNL     1      24.421   5.098  49.629  0.00  0.00    +0.000 C 
ATOM     14  C   UNL     1      23.829   5.392  48.239  0.00  0.00    +0.000 C 
ATOM     15  C   UNL     1      24.347   6.372  50.480  0.00  0.00    +0.000 C 
ATOM     16  C   UNL     1      25.877   4.740  49.453  0.00  0.00    +0.000 C 
ATOM     17  C   UNL     1      26.460   3.764  50.142  0.00  0.00    +0.000 C 
ATOM     18  O   UNL     1      27.582   2.100  52.178  0.00  0.00    +0.000 OA
ATOM     19  C   UNL     1      28.098   1.364  53.326  0.00  0.00    +0.000 C 
ATOM     20  C   UNL     1      29.494   0.895  52.926  0.00  0.00    +0.000 C 
ATOM     21  C   UNL     1      27.224   0.194  53.876  0.00  0.00    +0.000 C 
ATOM     22  C   UNL     1      27.212  -1.056  52.966  0.00  0.00    +0.000 C 
ATOM     23  C   UNL     1      27.667  -0.228  55.292  0.00  0.00    +0.000 C 
ATOM     24  C   UNL     1      25.804   0.703  53.980  0.00  0.00    +0.000 C 
ENDROOT
BRANCH  24  25
ATOM     25  O   UNL     1      25.688   1.756  54.946  0.00  0.00    +0.000 OA
ATOM     26  H   UNL     1      26.454   1.736  55.541  0.00  0.00    +0.000 HD
ENDBRANCH  24  25
BRANCH   1  27
ATOM     27  C   UNL     1      21.364   3.497  52.573  0.00  0.00    +0.000 C 
BRANCH  27  29
ATOM     28  C   UNL     1      20.151   4.573  50.658  0.00  0.00    +0.000 C 
ATOM     29  C   UNL     1      20.064   3.550  51.782  0.00  0.00    +0.000 C 
ENDBRANCH  27  29
ENDBRANCH   1  27
TORSDOF 3
ENDMDL
MODEL 5
REMARK VINA RESULT:    -7.507      2.023      5.066
REMARK INTER + INTRA:          -8.967
REMARK INTER:                  -8.760
REMARK INTRA:                  -0.206
REMARK UNBOUND:                -0.363
REMARK  Name = 
REMARK  9 active torsions:
REMARK  status: ('A' for Active; 'I' for Inactive)
REMARK    1  A    between atoms: C_1  and  C_2
REMARK    2  A    between atoms: C_2  and  C_3
REMARK    3  A    between atoms: C_3  and  C_4
REMARK    4  A    between atoms: C_16  and  C_17
REMARK    5  A    between atoms: C_16  and  C_18
REMARK    6  A    between atoms: C_22  and  C_23
REMARK    7  A    between atoms: C_24  and  C_25
REMARK    8  A    between atoms: C_24  and  C_26
REMARK    9  A    between atoms: C_27  and  O_28
REMARK                            x       y       z     vdW  Elec       q    Type
REMARK                         _______ _______ _______ _____ _____    ______ ____
ROOT
ATOM      1  C   UNL     1      23.302   1.376  52.178  0.00  0.00    +0.000 A 
ATOM      2  C   UNL     1      24.643   1.375  52.399  0.00  0.00    +0.000 A 
ATOM      3  C   UNL     1      25.622   1.992  51.503  0.00  0.00    +0.000 A 
ATOM      4  O   UNL     1      26.832   1.938  51.707  0.00  0.00    +0.000 OA
ATOM      5  O   UNL     1      25.086   2.674  50.454  0.00  0.00    +0.000 OA
ATOM      6  C   UNL     1      23.742   3.013  50.567  0.00  0.00    +0.000 A 
ATOM      7  C   UNL     1      23.448   4.337  50.394  0.00  0.00    +0.000 A 
ATOM      8  C   UNL     1      22.207   4.683  49.926  0.00  0.00    +0.000 A 
ATOM      9  C   UNL     1      21.216   3.700  49.927  0.00  0.00    +0.000 A 
ATOM     10  C   UNL     1      21.443   2.480  50.623  0.00  0.00    +0.000 A 
ATOM     11  C   UNL     1      22.761   2.174  51.044  0.00  0.00    +0.000 A 
ATOM     12  O   UNL     1      20.422   1.581  50.843  0.00  0.00    +0.000 OA
ATOM     13  C   UNL     1      19.062   1.962  50.477  0.00  0.00    +0.000 C 
ATOM     14  C   UNL     1      18.363   0.734  49.868  0.00  0.00    +0.000 C 
ATOM     15  C   UNL     1      18.325   2.368  51.759  0.00  0.00    +0.000 C 
ATOM     16  C   UNL     1      18.947   3.104  49.494  0.00  0.00    +0.000 C 
ATOM     17  C   UNL     1      19.950   3.944  49.259  0.00  0.00    +0.000 C 
ATOM     18  O   UNL     1      21.989   5.940  49.434  0.00  0.00    +0.000 OA
ATOM     19  C   UNL     1      22.991   6.970  49.685  0.00  0.00    +0.000 C 
ATOM     20  C   UNL     1      22.893   7.940  48.511  0.00  0.00    +0.000 C 
ATOM     21  C   UNL     1      24.457   6.494  49.930  0.00  0.00    +0.000 C 
ATOM     22  C   UNL     1      25.169   5.986  48.656  0.00  0.00    +0.000 C 
ATOM     23  C   UNL     1      25.314   7.608  50.566  0.00  0.00    +0.000 C 
ATOM     24  C   UNL     1      24.400   5.349  50.915  0.00  0.00    +0.000 C 
ENDROOT
BRANCH  24  25
ATOM     25  O   UNL     1      23.915   5.775  52.196  0.00  0.00    +0.000 OA
ATOM     26  H   UNL     1      24.170   5.126  52.871  0.00  0.00    +0.000 HD
ENDBRANCH  24  25
BRANCH   1  27
ATOM     27  C   UNL     1      22.443   0.879  53.301  0.00  0.00    +0.000 C 
BRANCH  27  29
ATOM     28  C   UNL     1      21.784  -1.075  54.731  0.00  0.00    +0.000 C 
ATOM     29  C   UNL     1      22.644  -0.607  53.565  0.00  0.00    +0.000 C 
ENDBRANCH  27  29
ENDBRANCH   1  27
TORSDOF 3
ENDMDL
MODEL 6
REMARK VINA RESULT:    -7.424      2.505      6.161
REMARK INTER + INTRA:          -8.872
REMARK INTER:                  -8.388
REMARK INTRA:                  -0.484
REMARK UNBOUND:                -0.363
REMARK  Name = 
REMARK  9 active torsions:
REMARK  status: ('A' for Active; 'I' for Inactive)
REMARK    1  A    between atoms: C_1  and  C_2
REMARK    2  A    between atoms: C_2  and  C_3
REMARK    3  A    between atoms: C_3  and  C_4
REMARK    4  A    between atoms: C_16  and  C_17
REMARK    5  A    between atoms: C_16  and  C_18
REMARK    6  A    between atoms: C_22  and  C_23
REMARK    7  A    between atoms: C_24  and  C_25
REMARK    8  A    between atoms: C_24  and  C_26
REMARK    9  A    between atoms: C_27  and  O_28
REMARK                            x       y       z     vdW  Elec       q    Type
REMARK                         _______ _______ _______ _____ _____    ______ ____
ROOT
ATOM      1  C   UNL     1      19.695   4.666  50.265  0.00  0.00    +0.000 A 
ATOM      2  C   UNL     1      20.483   5.771  50.182  0.00  0.00    +0.000 A 
ATOM      3  C   UNL     1      21.583   6.065  51.100  0.00  0.00    +0.000 A 
ATOM      4  O   UNL     1      22.251   7.093  51.026  0.00  0.00    +0.000 OA
ATOM      5  O   UNL     1      21.843   5.086  52.012  0.00  0.00    +0.000 OA
ATOM      6  C   UNL     1      21.317   3.830  51.727  0.00  0.00    +0.000 A 
ATOM      7  C   UNL     1      22.214   2.799  51.728  0.00  0.00    +0.000 A 
ATOM      8  C   UNL     1      21.771   1.536  52.028  0.00  0.00    +0.000 A 
ATOM      9  C   UNL     1      20.393   1.318  52.032  0.00  0.00    +0.000 A 
ATOM     10  C   UNL     1      19.526   2.312  51.497  0.00  0.00    +0.000 A 
ATOM     11  C   UNL     1      20.048   3.604  51.247  0.00  0.00    +0.000 A 
ATOM     12  O   UNL     1      18.191   2.050  51.273  0.00  0.00    +0.000 OA
ATOM     13  C   UNL     1      17.703   0.688  51.457  0.00  0.00    +0.000 C 
ATOM     14  C   UNL     1      16.316   0.756  52.121  0.00  0.00    +0.000 C 
ATOM     15  C   UNL     1      17.559   0.048  50.071  0.00  0.00    +0.000 C 
ATOM     16  C   UNL     1      18.581  -0.211  52.296  0.00  0.00    +0.000 C 
ATOM     17  C   UNL     1      19.858   0.066  52.540  0.00  0.00    +0.000 C 
ATOM     18  O   UNL     1      22.668   0.559  52.359  0.00  0.00    +0.000 OA
ATOM     19  C   UNL     1      24.083   0.796  52.101  0.00  0.00    +0.000 C 
ATOM     20  C   UNL     1      24.838  -0.017  53.148  0.00  0.00    +0.000 C 
ATOM     21  C   UNL     1      24.562   2.281  52.057  0.00  0.00    +0.000 C 
ATOM     22  C   UNL     1      24.608   2.962  53.444  0.00  0.00    +0.000 C 
ATOM     23  C   UNL     1      25.950   2.409  51.395  0.00  0.00    +0.000 C 
ATOM     24  C   UNL     1      23.579   3.046  51.200  0.00  0.00    +0.000 C 
ENDROOT
BRANCH  24  25
ATOM     25  O   UNL     1      23.601   2.595  49.839  0.00  0.00    +0.000 OA
ATOM     26  H   UNL     1      23.555   1.626  49.818  0.00  0.00    +0.000 HD
ENDBRANCH  24  25
BRANCH   1  27
ATOM     27  C   UNL     1      18.756   4.431  49.121  0.00  0.00    +0.000 C 
BRANCH  27  29
ATOM     28  C   UNL     1      20.088   2.737  47.835  0.00  0.00    +0.000 C 
ATOM     29  C   UNL     1      19.495   4.139  47.822  0.00  0.00    +0.000 C 
ENDBRANCH  27  29
ENDBRANCH   1  27
TORSDOF 3
ENDMDL
MODEL 7
REMARK VINA RESULT:    -7.401      1.930      3.039
REMARK INTER + INTRA:          -8.846
REMARK INTER:                  -8.496
REMARK INTRA:                  -0.350
REMARK UNBOUND:                -0.363
REMARK  Name = 
REMARK  9 active torsions:
REMARK  status: ('A' for Active; 'I' for Inactive)
REMARK    1  A    between atoms: C_1  and  C_2
REMARK    2  A    between atoms: C_2  and  C_3
REMARK    3  A    between atoms: C_3  and  C_4
REMARK    4  A    between atoms: C_16  and  C_17
REMARK    5  A    between atoms: C_16  and  C_18
REMARK    6  A    between atoms: C_22  and  C_23
REMARK    7  A    between atoms: C_24  and  C_25
REMARK    8  A    between atoms: C_24  and  C_26
REMARK    9  A    between atoms: C_27  and  O_28
REMARK                            x       y       z     vdW  Elec       q    Type
REMARK                         _______ _______ _______ _____ _____    ______ ____
ROOT
ATOM      1  C   UNL     1      18.970   1.476  51.636  0.00  0.00    +0.000 A 
ATOM      2  C   UNL     1      18.117   2.370  51.068  0.00  0.00    +0.000 A 
ATOM      3  C   UNL     1      18.387   3.803  50.954  0.00  0.00    +0.000 A 
ATOM      4  O   UNL     1      17.579   4.593  50.475  0.00  0.00    +0.000 OA
ATOM      5  O   UNL     1      19.625   4.186  51.374  0.00  0.00    +0.000 OA
ATOM      6  C   UNL     1      20.572   3.174  51.490  0.00  0.00    +0.000 A 
ATOM      7  C   UNL     1      21.742   3.377  50.814  0.00  0.00    +0.000 A 
ATOM      8  C   UNL     1      22.889   2.792  51.285  0.00  0.00    +0.000 A 
ATOM      9  C   UNL     1      22.757   1.793  52.251  0.00  0.00    +0.000 A 
ATOM     10  C   UNL     1      21.469   1.253  52.527  0.00  0.00    +0.000 A 
ATOM     11  C   UNL     1      20.329   1.935  52.036  0.00  0.00    +0.000 A 
ATOM     12  O   UNL     1      21.319   0.121  53.299  0.00  0.00    +0.000 OA
ATOM     13  C   UNL     1      22.513  -0.607  53.716  0.00  0.00    +0.000 C 
ATOM     14  C   UNL     1      22.311  -1.078  55.166  0.00  0.00    +0.000 C 
ATOM     15  C   UNL     1      22.656  -1.835  52.809  0.00  0.00    +0.000 C 
ATOM     16  C   UNL     1      23.806   0.171  53.651  0.00  0.00    +0.000 C 
ATOM     17  C   UNL     1      23.934   1.284  52.935  0.00  0.00    +0.000 C 
ATOM     18  O   UNL     1      24.109   3.227  50.845  0.00  0.00    +0.000 OA
ATOM     19  C   UNL     1      24.157   4.094  49.674  0.00  0.00    +0.000 C 
ATOM     20  C   UNL     1      25.403   4.957  49.848  0.00  0.00    +0.000 C 
ATOM     21  C   UNL     1      22.889   4.953  49.368  0.00  0.00    +0.000 C 
ATOM     22  C   UNL     1      22.685   6.132  50.346  0.00  0.00    +0.000 C 
ATOM     23  C   UNL     1      22.911   5.501  47.927  0.00  0.00    +0.000 C 
ATOM     24  C   UNL     1      21.689   4.041  49.488  0.00  0.00    +0.000 C 
ENDROOT
BRANCH  24  25
ATOM     25  O   UNL     1      21.705   3.011  48.490  0.00  0.00    +0.000 OA
ATOM     26  H   UNL     1      21.422   3.380  47.639  0.00  0.00    +0.000 HD
ENDBRANCH  24  25
BRANCH   1  27
ATOM     27  C   UNL     1      18.618   0.028  51.479  0.00  0.00    +0.000 C 
BRANCH  27  29
ATOM     28  C   UNL     1      18.163  -1.605  53.330  0.00  0.00    +0.000 C 
ATOM     29  C   UNL     1      17.613  -0.435  52.524  0.00  0.00    +0.000 C 
ENDBRANCH  27  29
ENDBRANCH   1  27
TORSDOF 3
ENDMDL
MODEL 8
REMARK VINA RESULT:    -7.276      1.896      6.042
REMARK INTER + INTRA:          -8.703
REMARK INTER:                  -8.173
REMARK INTRA:                  -0.529
REMARK UNBOUND:                -0.363
REMARK  Name = 
REMARK  9 active torsions:
REMARK  status: ('A' for Active; 'I' for Inactive)
REMARK    1  A    between atoms: C_1  and  C_2
REMARK    2  A    between atoms: C_2  and  C_3
REMARK    3  A    between atoms: C_3  and  C_4
REMARK    4  A    between atoms: C_16  and  C_17
REMARK    5  A    between atoms: C_16  and  C_18
REMARK    6  A    between atoms: C_22  and  C_23
REMARK    7  A    between atoms: C_24  and  C_25
REMARK    8  A    between atoms: C_24  and  C_26
REMARK    9  A    between atoms: C_27  and  O_28
REMARK                            x       y       z     vdW  Elec       q    Type
REMARK                         _______ _______ _______ _____ _____    ______ ____
ROOT
ATOM      1  C   UNL     1      21.547   4.974  50.351  0.00  0.00    +0.000 A 
ATOM      2  C   UNL     1      22.532   5.911  50.379  0.00  0.00    +0.000 A 
ATOM      3  C   UNL     1      23.553   5.996  51.423  0.00  0.00    +0.000 A 
ATOM      4  O   UNL     1      24.405   6.881  51.445  0.00  0.00    +0.000 OA
ATOM      5  O   UNL     1      23.517   4.991  52.341  0.00  0.00    +0.000 OA
ATOM      6  C   UNL     1      22.803   3.854  51.975  0.00  0.00    +0.000 A 
ATOM      7  C   UNL     1      23.485   2.673  52.061  0.00  0.00    +0.000 A 
ATOM      8  C   UNL     1      22.782   1.517  52.286  0.00  0.00    +0.000 A 
ATOM      9  C   UNL     1      21.396   1.562  52.127  0.00  0.00    +0.000 A 
ATOM     10  C   UNL     1      20.798   2.698  51.513  0.00  0.00    +0.000 A 
ATOM     11  C   UNL     1      21.579   3.868  51.348  0.00  0.00    +0.000 A 
ATOM     12  O   UNL     1      19.473   2.692  51.133  0.00  0.00    +0.000 OA
ATOM     13  C   UNL     1      18.721   1.446  51.235  0.00  0.00    +0.000 C 
ATOM     14  C   UNL     1      17.304   1.776  51.736  0.00  0.00    +0.000 C 
ATOM     15  C   UNL     1      18.622   0.838  49.830  0.00  0.00    +0.000 C 
ATOM     16  C   UNL     1      19.311   0.401  52.153  0.00  0.00    +0.000 C 
ATOM     17  C   UNL     1      20.580   0.435  52.547  0.00  0.00    +0.000 C 
ATOM     18  O   UNL     1      23.435   0.390  52.699  0.00  0.00    +0.000 OA
ATOM     19  C   UNL     1      24.890   0.356  52.611  0.00  0.00    +0.000 C 
ATOM     20  C   UNL     1      25.352  -0.580  53.723  0.00  0.00    +0.000 C 
ATOM     21  C   UNL     1      25.640   1.725  52.649  0.00  0.00    +0.000 C 
ATOM     22  C   UNL     1      25.650   2.390  54.043  0.00  0.00    +0.000 C 
ATOM     23  C   UNL     1      27.094   1.587  52.153  0.00  0.00    +0.000 C 
ATOM     24  C   UNL     1      24.924   2.657  51.698  0.00  0.00    +0.000 C 
ENDROOT
BRANCH  24  25
ATOM     25  O   UNL     1      25.019   2.204  50.340  0.00  0.00    +0.000 OA
ATOM     26  H   UNL     1      25.919   2.354  50.011  0.00  0.00    +0.000 HD
ENDBRANCH  24  25
BRANCH   1  27
ATOM     27  C   UNL     1      20.720   4.915  49.103  0.00  0.00    +0.000 C 
BRANCH  27  29
ATOM     28  C   UNL     1      21.430   2.860  47.848  0.00  0.00    +0.000 C 
ATOM     29  C   UNL     1      21.509   4.379  47.915  0.00  0.00    +0.000 C 
ENDBRANCH  27  29
ENDBRANCH   1  27
TORSDOF 3
ENDMDL
MODEL 9
REMARK VINA RESULT:    -7.098      2.526      5.637
REMARK INTER + INTRA:          -8.498
REMARK INTER:                  -8.277
REMARK INTRA:                  -0.221
REMARK UNBOUND:                -0.363
REMARK  Name = 
REMARK  9 active torsions:
REMARK  status: ('A' for Active; 'I' for Inactive)
REMARK    1  A    between atoms: C_1  and  C_2
REMARK    2  A    between atoms: C_2  and  C_3
REMARK    3  A    between atoms: C_3  and  C_4
REMARK    4  A    between atoms: C_16  and  C_17
REMARK    5  A    between atoms: C_16  and  C_18
REMARK    6  A    between atoms: C_22  and  C_23
REMARK    7  A    between atoms: C_24  and  C_25
REMARK    8  A    between atoms: C_24  and  C_26
REMARK    9  A    between atoms: C_27  and  O_28
REMARK                            x       y       z     vdW  Elec       q    Type
REMARK                         _______ _______ _______ _____ _____    ______ ____
ROOT
ATOM      1  C   UNL     1      23.109   1.716  52.470  0.00  0.00    +0.000 A 
ATOM      2  C   UNL     1      22.615   0.628  53.116  0.00  0.00    +0.000 A 
ATOM      3  C   UNL     1      21.231   0.504  53.574  0.00  0.00    +0.000 A 
ATOM      4  O   UNL     1      20.823  -0.474  54.194  0.00  0.00    +0.000 OA
ATOM      5  O   UNL     1      20.416   1.535  53.214  0.00  0.00    +0.000 OA
ATOM      6  C   UNL     1      20.876   2.346  52.182  0.00  0.00    +0.000 A 
ATOM      7  C   UNL     1      20.019   2.507  51.129  0.00  0.00    +0.000 A 
ATOM      8  C   UNL     1      20.092   3.658  50.386  0.00  0.00    +0.000 A 
ATOM      9  C   UNL     1      21.215   4.468  50.556  0.00  0.00    +0.000 A 
ATOM     10  C   UNL     1      22.333   3.970  51.283  0.00  0.00    +0.000 A 
ATOM     11  C   UNL     1      22.170   2.795  52.057  0.00  0.00    +0.000 A 
ATOM     12  O   UNL     1      23.539   4.637  51.285  0.00  0.00    +0.000 OA
ATOM     13  C   UNL     1      23.702   5.794  50.411  0.00  0.00    +0.000 C 
ATOM     14  C   UNL     1      24.504   6.865  51.170  0.00  0.00    +0.000 C 
ATOM     15  C   UNL     1      24.507   5.347  49.184  0.00  0.00    +0.000 C 
ATOM     16  C   UNL     1      22.421   6.426  49.921  0.00  0.00    +0.000 C 
ATOM     17  C   UNL     1      21.253   5.791  49.957  0.00  0.00    +0.000 C 
ATOM     18  O   UNL     1      19.062   4.000  49.554  0.00  0.00    +0.000 OA
ATOM     19  C   UNL     1      18.048   2.996  49.253  0.00  0.00    +0.000 C 
ATOM     20  C   UNL     1      16.764   3.774  48.976  0.00  0.00    +0.000 C 
ATOM     21  C   UNL     1      17.829   1.863  50.304  0.00  0.00    +0.000 C 
ATOM     22  C   UNL     1      17.111   2.335  51.589  0.00  0.00    +0.000 C 
ATOM     23  C   UNL     1      17.046   0.678  49.704  0.00  0.00    +0.000 C 
ATOM     24  C   UNL     1      19.194   1.349  50.702  0.00  0.00    +0.000 C 
ENDROOT
BRANCH  24  25
ATOM     25  O   UNL     1      19.868   0.726  49.599  0.00  0.00    +0.000 OA
ATOM     26  H   UNL     1      20.047   1.388  48.914  0.00  0.00    +0.000 HD
ENDBRANCH  24  25
BRANCH   1  27
ATOM     27  C   UNL     1      24.488   1.581  51.897  0.00  0.00    +0.000 C 
BRANCH  27  29
ATOM     28  C   UNL     1      26.770   0.594  52.235  0.00  0.00    +0.000 C 
ATOM     29  C   UNL     1      25.294   0.491  52.591  0.00  0.00    +0.000 C 
ENDBRANCH  27  29
ENDBRANCH   1  27
TORSDOF 3
ENDMDL
