MODEL 1
REMARK VINA RESULT:    -7.935      0.000      0.000
REMARK INTER + INTRA:         -13.226
REMARK INTER:                 -11.182
REMARK INTRA:                  -2.044
REMARK UNBOUND:                -2.044
REMARK  Name = 
REMARK  8 active torsions:
REMARK  status: ('A' for Active; 'I' for Inactive)
REMARK    1  A    between atoms: C_1  and  C_2
REMARK    2  A    between atoms: C_2  and  C_3
REMARK    3  A    between atoms: C_3  and  C_4
REMARK    4  A    between atoms: C_4  and  C_5
REMARK    5  A    between atoms: N_13  and  C_14
REMARK    6  A    between atoms: C_14  and  C_15
REMARK    7  A    between atoms: C_18  and  C_19
REMARK    8  A    between atoms: C_24  and  C_25
REMARK                            x       y       z     vdW  Elec       q    Type
REMARK                         _______ _______ _______ _____ _____    ______ ____
ROOT
ATOM      1  C   UNL     1      24.276   3.215  52.249  0.00  0.00    +0.000 A 
ATOM      2  C   UNL     1      24.619   2.838  53.557  0.00  0.00    +0.000 A 
ATOM      3  C   UNL     1      25.560   1.820  53.797  0.00  0.00    +0.000 A 
ATOM      4  C   UNL     1      26.213   1.159  52.749  0.00  0.00    +0.000 A 
ATOM      5  C   UNL     1      25.815   1.507  51.444  0.00  0.00    +0.000 A 
ATOM      6  C   UNL     1      24.860   2.503  51.197  0.00  0.00    +0.000 A 
ENDROOT
BRANCH   4   7
ATOM      7  C   UNL     1      27.244   0.109  52.979  0.00  0.00    +0.000 A 
ATOM      8  C   UNL     1      26.935  -1.227  52.628  0.00  0.00    +0.000 A 
ATOM      9  C   UNL     1      27.852  -2.274  52.776  0.00  0.00    +0.000 A 
ATOM     10  C   UNL     1      29.108  -2.029  53.308  0.00  0.00    +0.000 A 
ATOM     11  C   UNL     1      29.444  -0.737  53.689  0.00  0.00    +0.000 A 
ATOM     12  C   UNL     1      28.531   0.334  53.526  0.00  0.00    +0.000 A 
BRANCH  12  13
ATOM     13  C   UNL     1      29.036   1.685  53.885  0.00  0.00    +0.000 C 
ATOM     14  O   UNL     1      28.957   2.707  53.233  0.00  0.00    +0.000 OA
ATOM     15  O   UNL     1      29.627   1.680  55.097  0.00  0.00    +0.000 OA
ENDBRANCH  12  13
ENDBRANCH   4   7
BRANCH   1  16
ATOM     16  C   UNL     1      23.278   4.312  51.968  0.00  0.00    +0.000 C 
BRANCH  16  25
ATOM     17  C   UNL     1      21.078   3.240  51.225  0.00  0.00    +0.000 A 
ATOM     18  N   UNL     1      20.264   3.337  50.190  0.00  0.00    +0.000 NA
ATOM     19  C   UNL     1      20.928   4.068  49.239  0.00  0.00    +0.000 A 
ATOM     20  C   UNL     1      20.531   4.434  47.956  0.00  0.00    +0.000 A 
ATOM     21  N   UNL     1      21.378   5.159  47.195  0.00  0.00    +0.000 NA
ATOM     22  N   UNL     1      22.616   5.537  47.672  0.00  0.00    +0.000 NA
ATOM     23  C   UNL     1      23.029   5.207  48.913  0.00  0.00    +0.000 A 
ATOM     24  C   UNL     1      22.175   4.460  49.707  0.00  0.00    +0.000 A 
ATOM     25  N   UNL     1      22.244   3.958  50.995  0.00  0.00    +0.000 N 
BRANCH  17  26
ATOM     26  C   UNL     1      20.790   2.346  52.392  0.00  0.00    +0.000 C 
BRANCH  26  27
ATOM     27  C   UNL     1      21.402   0.945  52.341  0.00  0.00    +0.000 C 
BRANCH  27  29
ATOM     28  C   UNL     1      22.950  -0.811  53.439  0.00  0.00    +0.000 C 
ATOM     29  C   UNL     1      22.009   0.370  53.627  0.00  0.00    +0.000 C 
ENDBRANCH  27  29
ENDBRANCH  26  27
ENDBRANCH  17  26
ENDBRANCH  16  25
ENDBRANCH   1  16
TORSDOF 7
ENDMDL
MODEL 2
REMARK VINA RESULT:    -7.703      3.725      7.456
REMARK INTER + INTRA:         -12.899
REMARK INTER:                 -10.652
REMARK INTRA:                  -2.248
REMARK UNBOUND:                -2.044
REMARK  Name = 
REMARK  8 active torsions:
REMARK  status: ('A' for Active; 'I' for Inactive)
REMARK    1  A    between atoms: C_1  and  C_2
REMARK    2  A    between atoms: C_2  and  C_3
REMARK    3  A    between atoms: C_3  and  C_4
REMARK    4  A    between atoms: C_4  and  C_5
REMARK    5  A    between atoms: N_13  and  C_14
REMARK    6  A    between atoms: C_14  and  C_15
REMARK    7  A    between atoms: C_18  and  C_19
REMARK    8  A    between atoms: C_24  and  C_25
REMARK                            x       y       z     vdW  Elec       q    Type
REMARK                         _______ _______ _______ _____ _____    ______ ____
ROOT
ATOM      1  C   UNL     1      25.301   2.718  52.779  0.00  0.00    +0.000 A 
ATOM      2  C   UNL     1      25.833   2.453  51.508  0.00  0.00    +0.000 A 
ATOM      3  C   UNL     1      25.336   3.101  50.362  0.00  0.00    +0.000 A 
ATOM      4  C   UNL     1      24.313   4.054  50.440  0.00  0.00    +0.000 A 
ATOM      5  C   UNL     1      23.750   4.265  51.714  0.00  0.00    +0.000 A 
ATOM      6  C   UNL     1      24.222   3.605  52.857  0.00  0.00    +0.000 A 
ENDROOT
BRANCH   4   7
ATOM      7  C   UNL     1      23.801   4.784  49.248  0.00  0.00    +0.000 A 
ATOM      8  C   UNL     1      22.688   4.247  48.555  0.00  0.00    +0.000 A 
ATOM      9  C   UNL     1      22.117   4.880  47.446  0.00  0.00    +0.000 A 
ATOM     10  C   UNL     1      22.655   6.066  46.968  0.00  0.00    +0.000 A 
ATOM     11  C   UNL     1      23.761   6.614  47.602  0.00  0.00    +0.000 A 
ATOM     12  C   UNL     1      24.335   5.992  48.738  0.00  0.00    +0.000 A 
BRANCH  12  13
ATOM     13  C   UNL     1      25.458   6.720  49.385  0.00  0.00    +0.000 C 
ATOM     14  O   UNL     1      25.427   7.386  50.400  0.00  0.00    +0.000 OA
ATOM     15  O   UNL     1      26.608   6.557  48.698  0.00  0.00    +0.000 OA
ENDBRANCH  12  13
ENDBRANCH   4   7
BRANCH   1  16
ATOM     16  C   UNL     1      25.826   2.043  54.023  0.00  0.00    +0.000 C 
BRANCH  16  25
ATOM     17  C   UNL     1      25.402  -0.436  53.565  0.00  0.00    +0.000 A 
ATOM     18  N   UNL     1      26.120  -1.482  53.199  0.00  0.00    +0.000 NA
ATOM     19  C   UNL     1      27.435  -1.105  53.296  0.00  0.00    +0.000 A 
ATOM     20  C   UNL     1      28.593  -1.837  53.055  0.00  0.00    +0.000 A 
ATOM     21  N   UNL     1      29.790  -1.238  53.232  0.00  0.00    +0.000 NA
ATOM     22  N   UNL     1      29.873   0.076  53.642  0.00  0.00    +0.000 NA
ATOM     23  C   UNL     1      28.771   0.818  53.877  0.00  0.00    +0.000 A 
ATOM     24  C   UNL     1      27.534   0.218  53.705  0.00  0.00    +0.000 A 
ATOM     25  N   UNL     1      26.225   0.649  53.835  0.00  0.00    +0.000 N 
BRANCH  17  26
ATOM     26  C   UNL     1      23.921  -0.515  53.780  0.00  0.00    +0.000 C 
BRANCH  26  27
ATOM     27  C   UNL     1      23.050  -0.494  52.523  0.00  0.00    +0.000 C 
BRANCH  27  29
ATOM     28  C   UNL     1      22.009   1.112  50.784  0.00  0.00    +0.000 C 
ATOM     29  C   UNL     1      22.198   0.752  52.251  0.00  0.00    +0.000 C 
ENDBRANCH  27  29
ENDBRANCH  26  27
ENDBRANCH  17  26
ENDBRANCH  16  25
ENDBRANCH   1  16
TORSDOF 7
ENDMDL
MODEL 3
REMARK VINA RESULT:    -7.695      1.619      2.573
REMARK INTER + INTRA:         -12.887
REMARK INTER:                 -11.660
REMARK INTRA:                  -1.227
REMARK UNBOUND:                -2.044
REMARK  Name = 
REMARK  8 active torsions:
REMARK  status: ('A' for Active; 'I' for Inactive)
REMARK    1  A    between atoms: C_1  and  C_2
REMARK    2  A    between atoms: C_2  and  C_3
REMARK    3  A    between atoms: C_3  and  C_4
REMARK    4  A    between atoms: C_4  and  C_5
REMARK    5  A    between atoms: N_13  and  C_14
REMARK    6  A    between atoms: C_14  and  C_15
REMARK    7  A    between atoms: C_18  and  C_19
REMARK    8  A    between atoms: C_24  and  C_25
REMARK                            x       y       z     vdW  Elec       q    Type
REMARK                         _______ _______ _______ _____ _____    ______ ____
ROOT
ATOM      1  C   UNL     1      24.066   2.579  51.884  0.00  0.00    +0.000 A 
ATOM      2  C   UNL     1      25.271   2.559  51.162  0.00  0.00    +0.000 A 
ATOM      3  C   UNL     1      26.285   1.632  51.466  0.00  0.00    +0.000 A 
ATOM      4  C   UNL     1      26.130   0.676  52.478  0.00  0.00    +0.000 A 
ATOM      5  C   UNL     1      24.942   0.747  53.230  0.00  0.00    +0.000 A 
ATOM      6  C   UNL     1      23.937   1.684  52.950  0.00  0.00    +0.000 A 
ENDROOT
BRANCH   4   7
ATOM      7  C   UNL     1      27.171  -0.341  52.789  0.00  0.00    +0.000 A 
ATOM      8  C   UNL     1      26.938  -1.684  52.405  0.00  0.00    +0.000 A 
ATOM      9  C   UNL     1      27.873  -2.702  52.625  0.00  0.00    +0.000 A 
ATOM     10  C   UNL     1      29.071  -2.420  53.264  0.00  0.00    +0.000 A 
ATOM     11  C   UNL     1      29.330  -1.122  53.679  0.00  0.00    +0.000 A 
ATOM     12  C   UNL     1      28.399  -0.080  53.444  0.00  0.00    +0.000 A 
BRANCH  12  13
ATOM     13  C   UNL     1      28.827   1.284  53.853  0.00  0.00    +0.000 C 
ATOM     14  O   UNL     1      28.943   2.269  53.152  0.00  0.00    +0.000 OA
ATOM     15  O   UNL     1      29.087   1.340  55.175  0.00  0.00    +0.000 OA
ENDBRANCH  12  13
ENDBRANCH   4   7
BRANCH   1  16
ATOM     16  C   UNL     1      22.960   3.555  51.567  0.00  0.00    +0.000 C 
BRANCH  16  25
ATOM     17  C   UNL     1      22.854   3.874  49.032  0.00  0.00    +0.000 A 
ATOM     18  N   UNL     1      22.900   4.889  48.189  0.00  0.00    +0.000 NA
ATOM     19  C   UNL     1      23.293   5.982  48.916  0.00  0.00    +0.000 A 
ATOM     20  C   UNL     1      23.523   7.292  48.505  0.00  0.00    +0.000 A 
ATOM     21  N   UNL     1      23.920   8.201  49.421  0.00  0.00    +0.000 NA
ATOM     22  N   UNL     1      24.094   7.848  50.743  0.00  0.00    +0.000 NA
ATOM     23  C   UNL     1      23.872   6.591  51.177  0.00  0.00    +0.000 A 
ATOM     24  C   UNL     1      23.469   5.643  50.251  0.00  0.00    +0.000 A 
ATOM     25  N   UNL     1      23.146   4.299  50.321  0.00  0.00    +0.000 N 
BRANCH  17  26
ATOM     26  C   UNL     1      22.655   2.460  48.577  0.00  0.00    +0.000 C 
BRANCH  26  27
ATOM     27  C   UNL     1      21.208   2.014  48.362  0.00  0.00    +0.000 C 
BRANCH  27  29
ATOM     28  C   UNL     1      21.427   0.459  50.416  0.00  0.00    +0.000 C 
ATOM     29  C   UNL     1      20.510   1.244  49.490  0.00  0.00    +0.000 C 
ENDBRANCH  27  29
ENDBRANCH  26  27
ENDBRANCH  17  26
ENDBRANCH  16  25
ENDBRANCH   1  16
TORSDOF 7
ENDMDL
MODEL 4
REMARK VINA RESULT:    -7.670      3.737      5.981
REMARK INTER + INTRA:         -12.853
REMARK INTER:                 -11.245
REMARK INTRA:                  -1.608
REMARK UNBOUND:                -2.044
REMARK  Name = 
REMARK  8 active torsions:
REMARK  status: ('A' for Active; 'I' for Inactive)
REMARK    1  A    between atoms: C_1  and  C_2
REMARK    2  A    between atoms: C_2  and  C_3
REMARK    3  A    between atoms: C_3  and  C_4
REMARK    4  A    between atoms: C_4  and  C_5
REMARK    5  A    between atoms: N_13  and  C_14
REMARK    6  A    between atoms: C_14  and  C_15
REMARK    7  A    between atoms: C_18  and  C_19
REMARK    8  A    between atoms: C_24  and  C_25
REMARK                            x       y       z     vdW  Elec       q    Type
REMARK                         _______ _______ _______ _____ _____    ______ ____
ROOT
ATOM      1  C   UNL     1      23.548   3.833  50.048  0.00  0.00    +0.000 A 
ATOM      2  C   UNL     1      23.577   4.072  51.431  0.00  0.00    +0.000 A 
ATOM      3  C   UNL     1      23.218   3.068  52.349  0.00  0.00    +0.000 A 
ATOM      4  C   UNL     1      22.844   1.785  51.930  0.00  0.00    +0.000 A 
ATOM      5  C   UNL     1      22.765   1.580  50.538  0.00  0.00    +0.000 A 
ATOM      6  C   UNL     1      23.096   2.582  49.616  0.00  0.00    +0.000 A 
ENDROOT
BRANCH   4   7
ATOM      7  C   UNL     1      22.502   0.695  52.884  0.00  0.00    +0.000 A 
ATOM      8  C   UNL     1      23.556   0.043  53.569  0.00  0.00    +0.000 A 
ATOM      9  C   UNL     1      23.329  -0.969  54.508  0.00  0.00    +0.000 A 
ATOM     10  C   UNL     1      22.036  -1.388  54.781  0.00  0.00    +0.000 A 
ATOM     11  C   UNL     1      20.974  -0.793  54.114  0.00  0.00    +0.000 A 
ATOM     12  C   UNL     1      21.191   0.246  53.175  0.00  0.00    +0.000 A 
BRANCH  12  13
ATOM     13  C   UNL     1      19.972   0.867  52.593  0.00  0.00    +0.000 C 
ATOM     14  O   UNL     1      19.709   2.049  52.504  0.00  0.00    +0.000 OA
ATOM     15  O   UNL     1      19.120  -0.070  52.128  0.00  0.00    +0.000 OA
ENDBRANCH  12  13
ENDBRANCH   4   7
BRANCH   1  16
ATOM     16  C   UNL     1      23.941   4.891  49.045  0.00  0.00    +0.000 C 
BRANCH  16  25
ATOM     17  C   UNL     1      26.455   4.433  49.128  0.00  0.00    +0.000 A 
ATOM     18  N   UNL     1      27.563   5.112  48.895  0.00  0.00    +0.000 NA
ATOM     19  C   UNL     1      27.195   6.427  48.770  0.00  0.00    +0.000 A 
ATOM     20  C   UNL     1      27.979   7.556  48.549  0.00  0.00    +0.000 A 
ATOM     21  N   UNL     1      27.375   8.761  48.472  0.00  0.00    +0.000 NA
ATOM     22  N   UNL     1      26.008   8.882  48.607  0.00  0.00    +0.000 NA
ATOM     23  C   UNL     1      25.218   7.808  48.814  0.00  0.00    +0.000 A 
ATOM     24  C   UNL     1      25.820   6.564  48.900  0.00  0.00    +0.000 A 
ATOM     25  N   UNL     1      25.352   5.275  49.088  0.00  0.00    +0.000 N 
BRANCH  17  26
ATOM     26  C   UNL     1      26.467   2.987  49.518  0.00  0.00    +0.000 C 
BRANCH  26  27
ATOM     27  C   UNL     1      26.817   2.680  50.975  0.00  0.00    +0.000 C 
BRANCH  27  29
ATOM     28  C   UNL     1      27.214   0.883  52.792  0.00  0.00    +0.000 C 
ATOM     29  C   UNL     1      26.470   1.292  51.529  0.00  0.00    +0.000 C 
ENDBRANCH  27  29
ENDBRANCH  26  27
ENDBRANCH  17  26
ENDBRANCH  16  25
ENDBRANCH   1  16
TORSDOF 7
ENDMDL
MODEL 5
REMARK VINA RESULT:    -7.562      2.828      4.750
REMARK INTER + INTRA:         -12.701
REMARK INTER:                 -10.710
REMARK INTRA:                  -1.991
REMARK UNBOUND:                -2.044
REMARK  Name = 
REMARK  8 active torsions:
REMARK  status: ('A' for Active; 'I' for Inactive)
REMARK    1  A    between atoms: C_1  and  C_2
REMARK    2  A    between atoms: C_2  and  C_3
REMARK    3  A    between atoms: C_3  and  C_4
REMARK    4  A    between atoms: C_4  and  C_5
REMARK    5  A    between atoms: N_13  and  C_14
REMARK    6  A    between atoms: C_14  and  C_15
REMARK    7  A    between atoms: C_18  and  C_19
REMARK    8  A    between atoms: C_24  and  C_25
REMARK                            x       y       z     vdW  Elec       q    Type
REMARK                         _______ _______ _______ _____ _____    ______ ____
ROOT
ATOM      1  C   UNL     1      23.948   3.586  49.956  0.00  0.00    +0.000 A 
ATOM      2  C   UNL     1      24.525   3.761  51.224  0.00  0.00    +0.000 A 
ATOM      3  C   UNL     1      24.310   2.829  52.256  0.00  0.00    +0.000 A 
ATOM      4  C   UNL     1      23.537   1.678  52.059  0.00  0.00    +0.000 A 
ATOM      5  C   UNL     1      22.917   1.547  50.801  0.00  0.00    +0.000 A 
ATOM      6  C   UNL     1      23.106   2.485  49.776  0.00  0.00    +0.000 A 
ENDROOT
BRANCH   4   7
ATOM      7  C   UNL     1      23.330   0.656  53.122  0.00  0.00    +0.000 A 
ATOM      8  C   UNL     1      22.016   0.439  53.602  0.00  0.00    +0.000 A 
ATOM      9  C   UNL     1      21.721  -0.523  54.575  0.00  0.00    +0.000 A 
ATOM     10  C   UNL     1      22.736  -1.290  55.126  0.00  0.00    +0.000 A 
ATOM     11  C   UNL     1      24.043  -1.093  54.701  0.00  0.00    +0.000 A 
ATOM     12  C   UNL     1      24.350  -0.135  53.704  0.00  0.00    +0.000 A 
BRANCH  12  13
ATOM     13  C   UNL     1      25.770  -0.078  53.267  0.00  0.00    +0.000 C 
ATOM     14  O   UNL     1      26.266  -0.584  52.281  0.00  0.00    +0.000 OA
ATOM     15  O   UNL     1      26.517   0.648  54.124  0.00  0.00    +0.000 OA
ENDBRANCH  12  13
ENDBRANCH   4   7
BRANCH   1  16
ATOM     16  C   UNL     1      24.175   4.567  48.832  0.00  0.00    +0.000 C 
BRANCH  16  25
ATOM     17  C   UNL     1      23.512   6.757  49.973  0.00  0.00    +0.000 A 
ATOM     18  N   UNL     1      24.133   7.836  50.415  0.00  0.00    +0.000 NA
ATOM     19  C   UNL     1      25.414   7.773  49.933  0.00  0.00    +0.000 A 
ATOM     20  C   UNL     1      26.468   8.670  50.080  0.00  0.00    +0.000 A 
ATOM     21  N   UNL     1      27.651   8.386  49.495  0.00  0.00    +0.000 NA
ATOM     22  N   UNL     1      27.822   7.229  48.764  0.00  0.00    +0.000 NA
ATOM     23  C   UNL     1      26.825   6.333  48.608  0.00  0.00    +0.000 A 
ATOM     24  C   UNL     1      25.604   6.611  49.198  0.00  0.00    +0.000 A 
ATOM     25  N   UNL     1      24.390   5.948  49.265  0.00  0.00    +0.000 N 
BRANCH  17  26
ATOM     26  C   UNL     1      22.035   6.562  50.124  0.00  0.00    +0.000 C 
BRANCH  26  27
ATOM     27  C   UNL     1      21.579   5.721  51.317  0.00  0.00    +0.000 C 
BRANCH  27  29
ATOM     28  C   UNL     1      20.362   3.618  52.202  0.00  0.00    +0.000 C 
ATOM     29  C   UNL     1      20.529   4.629  51.077  0.00  0.00    +0.000 C 
ENDBRANCH  27  29
ENDBRANCH  26  27
ENDBRANCH  17  26
ENDBRANCH  16  25
ENDBRANCH   1  16
TORSDOF 7
ENDMDL
MODEL 6
REMARK VINA RESULT:    -7.417      2.678      4.971
REMARK INTER + INTRA:         -12.496
REMARK INTER:                 -11.067
REMARK INTRA:                  -1.429
REMARK UNBOUND:                -2.044
REMARK  Name = 
REMARK  8 active torsions:
REMARK  status: ('A' for Active; 'I' for Inactive)
REMARK    1  A    between atoms: C_1  and  C_2
REMARK    2  A    between atoms: C_2  and  C_3
REMARK    3  A    between atoms: C_3  and  C_4
REMARK    4  A    between atoms: C_4  and  C_5
REMARK    5  A    between atoms: N_13  and  C_14
REMARK    6  A    between atoms: C_14  and  C_15
REMARK    7  A    between atoms: C_18  and  C_19
REMARK    8  A    between atoms: C_24  and  C_25
REMARK                            x       y       z     vdW  Elec       q    Type
REMARK                         _______ _______ _______ _____ _____    ______ ____
ROOT
ATOM      1  C   UNL     1      23.528   3.635  50.132  0.00  0.00    +0.000 A 
ATOM      2  C   UNL     1      23.980   3.894  51.436  0.00  0.00    +0.000 A 
ATOM      3  C   UNL     1      23.844   2.935  52.456  0.00  0.00    +0.000 A 
ATOM      4  C   UNL     1      23.280   1.676  52.213  0.00  0.00    +0.000 A 
ATOM      5  C   UNL     1      22.779   1.454  50.915  0.00  0.00    +0.000 A 
ATOM      6  C   UNL     1      22.888   2.414  49.900  0.00  0.00    +0.000 A 
ENDROOT
BRANCH   4   7
ATOM      7  C   UNL     1      23.165   0.630  53.266  0.00  0.00    +0.000 A 
ATOM      8  C   UNL     1      21.878   0.314  53.765  0.00  0.00    +0.000 A 
ATOM      9  C   UNL     1      21.668  -0.679  54.729  0.00  0.00    +0.000 A 
ATOM     10  C   UNL     1      22.745  -1.377  55.253  0.00  0.00    +0.000 A 
ATOM     11  C   UNL     1      24.027  -1.083  54.810  0.00  0.00    +0.000 A 
ATOM     12  C   UNL     1      24.248  -0.094  53.820  0.00  0.00    +0.000 A 
BRANCH  12  13
ATOM     13  C   UNL     1      25.653   0.069  53.361  0.00  0.00    +0.000 C 
ATOM     14  O   UNL     1      26.148  -0.325  52.325  0.00  0.00    +0.000 OA
ATOM     15  O   UNL     1      26.386   0.754  54.263  0.00  0.00    +0.000 OA
ENDBRANCH  12  13
ENDBRANCH   4   7
BRANCH   1  16
ATOM     16  C   UNL     1      23.675   4.645  49.019  0.00  0.00    +0.000 C 
BRANCH  16  25
ATOM     17  C   UNL     1      24.293   7.050  49.628  0.00  0.00    +0.000 A 
ATOM     18  N   UNL     1      23.670   8.212  49.705  0.00  0.00    +0.000 NA
ATOM     19  C   UNL     1      22.329   7.942  49.607  0.00  0.00    +0.000 A 
ATOM     20  C   UNL     1      21.239   8.806  49.658  0.00  0.00    +0.000 A 
ATOM     21  N   UNL     1      19.996   8.291  49.545  0.00  0.00    +0.000 NA
ATOM     22  N   UNL     1      19.800   6.936  49.378  0.00  0.00    +0.000 NA
ATOM     23  C   UNL     1      20.834   6.072  49.316  0.00  0.00    +0.000 A 
ATOM     24  C   UNL     1      22.116   6.581  49.435  0.00  0.00    +0.000 A 
ATOM     25  N   UNL     1      23.383   6.024  49.409  0.00  0.00    +0.000 N 
BRANCH  17  26
ATOM     26  C   UNL     1      25.760   6.907  49.894  0.00  0.00    +0.000 C 
BRANCH  26  27
ATOM     27  C   UNL     1      26.682   6.994  48.676  0.00  0.00    +0.000 C 
BRANCH  27  29
ATOM     28  C   UNL     1      27.264   4.489  48.944  0.00  0.00    +0.000 C 
ATOM     29  C   UNL     1      27.691   5.863  48.446  0.00  0.00    +0.000 C 
ENDBRANCH  27  29
ENDBRANCH  26  27
ENDBRANCH  17  26
ENDBRANCH  16  25
ENDBRANCH   1  16
TORSDOF 7
ENDMDL
MODEL 7
REMARK VINA RESULT:    -7.217      3.382      6.199
REMARK INTER + INTRA:         -12.214
REMARK INTER:                  -9.957
REMARK INTRA:                  -2.256
REMARK UNBOUND:                -2.044
REMARK  Name = 
REMARK  8 active torsions:
REMARK  status: ('A' for Active; 'I' for Inactive)
REMARK    1  A    between atoms: C_1  and  C_2
REMARK    2  A    between atoms: C_2  and  C_3
REMARK    3  A    between atoms: C_3  and  C_4
REMARK    4  A    between atoms: C_4  and  C_5
REMARK    5  A    between atoms: N_13  and  C_14
REMARK    6  A    between atoms: C_14  and  C_15
REMARK    7  A    between atoms: C_18  and  C_19
REMARK    8  A    between atoms: C_24  and  C_25
REMARK                            x       y       z     vdW  Elec       q    Type
REMARK                         _______ _______ _______ _____ _____    ______ ____
ROOT
ATOM      1  C   UNL     1      22.246   2.962  49.242  0.00  0.00    +0.000 A 
ATOM      2  C   UNL     1      21.552   3.461  50.356  0.00  0.00    +0.000 A 
ATOM      3  C   UNL     1      20.758   2.618  51.155  0.00  0.00    +0.000 A 
ATOM      4  C   UNL     1      20.645   1.247  50.894  0.00  0.00    +0.000 A 
ATOM      5  C   UNL     1      21.300   0.773  49.740  0.00  0.00    +0.000 A 
ATOM      6  C   UNL     1      22.073   1.611  48.924  0.00  0.00    +0.000 A 
ENDROOT
BRANCH   4   7
ATOM      7  C   UNL     1      19.846   0.328  51.750  0.00  0.00    +0.000 A 
ATOM      8  C   UNL     1      18.488   0.104  51.415  0.00  0.00    +0.000 A 
ATOM      9  C   UNL     1      17.669  -0.769  52.140  0.00  0.00    +0.000 A 
ATOM     10  C   UNL     1      18.170  -1.433  53.250  0.00  0.00    +0.000 A 
ATOM     11  C   UNL     1      19.489  -1.223  53.628  0.00  0.00    +0.000 A 
ATOM     12  C   UNL     1      20.333  -0.357  52.890  0.00  0.00    +0.000 A 
BRANCH  12  13
ATOM     13  C   UNL     1      21.748  -0.284  53.338  0.00  0.00    +0.000 C 
ATOM     14  O   UNL     1      22.283   0.604  53.972  0.00  0.00    +0.000 OA
ATOM     15  O   UNL     1      22.440  -1.378  52.959  0.00  0.00    +0.000 OA
ENDBRANCH  12  13
ENDBRANCH   4   7
BRANCH   1  16
ATOM     16  C   UNL     1      23.113   3.845  48.378  0.00  0.00    +0.000 C 
BRANCH  16  25
ATOM     17  C   UNL     1      25.358   4.330  49.503  0.00  0.00    +0.000 A 
ATOM     18  N   UNL     1      26.013   5.399  49.917  0.00  0.00    +0.000 NA
ATOM     19  C   UNL     1      25.125   6.442  49.873  0.00  0.00    +0.000 A 
ATOM     20  C   UNL     1      25.297   7.777  50.230  0.00  0.00    +0.000 A 
ATOM     21  N   UNL     1      24.254   8.623  50.102  0.00  0.00    +0.000 NA
ATOM     22  N   UNL     1      23.036   8.185  49.626  0.00  0.00    +0.000 NA
ATOM     23  C   UNL     1      22.837   6.900  49.263  0.00  0.00    +0.000 A 
ATOM     24  C   UNL     1      23.895   6.016  49.391  0.00  0.00    +0.000 A 
ATOM     25  N   UNL     1      24.068   4.670  49.119  0.00  0.00    +0.000 N 
BRANCH  17  26
ATOM     26  C   UNL     1      25.932   2.950  49.596  0.00  0.00    +0.000 C 
BRANCH  26  27
ATOM     27  C   UNL     1      26.015   2.342  50.997  0.00  0.00    +0.000 C 
BRANCH  27  29
ATOM     28  C   UNL     1      24.309   3.021  52.818  0.00  0.00    +0.000 C 
ATOM     29  C   UNL     1      24.705   2.031  51.733  0.00  0.00    +0.000 C 
ENDBRANCH  27  29
ENDBRANCH  26  27
ENDBRANCH  17  26
ENDBRANCH  16  25
ENDBRANCH   1  16
TORSDOF 7
ENDMDL
MODEL 8
REMARK VINA RESULT:    -7.116      4.672      6.512
REMARK INTER + INTRA:         -12.071
REMARK INTER:                 -10.646
REMARK INTRA:                  -1.426
REMARK UNBOUND:                -2.044
REMARK  Name = 
REMARK  8 active torsions:
REMARK  status: ('A' for Active; 'I' for Inactive)
REMARK    1  A    between atoms: C_1  and  C_2
REMARK    2  A    between atoms: C_2  and  C_3
REMARK    3  A    between atoms: C_3  and  C_4
REMARK    4  A    between atoms: C_4  and  C_5
REMARK    5  A    between atoms: N_13  and  C_14
REMARK    6  A    between atoms: C_14  and  C_15
REMARK    7  A    between atoms: C_18  and  C_19
REMARK    8  A    between atoms: C_24  and  C_25
REMARK                            x       y       z     vdW  Elec       q    Type
REMARK                         _______ _______ _______ _____ _____    ______ ____
ROOT
ATOM      1  C   UNL     1      18.963   1.701  50.908  0.00  0.00    +0.000 A 
ATOM      2  C   UNL     1      19.806   0.813  50.221  0.00  0.00    +0.000 A 
ATOM      3  C   UNL     1      21.079   0.483  50.723  0.00  0.00    +0.000 A 
ATOM      4  C   UNL     1      21.549   1.002  51.936  0.00  0.00    +0.000 A 
ATOM      5  C   UNL     1      20.717   1.936  52.582  0.00  0.00    +0.000 A 
ATOM      6  C   UNL     1      19.458   2.289  52.076  0.00  0.00    +0.000 A 
ENDROOT
BRANCH   4   7
ATOM      7  C   UNL     1      22.873   0.634  52.508  0.00  0.00    +0.000 A 
ATOM      8  C   UNL     1      24.037   1.200  51.932  0.00  0.00    +0.000 A 
ATOM      9  C   UNL     1      25.321   0.940  52.423  0.00  0.00    +0.000 A 
ATOM     10  C   UNL     1      25.494   0.080  53.497  0.00  0.00    +0.000 A 
ATOM     11  C   UNL     1      24.383  -0.516  54.077  0.00  0.00    +0.000 A 
ATOM     12  C   UNL     1      23.076  -0.244  53.599  0.00  0.00    +0.000 A 
BRANCH  12  13
ATOM     13  C   UNL     1      21.960  -0.869  54.357  0.00  0.00    +0.000 C 
ATOM     14  O   UNL     1      21.241  -0.350  55.186  0.00  0.00    +0.000 OA
ATOM     15  O   UNL     1      21.797  -2.163  54.011  0.00  0.00    +0.000 OA
ENDBRANCH  12  13
ENDBRANCH   4   7
BRANCH   1  16
ATOM     16  C   UNL     1      17.590   2.059  50.394  0.00  0.00    +0.000 C 
BRANCH  16  25
ATOM     17  C   UNL     1      16.422   0.421  51.973  0.00  0.00    +0.000 A 
ATOM     18  N   UNL     1      15.404   0.457  52.812  0.00  0.00    +0.000 NA
ATOM     19  C   UNL     1      14.747   1.638  52.578  0.00  0.00    +0.000 A 
ATOM     20  C   UNL     1      13.597   2.151  53.169  0.00  0.00    +0.000 A 
ATOM     21  N   UNL     1      13.133   3.350  52.756  0.00  0.00    +0.000 NA
ATOM     22  N   UNL     1      13.783   4.061  51.769  0.00  0.00    +0.000 NA
ATOM     23  C   UNL     1      14.905   3.598  51.181  0.00  0.00    +0.000 A 
ATOM     24  C   UNL     1      15.392   2.367  51.589  0.00  0.00    +0.000 A 
ATOM     25  N   UNL     1      16.487   1.597  51.237  0.00  0.00    +0.000 N 
BRANCH  17  26
ATOM     26  C   UNL     1      17.266  -0.803  51.785  0.00  0.00    +0.000 C 
BRANCH  26  27
ATOM     27  C   UNL     1      18.215  -1.156  52.931  0.00  0.00    +0.000 C 
BRANCH  27  29
ATOM     28  C   UNL     1      16.790  -3.293  53.225  0.00  0.00    +0.000 C 
ATOM     29  C   UNL     1      17.979  -2.466  53.692  0.00  0.00    +0.000 C 
ENDBRANCH  27  29
ENDBRANCH  26  27
ENDBRANCH  17  26
ENDBRANCH  16  25
ENDBRANCH   1  16
TORSDOF 7
ENDMDL
MODEL 9
REMARK VINA RESULT:    -7.095      2.098      3.119
REMARK INTER + INTRA:         -12.043
REMARK INTER:                 -10.595
REMARK INTRA:                  -1.447
REMARK UNBOUND:                -2.044
REMARK  Name = 
REMARK  8 active torsions:
REMARK  status: ('A' for Active; 'I' for Inactive)
REMARK    1  A    between atoms: C_1  and  C_2
REMARK    2  A    between atoms: C_2  and  C_3
REMARK    3  A    between atoms: C_3  and  C_4
REMARK    4  A    between atoms: C_4  and  C_5
REMARK    5  A    between atoms: N_13  and  C_14
REMARK    6  A    between atoms: C_14  and  C_15
REMARK    7  A    between atoms: C_18  and  C_19
REMARK    8  A    between atoms: C_24  and  C_25
REMARK                            x       y       z     vdW  Elec       q    Type
REMARK                         _______ _______ _______ _____ _____    ______ ____
ROOT
ATOM      1  C   UNL     1      24.114   2.990  50.253  0.00  0.00    +0.000 A 
ATOM      2  C   UNL     1      25.460   3.059  49.863  0.00  0.00    +0.000 A 
ATOM      3  C   UNL     1      26.487   2.603  50.710  0.00  0.00    +0.000 A 
ATOM      4  C   UNL     1      26.212   2.039  51.963  0.00  0.00    +0.000 A 
ATOM      5  C   UNL     1      24.862   2.031  52.363  0.00  0.00    +0.000 A 
ATOM      6  C   UNL     1      23.835   2.506  51.535  0.00  0.00    +0.000 A 
ENDROOT
BRANCH   4   7
ATOM      7  C   UNL     1      27.278   1.511  52.858  0.00  0.00    +0.000 A 
ATOM      8  C   UNL     1      28.235   2.418  53.374  0.00  0.00    +0.000 A 
ATOM      9  C   UNL     1      29.252   2.020  54.249  0.00  0.00    +0.000 A 
ATOM     10  C   UNL     1      29.367   0.689  54.623  0.00  0.00    +0.000 A 
ATOM     11  C   UNL     1      28.465  -0.238  54.121  0.00  0.00    +0.000 A 
ATOM     12  C   UNL     1      27.420   0.158  53.249  0.00  0.00    +0.000 A 
BRANCH  12  13
ATOM     13  C   UNL     1      26.462  -0.908  52.851  0.00  0.00    +0.000 C 
ATOM     14  O   UNL     1      26.541  -1.661  51.901  0.00  0.00    +0.000 OA
ATOM     15  O   UNL     1      25.423  -0.977  53.707  0.00  0.00    +0.000 OA
ENDBRANCH  12  13
ENDBRANCH   4   7
BRANCH   1  16
ATOM     16  C   UNL     1      22.996   3.461  49.355  0.00  0.00    +0.000 C 
BRANCH  16  25
ATOM     17  C   UNL     1      21.401   5.119  50.473  0.00  0.00    +0.000 A 
ATOM     18  N   UNL     1      21.394   6.411  50.742  0.00  0.00    +0.000 NA
ATOM     19  C   UNL     1      22.445   6.959  50.053  0.00  0.00    +0.000 A 
ATOM     20  C   UNL     1      22.864   8.284  49.969  0.00  0.00    +0.000 A 
ATOM     21  N   UNL     1      23.938   8.579  49.206  0.00  0.00    +0.000 NA
ATOM     22  N   UNL     1      24.616   7.593  48.521  0.00  0.00    +0.000 NA
ATOM     23  C   UNL     1      24.242   6.298  48.586  0.00  0.00    +0.000 A 
ATOM     24  C   UNL     1      23.140   5.977  49.361  0.00  0.00    +0.000 A 
ATOM     25  N   UNL     1      22.487   4.796  49.669  0.00  0.00    +0.000 N 
BRANCH  17  26
ATOM     26  C   UNL     1      20.287   4.207  50.884  0.00  0.00    +0.000 C 
BRANCH  26  27
ATOM     27  C   UNL     1      20.479   3.450  52.199  0.00  0.00    +0.000 C 
BRANCH  27  29
ATOM     28  C   UNL     1      20.769   1.142  53.328  0.00  0.00    +0.000 C 
ATOM     29  C   UNL     1      20.086   1.968  52.248  0.00  0.00    +0.000 C 
ENDBRANCH  27  29
ENDBRANCH  26  27
ENDBRANCH  17  26
ENDBRANCH  16  25
ENDBRANCH   1  16
TORSDOF 7
ENDMDL
