MODEL 1
REMARK VINA RESULT:    -6.482      0.000      0.000
REMARK INTER + INTRA:         -13.832
REMARK INTER:                 -11.218
REMARK INTRA:                  -2.614
REMARK UNBOUND:                -2.614
REMARK  Name = 
REMARK  15 active torsions:
REMARK  status: ('A' for Active; 'I' for Inactive)
REMARK    1  A    between atoms: C_1  and  C_2
REMARK    2  A    between atoms: C_2  and  C_3
REMARK    3  A    between atoms: C_3  and  C_4
REMARK    4  A    between atoms: C_4  and  C_5
REMARK    5  A    between atoms: C_5  and  C_6
REMARK    6  A    between atoms: C_6  and  O_7
REMARK    7  A    between atoms: C_6  and  C_8
REMARK    8  A    between atoms: C_12  and  O_13
REMARK    9  A    between atoms: O_13  and  C_14
REMARK   10  A    between atoms: C_14  and  C_15
REMARK   11  A    between atoms: C_18  and  O_19
REMARK   12  A    between atoms: O_19  and  C_20
REMARK   13  A    between atoms: C_20  and  C_21
REMARK   14  A    between atoms: C_21  and  O_23
REMARK   15  A    between atoms: O_23  and  C_24
REMARK                            x       y       z     vdW  Elec       q    Type
REMARK                         _______ _______ _______ _____ _____    ______ ____
ROOT
ATOM      1  C   UNL     1      22.126   5.624  51.333  0.00  0.00    +0.000 A 
ATOM      2  C   UNL     1      21.061   5.907  50.472  0.00  0.00    +0.000 A 
ATOM      3  C   UNL     1      20.026   4.988  50.333  0.00  0.00    +0.000 A 
ATOM      4  C   UNL     1      20.003   3.831  51.118  0.00  0.00    +0.000 A 
ATOM      5  C   UNL     1      20.955   3.635  52.120  0.00  0.00    +0.000 A 
ATOM      6  C   UNL     1      22.019   4.535  52.216  0.00  0.00    +0.000 A 
ENDROOT
BRANCH   1   7
ATOM      7  C   UNL     1      23.441   6.355  51.162  0.00  0.00    +0.000 C 
BRANCH   7   8
ATOM      8  O   UNL     1      24.256   6.165  52.315  0.00  0.00    +0.000 OA
ATOM      9  H   UNL     1      23.695   5.946  53.075  0.00  0.00    +0.000 HD
ENDBRANCH   7   8
BRANCH   7  10
ATOM     10  C   UNL     1      24.195   5.883  49.898  0.00  0.00    +0.000 C 
BRANCH  10  11
ATOM     11  C   UNL     1      25.224   4.756  50.099  0.00  0.00    +0.000 C 
BRANCH  11  12
ATOM     12  C   UNL     1      24.789   3.418  49.502  0.00  0.00    +0.000 C 
BRANCH  12  14
ATOM     13  C   UNL     1      22.538   2.425  48.968  0.00  0.00    +0.000 C 
ATOM     14  C   UNL     1      23.513   3.554  48.667  0.00  0.00    +0.000 C 
ENDBRANCH  12  14
ENDBRANCH  11  12
ENDBRANCH  10  11
ENDBRANCH   7  10
ENDBRANCH   1   7
BRANCH   5  15
ATOM     15  O   UNL     1      20.760   2.542  52.931  0.00  0.00    +0.000 OA
BRANCH  15  16
ATOM     16  C   UNL     1      21.105   1.276  52.360  0.00  0.00    +0.000 C 
BRANCH  16  17
ATOM     17  C   UNL     1      22.458   0.773  52.812  0.00  0.00    +0.000 A 
ATOM     18  C   UNL     1      22.523  -0.227  53.795  0.00  0.00    +0.000 A 
ATOM     19  C   UNL     1      23.752  -0.724  54.243  0.00  0.00    +0.000 A 
ATOM     20  C   UNL     1      24.939  -0.248  53.696  0.00  0.00    +0.000 A 
ATOM     21  C   UNL     1      24.881   0.702  52.670  0.00  0.00    +0.000 A 
ATOM     22  C   UNL     1      23.652   1.203  52.222  0.00  0.00    +0.000 A 
BRANCH  20  23
ATOM     23  O   UNL     1      26.197  -0.593  54.107  0.00  0.00    +0.000 OA
BRANCH  23  24
ATOM     24  C   UNL     1      27.274  -0.336  53.218  0.00  0.00    +0.000 C 
BRANCH  24  25
ATOM     25  C   UNL     1      28.681  -0.193  53.796  0.00  0.00    +0.000 C 
ATOM     26  O   UNL     1      29.616  -0.987  53.669  0.00  0.00    +0.000 OA
BRANCH  25  27
ATOM     27  O   UNL     1      28.755   0.990  54.482  0.00  0.00    +0.000 OA
ATOM     28  C   UNL     1      28.737   2.163  53.668  0.00  0.00    +0.000 C 
ENDBRANCH  25  27
ENDBRANCH  24  25
ENDBRANCH  23  24
ENDBRANCH  20  23
ENDBRANCH  16  17
ENDBRANCH  15  16
ENDBRANCH   5  15
TORSDOF 13
ENDMDL
MODEL 2
REMARK VINA RESULT:    -6.432      3.191      6.903
REMARK INTER + INTRA:         -13.746
REMARK INTER:                 -12.450
REMARK INTRA:                  -1.296
REMARK UNBOUND:                -2.614
REMARK  Name = 
REMARK  15 active torsions:
REMARK  status: ('A' for Active; 'I' for Inactive)
REMARK    1  A    between atoms: C_1  and  C_2
REMARK    2  A    between atoms: C_2  and  C_3
REMARK    3  A    between atoms: C_3  and  C_4
REMARK    4  A    between atoms: C_4  and  C_5
REMARK    5  A    between atoms: C_5  and  C_6
REMARK    6  A    between atoms: C_6  and  O_7
REMARK    7  A    between atoms: C_6  and  C_8
REMARK    8  A    between atoms: C_12  and  O_13
REMARK    9  A    between atoms: O_13  and  C_14
REMARK   10  A    between atoms: C_14  and  C_15
REMARK   11  A    between atoms: C_18  and  O_19
REMARK   12  A    between atoms: O_19  and  C_20
REMARK   13  A    between atoms: C_20  and  C_21
REMARK   14  A    between atoms: C_21  and  O_23
REMARK   15  A    between atoms: O_23  and  C_24
REMARK                            x       y       z     vdW  Elec       q    Type
REMARK                         _______ _______ _______ _____ _____    ______ ____
ROOT
ATOM      1  C   UNL     1      24.277   0.057  53.547  0.00  0.00    +0.000 A 
ATOM      2  C   UNL     1      23.051  -0.526  53.885  0.00  0.00    +0.000 A 
ATOM      3  C   UNL     1      21.866   0.134  53.576  0.00  0.00    +0.000 A 
ATOM      4  C   UNL     1      21.896   1.327  52.848  0.00  0.00    +0.000 A 
ATOM      5  C   UNL     1      23.099   1.816  52.335  0.00  0.00    +0.000 A 
ATOM      6  C   UNL     1      24.287   1.176  52.696  0.00  0.00    +0.000 A 
ENDROOT
BRANCH   1   7
ATOM      7  C   UNL     1      25.538  -0.390  54.255  0.00  0.00    +0.000 C 
BRANCH   7   8
ATOM      8  O   UNL     1      25.211  -1.287  55.312  0.00  0.00    +0.000 OA
ATOM      9  H   UNL     1      25.664  -1.008  56.124  0.00  0.00    +0.000 HD
ENDBRANCH   7   8
BRANCH   7  10
ATOM     10  C   UNL     1      26.530  -1.064  53.278  0.00  0.00    +0.000 C 
BRANCH  10  11
ATOM     11  C   UNL     1      27.728  -0.210  52.827  0.00  0.00    +0.000 C 
BRANCH  11  12
ATOM     12  C   UNL     1      28.870  -0.176  53.842  0.00  0.00    +0.000 C 
BRANCH  12  14
ATOM     13  C   UNL     1      28.358   2.271  53.551  0.00  0.00    +0.000 C 
ATOM     14  C   UNL     1      29.129   1.241  54.362  0.00  0.00    +0.000 C 
ENDBRANCH  12  14
ENDBRANCH  11  12
ENDBRANCH  10  11
ENDBRANCH   7  10
ENDBRANCH   1   7
BRANCH   5  15
ATOM     15  O   UNL     1      23.002   2.913  51.513  0.00  0.00    +0.000 OA
BRANCH  15  16
ATOM     16  C   UNL     1      23.378   2.702  50.148  0.00  0.00    +0.000 C 
BRANCH  16  17
ATOM     17  C   UNL     1      24.493   3.619  49.695  0.00  0.00    +0.000 A 
ATOM     18  C   UNL     1      25.810   3.134  49.668  0.00  0.00    +0.000 A 
ATOM     19  C   UNL     1      26.872   3.945  49.254  0.00  0.00    +0.000 A 
ATOM     20  C   UNL     1      26.632   5.249  48.834  0.00  0.00    +0.000 A 
ATOM     21  C   UNL     1      25.316   5.719  48.796  0.00  0.00    +0.000 A 
ATOM     22  C   UNL     1      24.250   4.910  49.212  0.00  0.00    +0.000 A 
BRANCH  20  23
ATOM     23  O   UNL     1      27.592   6.160  48.488  0.00  0.00    +0.000 OA
BRANCH  23  24
ATOM     24  C   UNL     1      28.930   5.696  48.377  0.00  0.00    +0.000 C 
BRANCH  24  25
ATOM     25  C   UNL     1      30.050   6.724  48.220  0.00  0.00    +0.000 C 
ATOM     26  O   UNL     1      30.075   7.674  47.435  0.00  0.00    +0.000 OA
BRANCH  25  27
ATOM     27  O   UNL     1      31.041   6.433  49.119  0.00  0.00    +0.000 OA
ATOM     28  C   UNL     1      31.842   7.546  49.517  0.00  0.00    +0.000 C 
ENDBRANCH  25  27
ENDBRANCH  24  25
ENDBRANCH  23  24
ENDBRANCH  20  23
ENDBRANCH  16  17
ENDBRANCH  15  16
ENDBRANCH   5  15
TORSDOF 13
ENDMDL
MODEL 3
REMARK VINA RESULT:    -6.285      2.127      6.501
REMARK INTER + INTRA:         -13.492
REMARK INTER:                 -11.588
REMARK INTRA:                  -1.904
REMARK UNBOUND:                -2.614
REMARK  Name = 
REMARK  15 active torsions:
REMARK  status: ('A' for Active; 'I' for Inactive)
REMARK    1  A    between atoms: C_1  and  C_2
REMARK    2  A    between atoms: C_2  and  C_3
REMARK    3  A    between atoms: C_3  and  C_4
REMARK    4  A    between atoms: C_4  and  C_5
REMARK    5  A    between atoms: C_5  and  C_6
REMARK    6  A    between atoms: C_6  and  O_7
REMARK    7  A    between atoms: C_6  and  C_8
REMARK    8  A    between atoms: C_12  and  O_13
REMARK    9  A    between atoms: O_13  and  C_14
REMARK   10  A    between atoms: C_14  and  C_15
REMARK   11  A    between atoms: C_18  and  O_19
REMARK   12  A    between atoms: O_19  and  C_20
REMARK   13  A    between atoms: C_20  and  C_21
REMARK   14  A    between atoms: C_21  and  O_23
REMARK   15  A    between atoms: O_23  and  C_24
REMARK                            x       y       z     vdW  Elec       q    Type
REMARK                         _______ _______ _______ _____ _____    ______ ____
ROOT
ATOM      1  C   UNL     1      23.748  -0.615  53.991  0.00  0.00    +0.000 A 
ATOM      2  C   UNL     1      22.836  -1.107  54.930  0.00  0.00    +0.000 A 
ATOM      3  C   UNL     1      21.477  -0.857  54.768  0.00  0.00    +0.000 A 
ATOM      4  C   UNL     1      21.016  -0.198  53.625  0.00  0.00    +0.000 A 
ATOM      5  C   UNL     1      21.895   0.122  52.587  0.00  0.00    +0.000 A 
ATOM      6  C   UNL     1      23.262  -0.085  52.783  0.00  0.00    +0.000 A 
ENDROOT
BRANCH   1   7
ATOM      7  C   UNL     1      25.207  -0.473  54.368  0.00  0.00    +0.000 C 
BRANCH   7   8
ATOM      8  O   UNL     1      25.443  -1.080  55.635  0.00  0.00    +0.000 OA
ATOM      9  H   UNL     1      26.122  -0.577  56.112  0.00  0.00    +0.000 HD
ENDBRANCH   7   8
BRANCH   7  10
ATOM     10  C   UNL     1      26.134  -1.101  53.301  0.00  0.00    +0.000 C 
BRANCH  10  11
ATOM     11  C   UNL     1      27.195  -0.171  52.687  0.00  0.00    +0.000 C 
BRANCH  11  12
ATOM     12  C   UNL     1      26.603   0.941  51.820  0.00  0.00    +0.000 C 
BRANCH  12  14
ATOM     13  C   UNL     1      27.987   2.232  53.479  0.00  0.00    +0.000 C 
ATOM     14  C   UNL     1      27.116   2.322  52.234  0.00  0.00    +0.000 C 
ENDBRANCH  12  14
ENDBRANCH  11  12
ENDBRANCH  10  11
ENDBRANCH   7  10
ENDBRANCH   1   7
BRANCH   5  15
ATOM     15  O   UNL     1      21.321   0.634  51.448  0.00  0.00    +0.000 OA
BRANCH  15  16
ATOM     16  C   UNL     1      21.087   2.046  51.451  0.00  0.00    +0.000 C 
BRANCH  16  17
ATOM     17  C   UNL     1      22.313   2.848  51.071  0.00  0.00    +0.000 A 
ATOM     18  C   UNL     1      22.691   3.939  51.869  0.00  0.00    +0.000 A 
ATOM     19  C   UNL     1      23.818   4.707  51.559  0.00  0.00    +0.000 A 
ATOM     20  C   UNL     1      24.602   4.383  50.457  0.00  0.00    +0.000 A 
ATOM     21  C   UNL     1      24.270   3.259  49.693  0.00  0.00    +0.000 A 
ATOM     22  C   UNL     1      23.140   2.489  50.002  0.00  0.00    +0.000 A 
BRANCH  20  23
ATOM     23  O   UNL     1      25.673   5.104  50.005  0.00  0.00    +0.000 OA
BRANCH  23  24
ATOM     24  C   UNL     1      25.609   6.519  50.119  0.00  0.00    +0.000 C 
BRANCH  24  25
ATOM     25  C   UNL     1      26.051   7.369  48.929  0.00  0.00    +0.000 C 
ATOM     26  O   UNL     1      25.436   7.540  47.875  0.00  0.00    +0.000 OA
BRANCH  25  27
ATOM     27  O   UNL     1      27.260   7.942  49.225  0.00  0.00    +0.000 OA
ATOM     28  C   UNL     1      27.202   9.031  50.147  0.00  0.00    +0.000 C 
ENDBRANCH  25  27
ENDBRANCH  24  25
ENDBRANCH  23  24
ENDBRANCH  20  23
ENDBRANCH  16  17
ENDBRANCH  15  16
ENDBRANCH   5  15
TORSDOF 13
ENDMDL
MODEL 4
REMARK VINA RESULT:    -6.189      2.464      5.080
REMARK INTER + INTRA:         -13.324
REMARK INTER:                 -11.272
REMARK INTRA:                  -2.052
REMARK UNBOUND:                -2.614
REMARK  Name = 
REMARK  15 active torsions:
REMARK  status: ('A' for Active; 'I' for Inactive)
REMARK    1  A    between atoms: C_1  and  C_2
REMARK    2  A    between atoms: C_2  and  C_3
REMARK    3  A    between atoms: C_3  and  C_4
REMARK    4  A    between atoms: C_4  and  C_5
REMARK    5  A    between atoms: C_5  and  C_6
REMARK    6  A    between atoms: C_6  and  O_7
REMARK    7  A    between atoms: C_6  and  C_8
REMARK    8  A    between atoms: C_12  and  O_13
REMARK    9  A    between atoms: O_13  and  C_14
REMARK   10  A    between atoms: C_14  and  C_15
REMARK   11  A    between atoms: C_18  and  O_19
REMARK   12  A    between atoms: O_19  and  C_20
REMARK   13  A    between atoms: C_20  and  C_21
REMARK   14  A    between atoms: C_21  and  O_23
REMARK   15  A    between atoms: O_23  and  C_24
REMARK                            x       y       z     vdW  Elec       q    Type
REMARK                         _______ _______ _______ _____ _____    ______ ____
ROOT
ATOM      1  C   UNL     1      19.781  -0.217  52.220  0.00  0.00    +0.000 A 
ATOM      2  C   UNL     1      18.571  -0.040  51.541  0.00  0.00    +0.000 A 
ATOM      3  C   UNL     1      18.538   0.731  50.384  0.00  0.00    +0.000 A 
ATOM      4  C   UNL     1      19.722   1.249  49.851  0.00  0.00    +0.000 A 
ATOM      5  C   UNL     1      20.957   0.915  50.408  0.00  0.00    +0.000 A 
ATOM      6  C   UNL     1      20.977   0.185  51.599  0.00  0.00    +0.000 A 
ENDROOT
BRANCH   1   7
ATOM      7  C   UNL     1      19.768  -0.642  53.673  0.00  0.00    +0.000 C 
BRANCH   7   8
ATOM      8  O   UNL     1      18.640  -1.475  53.926  0.00  0.00    +0.000 OA
ATOM      9  H   UNL     1      18.004  -1.388  53.198  0.00  0.00    +0.000 HD
ENDBRANCH   7   8
BRANCH   7  10
ATOM     10  C   UNL     1      21.069  -1.382  54.061  0.00  0.00    +0.000 C 
BRANCH  10  11
ATOM     11  C   UNL     1      22.072  -0.593  54.921  0.00  0.00    +0.000 C 
BRANCH  11  12
ATOM     12  C   UNL     1      23.505  -1.114  54.820  0.00  0.00    +0.000 C 
BRANCH  12  14
ATOM     13  C   UNL     1      25.633  -1.137  53.475  0.00  0.00    +0.000 C 
ATOM     14  C   UNL     1      24.200  -0.631  53.544  0.00  0.00    +0.000 C 
ENDBRANCH  12  14
ENDBRANCH  11  12
ENDBRANCH  10  11
ENDBRANCH   7  10
ENDBRANCH   1   7
BRANCH   5  15
ATOM     15  O   UNL     1      22.066   1.355  49.725  0.00  0.00    +0.000 OA
BRANCH  15  16
ATOM     16  C   UNL     1      22.546   2.652  50.090  0.00  0.00    +0.000 C 
BRANCH  16  17
ATOM     17  C   UNL     1      23.722   2.600  51.041  0.00  0.00    +0.000 A 
ATOM     18  C   UNL     1      23.526   2.929  52.391  0.00  0.00    +0.000 A 
ATOM     19  C   UNL     1      24.582   2.892  53.307  0.00  0.00    +0.000 A 
ATOM     20  C   UNL     1      25.851   2.500  52.894  0.00  0.00    +0.000 A 
ATOM     21  C   UNL     1      26.042   2.109  51.565  0.00  0.00    +0.000 A 
ATOM     22  C   UNL     1      24.985   2.146  50.645  0.00  0.00    +0.000 A 
BRANCH  20  23
ATOM     23  O   UNL     1      26.976   2.505  53.672  0.00  0.00    +0.000 OA
BRANCH  23  24
ATOM     24  C   UNL     1      28.047   1.656  53.287  0.00  0.00    +0.000 C 
BRANCH  24  25
ATOM     25  C   UNL     1      29.043   1.205  54.354  0.00  0.00    +0.000 C 
ATOM     26  O   UNL     1      29.863   1.912  54.944  0.00  0.00    +0.000 OA
BRANCH  25  27
ATOM     27  O   UNL     1      28.871  -0.136  54.576  0.00  0.00    +0.000 OA
ATOM     28  C   UNL     1      29.651  -0.992  53.740  0.00  0.00    +0.000 C 
ENDBRANCH  25  27
ENDBRANCH  24  25
ENDBRANCH  23  24
ENDBRANCH  20  23
ENDBRANCH  16  17
ENDBRANCH  15  16
ENDBRANCH   5  15
TORSDOF 13
ENDMDL
MODEL 5
REMARK VINA RESULT:    -6.175      1.937      4.440
REMARK INTER + INTRA:         -13.301
REMARK INTER:                 -11.288
REMARK INTRA:                  -2.013
REMARK UNBOUND:                -2.614
REMARK  Name = 
REMARK  15 active torsions:
REMARK  status: ('A' for Active; 'I' for Inactive)
REMARK    1  A    between atoms: C_1  and  C_2
REMARK    2  A    between atoms: C_2  and  C_3
REMARK    3  A    between atoms: C_3  and  C_4
REMARK    4  A    between atoms: C_4  and  C_5
REMARK    5  A    between atoms: C_5  and  C_6
REMARK    6  A    between atoms: C_6  and  O_7
REMARK    7  A    between atoms: C_6  and  C_8
REMARK    8  A    between atoms: C_12  and  O_13
REMARK    9  A    between atoms: O_13  and  C_14
REMARK   10  A    between atoms: C_14  and  C_15
REMARK   11  A    between atoms: C_18  and  O_19
REMARK   12  A    between atoms: O_19  and  C_20
REMARK   13  A    between atoms: C_20  and  C_21
REMARK   14  A    between atoms: C_21  and  O_23
REMARK   15  A    between atoms: O_23  and  C_24
REMARK                            x       y       z     vdW  Elec       q    Type
REMARK                         _______ _______ _______ _____ _____    ______ ____
ROOT
ATOM      1  C   UNL     1      20.731   1.850  50.093  0.00  0.00    +0.000 A 
ATOM      2  C   UNL     1      21.196   1.327  48.882  0.00  0.00    +0.000 A 
ATOM      3  C   UNL     1      22.299   1.905  48.261  0.00  0.00    +0.000 A 
ATOM      4  C   UNL     1      22.996   2.941  48.889  0.00  0.00    +0.000 A 
ATOM      5  C   UNL     1      22.662   3.337  50.186  0.00  0.00    +0.000 A 
ATOM      6  C   UNL     1      21.522   2.789  50.778  0.00  0.00    +0.000 A 
ENDROOT
BRANCH   1   7
ATOM      7  C   UNL     1      19.315   1.557  50.540  0.00  0.00    +0.000 C 
BRANCH   7   8
ATOM      8  O   UNL     1      18.777   0.481  49.776  0.00  0.00    +0.000 OA
ATOM      9  H   UNL     1      19.500  -0.081  49.456  0.00  0.00    +0.000 HD
ENDBRANCH   7   8
BRANCH   7  10
ATOM     10  C   UNL     1      19.252   1.218  52.047  0.00  0.00    +0.000 C 
BRANCH  10  11
ATOM     11  C   UNL     1      19.648  -0.216  52.441  0.00  0.00    +0.000 C 
BRANCH  11  12
ATOM     12  C   UNL     1      21.058  -0.324  53.019  0.00  0.00    +0.000 C 
BRANCH  12  14
ATOM     13  C   UNL     1      22.408  -1.201  54.954  0.00  0.00    +0.000 C 
ATOM     14  C   UNL     1      21.140  -1.373  54.131  0.00  0.00    +0.000 C 
ENDBRANCH  12  14
ENDBRANCH  11  12
ENDBRANCH  10  11
ENDBRANCH   7  10
ENDBRANCH   1   7
BRANCH   5  15
ATOM     15  O   UNL     1      23.498   4.259  50.768  0.00  0.00    +0.000 OA
BRANCH  15  16
ATOM     16  C   UNL     1      23.929   3.955  52.099  0.00  0.00    +0.000 C 
BRANCH  16  17
ATOM     17  C   UNL     1      24.783   2.708  52.172  0.00  0.00    +0.000 A 
ATOM     18  C   UNL     1      24.326   1.608  52.915  0.00  0.00    +0.000 A 
ATOM     19  C   UNL     1      25.079   0.434  53.010  0.00  0.00    +0.000 A 
ATOM     20  C   UNL     1      26.294   0.328  52.340  0.00  0.00    +0.000 A 
ATOM     21  C   UNL     1      26.727   1.394  51.546  0.00  0.00    +0.000 A 
ATOM     22  C   UNL     1      25.974   2.573  51.451  0.00  0.00    +0.000 A 
BRANCH  20  23
ATOM     23  O   UNL     1      27.156  -0.731  52.424  0.00  0.00    +0.000 OA
BRANCH  23  24
ATOM     24  C   UNL     1      27.809  -0.952  53.666  0.00  0.00    +0.000 C 
BRANCH  24  25
ATOM     25  C   UNL     1      29.115  -0.211  53.947  0.00  0.00    +0.000 C 
ATOM     26  O   UNL     1      30.238  -0.514  53.541  0.00  0.00    +0.000 OA
BRANCH  25  27
ATOM     27  O   UNL     1      28.839   0.882  54.726  0.00  0.00    +0.000 OA
ATOM     28  C   UNL     1      29.190   2.140  54.148  0.00  0.00    +0.000 C 
ENDBRANCH  25  27
ENDBRANCH  24  25
ENDBRANCH  23  24
ENDBRANCH  20  23
ENDBRANCH  16  17
ENDBRANCH  15  16
ENDBRANCH   5  15
TORSDOF 13
ENDMDL
MODEL 6
REMARK VINA RESULT:    -6.162      1.921      6.232
REMARK INTER + INTRA:         -13.279
REMARK INTER:                 -10.652
REMARK INTRA:                  -2.626
REMARK UNBOUND:                -2.614
REMARK  Name = 
REMARK  15 active torsions:
REMARK  status: ('A' for Active; 'I' for Inactive)
REMARK    1  A    between atoms: C_1  and  C_2
REMARK    2  A    between atoms: C_2  and  C_3
REMARK    3  A    between atoms: C_3  and  C_4
REMARK    4  A    between atoms: C_4  and  C_5
REMARK    5  A    between atoms: C_5  and  C_6
REMARK    6  A    between atoms: C_6  and  O_7
REMARK    7  A    between atoms: C_6  and  C_8
REMARK    8  A    between atoms: C_12  and  O_13
REMARK    9  A    between atoms: O_13  and  C_14
REMARK   10  A    between atoms: C_14  and  C_15
REMARK   11  A    between atoms: C_18  and  O_19
REMARK   12  A    between atoms: O_19  and  C_20
REMARK   13  A    between atoms: C_20  and  C_21
REMARK   14  A    between atoms: C_21  and  O_23
REMARK   15  A    between atoms: O_23  and  C_24
REMARK                            x       y       z     vdW  Elec       q    Type
REMARK                         _______ _______ _______ _____ _____    ______ ____
ROOT
ATOM      1  C   UNL     1      23.749  -0.604  53.813  0.00  0.00    +0.000 A 
ATOM      2  C   UNL     1      22.980  -1.078  54.880  0.00  0.00    +0.000 A 
ATOM      3  C   UNL     1      21.592  -0.997  54.818  0.00  0.00    +0.000 A 
ATOM      4  C   UNL     1      20.967  -0.531  53.657  0.00  0.00    +0.000 A 
ATOM      5  C   UNL     1      21.717  -0.242  52.515  0.00  0.00    +0.000 A 
ATOM      6  C   UNL     1      23.110  -0.276  52.605  0.00  0.00    +0.000 A 
ENDROOT
BRANCH   1   7
ATOM      7  C   UNL     1      25.207  -0.263  54.036  0.00  0.00    +0.000 C 
BRANCH   7   8
ATOM      8  O   UNL     1      25.703  -0.966  55.172  0.00  0.00    +0.000 OA
ATOM      9  H   UNL     1      25.457  -0.489  55.980  0.00  0.00    +0.000 HD
ENDBRANCH   7   8
BRANCH   7  10
ATOM     10  C   UNL     1      26.066  -0.593  52.794  0.00  0.00    +0.000 C 
BRANCH  10  11
ATOM     11  C   UNL     1      26.784   0.593  52.127  0.00  0.00    +0.000 C 
BRANCH  11  12
ATOM     12  C   UNL     1      26.336   1.955  52.658  0.00  0.00    +0.000 C 
BRANCH  12  14
ATOM     13  C   UNL     1      24.206   3.293  52.577  0.00  0.00    +0.000 C 
ATOM     14  C   UNL     1      25.283   2.601  51.754  0.00  0.00    +0.000 C 
ENDBRANCH  12  14
ENDBRANCH  11  12
ENDBRANCH  10  11
ENDBRANCH   7  10
ENDBRANCH   1   7
BRANCH   5  15
ATOM     15  O   UNL     1      20.998   0.067  51.385  0.00  0.00    +0.000 OA
BRANCH  15  16
ATOM     16  C   UNL     1      20.448   1.388  51.341  0.00  0.00    +0.000 C 
BRANCH  16  17
ATOM     17  C   UNL     1      21.252   2.333  50.475  0.00  0.00    +0.000 A 
ATOM     18  C   UNL     1      22.134   1.804  49.520  0.00  0.00    +0.000 A 
ATOM     19  C   UNL     1      22.896   2.638  48.696  0.00  0.00    +0.000 A 
ATOM     20  C   UNL     1      22.771   4.020  48.795  0.00  0.00    +0.000 A 
ATOM     21  C   UNL     1      21.848   4.555  49.699  0.00  0.00    +0.000 A 
ATOM     22  C   UNL     1      21.085   3.721  50.527  0.00  0.00    +0.000 A 
BRANCH  20  23
ATOM     23  O   UNL     1      23.519   4.936  48.107  0.00  0.00    +0.000 OA
BRANCH  23  24
ATOM     24  C   UNL     1      24.061   6.026  48.839  0.00  0.00    +0.000 C 
BRANCH  24  25
ATOM     25  C   UNL     1      25.363   5.815  49.608  0.00  0.00    +0.000 C 
ATOM     26  O   UNL     1      26.240   4.984  49.362  0.00  0.00    +0.000 OA
BRANCH  25  27
ATOM     27  O   UNL     1      25.421   6.724  50.631  0.00  0.00    +0.000 OA
ATOM     28  C   UNL     1      24.153   7.153  51.131  0.00  0.00    +0.000 C 
ENDBRANCH  25  27
ENDBRANCH  24  25
ENDBRANCH  23  24
ENDBRANCH  20  23
ENDBRANCH  16  17
ENDBRANCH  15  16
ENDBRANCH   5  15
TORSDOF 13
ENDMDL
MODEL 7
REMARK VINA RESULT:    -6.139      2.143      6.399
REMARK INTER + INTRA:         -13.238
REMARK INTER:                 -11.801
REMARK INTRA:                  -1.437
REMARK UNBOUND:                -2.614
REMARK  Name = 
REMARK  15 active torsions:
REMARK  status: ('A' for Active; 'I' for Inactive)
REMARK    1  A    between atoms: C_1  and  C_2
REMARK    2  A    between atoms: C_2  and  C_3
REMARK    3  A    between atoms: C_3  and  C_4
REMARK    4  A    between atoms: C_4  and  C_5
REMARK    5  A    between atoms: C_5  and  C_6
REMARK    6  A    between atoms: C_6  and  O_7
REMARK    7  A    between atoms: C_6  and  C_8
REMARK    8  A    between atoms: C_12  and  O_13
REMARK    9  A    between atoms: O_13  and  C_14
REMARK   10  A    between atoms: C_14  and  C_15
REMARK   11  A    between atoms: C_18  and  O_19
REMARK   12  A    between atoms: O_19  and  C_20
REMARK   13  A    between atoms: C_20  and  C_21
REMARK   14  A    between atoms: C_21  and  O_23
REMARK   15  A    between atoms: O_23  and  C_24
REMARK                            x       y       z     vdW  Elec       q    Type
REMARK                         _______ _______ _______ _____ _____    ______ ____
ROOT
ATOM      1  C   UNL     1      25.886   1.337  51.942  0.00  0.00    +0.000 A 
ATOM      2  C   UNL     1      26.829   0.321  51.759  0.00  0.00    +0.000 A 
ATOM      3  C   UNL     1      26.695  -0.876  52.455  0.00  0.00    +0.000 A 
ATOM      4  C   UNL     1      25.574  -1.098  53.261  0.00  0.00    +0.000 A 
ATOM      5  C   UNL     1      24.530  -0.172  53.296  0.00  0.00    +0.000 A 
ATOM      6  C   UNL     1      24.698   1.048  52.637  0.00  0.00    +0.000 A 
ENDROOT
BRANCH   1   7
ATOM      7  C   UNL     1      26.242   2.762  51.576  0.00  0.00    +0.000 C 
BRANCH   7   8
ATOM      8  O   UNL     1      27.642   2.971  51.738  0.00  0.00    +0.000 OA
ATOM      9  H   UNL     1      27.869   2.922  52.680  0.00  0.00    +0.000 HD
ENDBRANCH   7   8
BRANCH   7  10
ATOM     10  C   UNL     1      25.822   3.099  50.126  0.00  0.00    +0.000 C 
BRANCH  10  11
ATOM     11  C   UNL     1      26.823   3.927  49.301  0.00  0.00    +0.000 C 
BRANCH  11  12
ATOM     12  C   UNL     1      26.443   5.403  49.185  0.00  0.00    +0.000 C 
BRANCH  12  14
ATOM     13  C   UNL     1      28.800   5.421  48.302  0.00  0.00    +0.000 C 
ATOM     14  C   UNL     1      27.504   6.207  48.428  0.00  0.00    +0.000 C 
ENDBRANCH  12  14
ENDBRANCH  11  12
ENDBRANCH  10  11
ENDBRANCH   7  10
ENDBRANCH   1   7
BRANCH   5  15
ATOM     15  O   UNL     1      23.413  -0.550  54.001  0.00  0.00    +0.000 OA
BRANCH  15  16
ATOM     16  C   UNL     1      22.305  -1.001  53.215  0.00  0.00    +0.000 C 
BRANCH  16  17
ATOM     17  C   UNL     1      21.555   0.131  52.547  0.00  0.00    +0.000 A 
ATOM     18  C   UNL     1      21.424   0.133  51.149  0.00  0.00    +0.000 A 
ATOM     19  C   UNL     1      20.738   1.156  50.487  0.00  0.00    +0.000 A 
ATOM     20  C   UNL     1      20.147   2.184  51.215  0.00  0.00    +0.000 A 
ATOM     21  C   UNL     1      20.217   2.156  52.611  0.00  0.00    +0.000 A 
ATOM     22  C   UNL     1      20.906   1.132  53.276  0.00  0.00    +0.000 A 
BRANCH  20  23
ATOM     23  O   UNL     1      19.525   3.279  50.679  0.00  0.00    +0.000 OA
BRANCH  23  24
ATOM     24  C   UNL     1      20.298   4.133  49.847  0.00  0.00    +0.000 C 
BRANCH  24  25
ATOM     25  C   UNL     1      20.657   5.525  50.364  0.00  0.00    +0.000 C 
ATOM     26  O   UNL     1      20.281   6.604  49.902  0.00  0.00    +0.000 OA
BRANCH  25  27
ATOM     27  O   UNL     1      21.470   5.390  51.459  0.00  0.00    +0.000 OA
ATOM     28  C   UNL     1      22.833   5.082  51.166  0.00  0.00    +0.000 C 
ENDBRANCH  25  27
ENDBRANCH  24  25
ENDBRANCH  23  24
ENDBRANCH  20  23
ENDBRANCH  16  17
ENDBRANCH  15  16
ENDBRANCH   5  15
TORSDOF 13
ENDMDL
MODEL 8
REMARK VINA RESULT:    -6.010      1.305      2.011
REMARK INTER + INTRA:         -13.016
REMARK INTER:                 -11.104
REMARK INTRA:                  -1.912
REMARK UNBOUND:                -2.614
REMARK  Name = 
REMARK  15 active torsions:
REMARK  status: ('A' for Active; 'I' for Inactive)
REMARK    1  A    between atoms: C_1  and  C_2
REMARK    2  A    between atoms: C_2  and  C_3
REMARK    3  A    between atoms: C_3  and  C_4
REMARK    4  A    between atoms: C_4  and  C_5
REMARK    5  A    between atoms: C_5  and  C_6
REMARK    6  A    between atoms: C_6  and  O_7
REMARK    7  A    between atoms: C_6  and  C_8
REMARK    8  A    between atoms: C_12  and  O_13
REMARK    9  A    between atoms: O_13  and  C_14
REMARK   10  A    between atoms: C_14  and  C_15
REMARK   11  A    between atoms: C_18  and  O_19
REMARK   12  A    between atoms: O_19  and  C_20
REMARK   13  A    between atoms: C_20  and  C_21
REMARK   14  A    between atoms: C_21  and  O_23
REMARK   15  A    between atoms: O_23  and  C_24
REMARK                            x       y       z     vdW  Elec       q    Type
REMARK                         _______ _______ _______ _____ _____    ______ ____
ROOT
ATOM      1  C   UNL     1      24.046   7.080  50.453  0.00  0.00    +0.000 A 
ATOM      2  C   UNL     1      22.955   7.740  49.879  0.00  0.00    +0.000 A 
ATOM      3  C   UNL     1      21.665   7.275  50.118  0.00  0.00    +0.000 A 
ATOM      4  C   UNL     1      21.454   6.212  51.001  0.00  0.00    +0.000 A 
ATOM      5  C   UNL     1      22.516   5.674  51.731  0.00  0.00    +0.000 A 
ATOM      6  C   UNL     1      23.811   6.111  51.445  0.00  0.00    +0.000 A 
ENDROOT
BRANCH   1   7
ATOM      7  C   UNL     1      25.427   7.266  49.864  0.00  0.00    +0.000 C 
BRANCH   7   8
ATOM      8  O   UNL     1      26.366   7.535  50.901  0.00  0.00    +0.000 OA
ATOM      9  H   UNL     1      27.160   7.943  50.521  0.00  0.00    +0.000 HD
ENDBRANCH   7   8
BRANCH   7  10
ATOM     10  C   UNL     1      25.873   6.026  49.056  0.00  0.00    +0.000 C 
BRANCH  10  11
ATOM     11  C   UNL     1      26.103   4.734  49.861  0.00  0.00    +0.000 C 
BRANCH  11  12
ATOM     12  C   UNL     1      25.356   3.525  49.300  0.00  0.00    +0.000 C 
BRANCH  12  14
ATOM     13  C   UNL     1      23.006   2.731  48.868  0.00  0.00    +0.000 C 
ATOM     14  C   UNL     1      23.970   3.905  48.772  0.00  0.00    +0.000 C 
ENDBRANCH  12  14
ENDBRANCH  11  12
ENDBRANCH  10  11
ENDBRANCH   7  10
ENDBRANCH   1   7
BRANCH   5  15
ATOM     15  O   UNL     1      22.182   4.734  52.677  0.00  0.00    +0.000 OA
BRANCH  15  16
ATOM     16  C   UNL     1      21.851   3.436  52.173  0.00  0.00    +0.000 C 
BRANCH  16  17
ATOM     17  C   UNL     1      22.880   2.385  52.526  0.00  0.00    +0.000 A 
ATOM     18  C   UNL     1      24.191   2.786  52.830  0.00  0.00    +0.000 A 
ATOM     19  C   UNL     1      25.175   1.851  53.165  0.00  0.00    +0.000 A 
ATOM     20  C   UNL     1      24.860   0.498  53.225  0.00  0.00    +0.000 A 
ATOM     21  C   UNL     1      23.543   0.095  52.986  0.00  0.00    +0.000 A 
ATOM     22  C   UNL     1      22.555   1.030  52.650  0.00  0.00    +0.000 A 
BRANCH  20  23
ATOM     23  O   UNL     1      25.751  -0.514  53.457  0.00  0.00    +0.000 OA
BRANCH  23  24
ATOM     24  C   UNL     1      26.954  -0.519  52.700  0.00  0.00    +0.000 C 
BRANCH  24  25
ATOM     25  C   UNL     1      28.269  -0.221  53.417  0.00  0.00    +0.000 C 
ATOM     26  O   UNL     1      29.046  -1.043  53.906  0.00  0.00    +0.000 OA
BRANCH  25  27
ATOM     27  O   UNL     1      28.470   1.135  53.418  0.00  0.00    +0.000 OA
ATOM     28  C   UNL     1      29.357   1.614  54.430  0.00  0.00    +0.000 C 
ENDBRANCH  25  27
ENDBRANCH  24  25
ENDBRANCH  23  24
ENDBRANCH  20  23
ENDBRANCH  16  17
ENDBRANCH  15  16
ENDBRANCH   5  15
TORSDOF 13
ENDMDL
MODEL 9
REMARK VINA RESULT:    -5.936      1.504      2.219
REMARK INTER + INTRA:         -12.888
REMARK INTER:                 -10.738
REMARK INTRA:                  -2.150
REMARK UNBOUND:                -2.614
REMARK  Name = 
REMARK  15 active torsions:
REMARK  status: ('A' for Active; 'I' for Inactive)
REMARK    1  A    between atoms: C_1  and  C_2
REMARK    2  A    between atoms: C_2  and  C_3
REMARK    3  A    between atoms: C_3  and  C_4
REMARK    4  A    between atoms: C_4  and  C_5
REMARK    5  A    between atoms: C_5  and  C_6
REMARK    6  A    between atoms: C_6  and  O_7
REMARK    7  A    between atoms: C_6  and  C_8
REMARK    8  A    between atoms: C_12  and  O_13
REMARK    9  A    between atoms: O_13  and  C_14
REMARK   10  A    between atoms: C_14  and  C_15
REMARK   11  A    between atoms: C_18  and  O_19
REMARK   12  A    between atoms: O_19  and  C_20
REMARK   13  A    between atoms: C_20  and  C_21
REMARK   14  A    between atoms: C_21  and  O_23
REMARK   15  A    between atoms: O_23  and  C_24
REMARK                            x       y       z     vdW  Elec       q    Type
REMARK                         _______ _______ _______ _____ _____    ______ ____
ROOT
ATOM      1  C   UNL     1      21.777   4.131  48.831  0.00  0.00    +0.000 A 
ATOM      2  C   UNL     1      22.261   3.325  47.796  0.00  0.00    +0.000 A 
ATOM      3  C   UNL     1      22.276   1.942  47.950  0.00  0.00    +0.000 A 
ATOM      4  C   UNL     1      21.725   1.357  49.094  0.00  0.00    +0.000 A 
ATOM      5  C   UNL     1      21.062   2.139  50.042  0.00  0.00    +0.000 A 
ATOM      6  C   UNL     1      21.099   3.528  49.905  0.00  0.00    +0.000 A 
ENDROOT
BRANCH   1   7
ATOM      7  C   UNL     1      22.163   5.594  48.882  0.00  0.00    +0.000 C 
BRANCH   7   8
ATOM      8  O   UNL     1      22.200   6.040  50.235  0.00  0.00    +0.000 OA
ATOM      9  H   UNL     1      23.120   6.215  50.492  0.00  0.00    +0.000 HD
ENDBRANCH   7   8
BRANCH   7  10
ATOM     10  C   UNL     1      23.529   5.846  48.205  0.00  0.00    +0.000 C 
BRANCH  10  11
ATOM     11  C   UNL     1      24.722   6.091  49.146  0.00  0.00    +0.000 C 
BRANCH  11  12
ATOM     12  C   UNL     1      25.745   4.956  49.143  0.00  0.00    +0.000 C 
BRANCH  12  14
ATOM     13  C   UNL     1      26.458   2.852  50.327  0.00  0.00    +0.000 C 
ATOM     14  C   UNL     1      25.293   3.778  50.011  0.00  0.00    +0.000 C 
ENDBRANCH  12  14
ENDBRANCH  11  12
ENDBRANCH  10  11
ENDBRANCH   7  10
ENDBRANCH   1   7
BRANCH   5  15
ATOM     15  O   UNL     1      20.431   1.454  51.052  0.00  0.00    +0.000 OA
BRANCH  15  16
ATOM     16  C   UNL     1      20.853   1.777  52.381  0.00  0.00    +0.000 C 
BRANCH  16  17
ATOM     17  C   UNL     1      22.128   1.069  52.784  0.00  0.00    +0.000 A 
ATOM     18  C   UNL     1      22.045  -0.164  53.449  0.00  0.00    +0.000 A 
ATOM     19  C   UNL     1      23.197  -0.856  53.838  0.00  0.00    +0.000 A 
ATOM     20  C   UNL     1      24.454  -0.339  53.546  0.00  0.00    +0.000 A 
ATOM     21  C   UNL     1      24.547   0.857  52.827  0.00  0.00    +0.000 A 
ATOM     22  C   UNL     1      23.394   1.553  52.437  0.00  0.00    +0.000 A 
BRANCH  20  23
ATOM     23  O   UNL     1      25.646  -0.877  53.946  0.00  0.00    +0.000 OA
BRANCH  23  24
ATOM     24  C   UNL     1      26.607  -1.169  52.941  0.00  0.00    +0.000 C 
BRANCH  24  25
ATOM     25  C   UNL     1      28.060  -0.763  53.179  0.00  0.00    +0.000 C 
ATOM     26  O   UNL     1      29.047  -1.502  53.158  0.00  0.00    +0.000 OA
BRANCH  25  27
ATOM     27  O   UNL     1      28.106   0.587  53.409  0.00  0.00    +0.000 OA
ATOM     28  C   UNL     1      29.085   1.006  54.361  0.00  0.00    +0.000 C 
ENDBRANCH  25  27
ENDBRANCH  24  25
ENDBRANCH  23  24
ENDBRANCH  20  23
ENDBRANCH  16  17
ENDBRANCH  15  16
ENDBRANCH   5  15
TORSDOF 13
ENDMDL
