MODEL 1
REMARK VINA RESULT:    -8.316      0.000      0.000
REMARK INTER + INTRA:         -13.769
REMARK INTER:                 -12.692
REMARK INTRA:                  -1.077
REMARK UNBOUND:                -1.077
REMARK  Name = 
REMARK  12 active torsions:
REMARK  status: ('A' for Active; 'I' for Inactive)
REMARK    1  A    between atoms: C_2  and  C_3
REMARK    2  A    between atoms: C_3  and  C_4
REMARK    3  A    between atoms: C_4  and  C_5
REMARK    4  A    between atoms: C_5  and  O_7
REMARK    5  A    between atoms: O_7  and  C_8
REMARK    6  A    between atoms: C_8  and  C_9
REMARK    7  A    between atoms: C_8  and  C_14
REMARK    8  A    between atoms: C_9  and  C_10
REMARK    9  A    between atoms: C_11  and  C_12
REMARK   10  A    between atoms: C_11  and  C_13
REMARK   11  A    between atoms: C_19  and  O_20
REMARK   12  A    between atoms: C_23  and  O_24
REMARK                            x       y       z     vdW  Elec       q    Type
REMARK                         _______ _______ _______ _____ _____    ______ ____
ROOT
ATOM      1  C   UNL     1      25.697   0.919  52.510  0.00  0.00    +0.000 C 
ATOM      2  C   UNL     1      25.471  -0.398  52.376  0.00  0.00    +0.000 C 
ATOM      3  C   UNL     1      26.548  -1.402  52.463  0.00  0.00    +0.000 C 
ATOM      4  O   UNL     1      26.338  -2.577  52.181  0.00  0.00    +0.000 OA
ATOM      5  C   UNL     1      27.864  -0.968  52.951  0.00  0.00    +0.000 A 
ATOM      6  C   UNL     1      28.863  -1.912  53.238  0.00  0.00    +0.000 A 
ATOM      7  C   UNL     1      30.090  -1.505  53.755  0.00  0.00    +0.000 A 
ATOM      8  C   UNL     1      30.318  -0.156  54.017  0.00  0.00    +0.000 A 
ATOM      9  C   UNL     1      29.329   0.785  53.722  0.00  0.00    +0.000 A 
ATOM     10  C   UNL     1      28.111   0.390  53.154  0.00  0.00    +0.000 A 
ATOM     11  C   UNL     1      27.101   1.384  52.710  0.00  0.00    +0.000 C 
ATOM     12  O   UNL     1      27.397   2.542  52.461  0.00  0.00    +0.000 OA
ENDROOT
BRANCH   6  13
ATOM     13  O   UNL     1      28.707  -3.257  53.043  0.00  0.00    +0.000 OA
ATOM     14  H   UNL     1      29.224  -3.864  53.535  0.00  0.00    +0.000 HD
ENDBRANCH   6  13
BRANCH   9  15
ATOM     15  O   UNL     1      29.553   2.095  54.043  0.00  0.00    +0.000 OA
ATOM     16  H   UNL     1      28.842   2.705  54.042  0.00  0.00    +0.000 HD
ENDBRANCH   9  15
BRANCH   1  17
ATOM     17  C   UNL     1      24.649   2.030  52.465  0.00  0.00    +0.000 C 
BRANCH  17  18
ATOM     18  O   UNL     1      23.484   1.697  53.275  0.00  0.00    +0.000 OA
BRANCH  18  19
ATOM     19  C   UNL     1      22.262   1.631  52.695  0.00  0.00    +0.000 C 
ATOM     20  O   UNL     1      21.590   2.599  52.361  0.00  0.00    +0.000 OA
BRANCH  19  21
ATOM     21  C   UNL     1      21.867   0.207  52.382  0.00  0.00    +0.000 C 
BRANCH  21  22
ATOM     22  C   UNL     1      20.978  -0.461  53.426  0.00  0.00    +0.000 C 
BRANCH  22  24
ATOM     23  C   UNL     1      22.771  -1.328  55.037  0.00  0.00    +0.000 C 
ATOM     24  C   UNL     1      21.568  -0.803  54.768  0.00  0.00    +0.000 C 
ENDBRANCH  22  24
ENDBRANCH  21  22
ENDBRANCH  19  21
ENDBRANCH  18  19
ENDBRANCH  17  18
BRANCH  17  25
ATOM     25  C   UNL     1      24.230   2.492  51.044  0.00  0.00    +0.000 C 
BRANCH  25  26
ATOM     26  C   UNL     1      24.554   3.889  50.564  0.00  0.00    +0.000 C 
ATOM     27  C   UNL     1      25.608   4.377  49.882  0.00  0.00    +0.000 C 
ATOM     28  C   UNL     1      25.698   5.855  49.588  0.00  0.00    +0.000 C 
ATOM     29  C   UNL     1      26.745   3.557  49.347  0.00  0.00    +0.000 C 
ENDBRANCH  25  26
ENDBRANCH  17  25
ENDBRANCH   1  17
TORSDOF 10
ENDMDL
MODEL 2
REMARK VINA RESULT:    -8.212      1.840      2.691
REMARK INTER + INTRA:         -13.609
REMARK INTER:                 -12.462
REMARK INTRA:                  -1.147
REMARK UNBOUND:                -1.077
REMARK  Name = 
REMARK  12 active torsions:
REMARK  status: ('A' for Active; 'I' for Inactive)
REMARK    1  A    between atoms: C_2  and  C_3
REMARK    2  A    between atoms: C_3  and  C_4
REMARK    3  A    between atoms: C_4  and  C_5
REMARK    4  A    between atoms: C_5  and  O_7
REMARK    5  A    between atoms: O_7  and  C_8
REMARK    6  A    between atoms: C_8  and  C_9
REMARK    7  A    between atoms: C_8  and  C_14
REMARK    8  A    between atoms: C_9  and  C_10
REMARK    9  A    between atoms: C_11  and  C_12
REMARK   10  A    between atoms: C_11  and  C_13
REMARK   11  A    between atoms: C_19  and  O_20
REMARK   12  A    between atoms: C_23  and  O_24
REMARK                            x       y       z     vdW  Elec       q    Type
REMARK                         _______ _______ _______ _____ _____    ______ ____
ROOT
ATOM      1  C   UNL     1      24.862   0.330  52.953  0.00  0.00    +0.000 C 
ATOM      2  C   UNL     1      25.167  -0.968  52.797  0.00  0.00    +0.000 C 
ATOM      3  C   UNL     1      26.556  -1.462  52.773  0.00  0.00    +0.000 C 
ATOM      4  O   UNL     1      26.806  -2.625  52.472  0.00  0.00    +0.000 OA
ATOM      5  C   UNL     1      27.627  -0.541  53.175  0.00  0.00    +0.000 A 
ATOM      6  C   UNL     1      28.938  -1.010  53.358  0.00  0.00    +0.000 A 
ATOM      7  C   UNL     1      29.941  -0.148  53.795  0.00  0.00    +0.000 A 
ATOM      8  C   UNL     1      29.636   1.180  54.080  0.00  0.00    +0.000 A 
ATOM      9  C   UNL     1      28.335   1.651  53.888  0.00  0.00    +0.000 A 
ATOM     10  C   UNL     1      27.332   0.804  53.400  0.00  0.00    +0.000 A 
ATOM     11  C   UNL     1      25.979   1.315  53.063  0.00  0.00    +0.000 C 
ATOM     12  O   UNL     1      25.771   2.495  52.828  0.00  0.00    +0.000 OA
ENDROOT
BRANCH   6  13
ATOM     13  O   UNL     1      29.312  -2.306  53.135  0.00  0.00    +0.000 OA
ATOM     14  H   UNL     1      29.903  -2.732  53.725  0.00  0.00    +0.000 HD
ENDBRANCH   6  13
BRANCH   9  15
ATOM     15  O   UNL     1      28.047   2.943  54.231  0.00  0.00    +0.000 OA
ATOM     16  H   UNL     1      27.244   3.142  54.671  0.00  0.00    +0.000 HD
ENDBRANCH   9  15
BRANCH   1  17
ATOM     17  C   UNL     1      23.460   0.933  53.020  0.00  0.00    +0.000 C 
BRANCH  17  18
ATOM     18  O   UNL     1      22.689   0.371  54.122  0.00  0.00    +0.000 OA
BRANCH  18  19
ATOM     19  C   UNL     1      21.719  -0.537  53.865  0.00  0.00    +0.000 C 
ATOM     20  O   UNL     1      21.913  -1.721  53.619  0.00  0.00    +0.000 OA
BRANCH  19  21
ATOM     21  C   UNL     1      20.339   0.050  54.047  0.00  0.00    +0.000 C 
BRANCH  21  22
ATOM     22  C   UNL     1      19.273  -0.502  53.106  0.00  0.00    +0.000 C 
BRANCH  22  24
ATOM     23  C   UNL     1      18.174   0.329  50.946  0.00  0.00    +0.000 C 
ATOM     24  C   UNL     1      19.240  -0.012  51.682  0.00  0.00    +0.000 C 
ENDBRANCH  22  24
ENDBRANCH  21  22
ENDBRANCH  19  21
ENDBRANCH  18  19
ENDBRANCH  17  18
BRANCH  17  25
ATOM     25  C   UNL     1      22.655   0.891  51.694  0.00  0.00    +0.000 C 
BRANCH  25  26
ATOM     26  C   UNL     1      22.926   1.898  50.599  0.00  0.00    +0.000 C 
ATOM     27  C   UNL     1      22.418   2.026  49.357  0.00  0.00    +0.000 C 
ATOM     28  C   UNL     1      22.929   3.111  48.440  0.00  0.00    +0.000 C 
ATOM     29  C   UNL     1      21.333   1.168  48.776  0.00  0.00    +0.000 C 
ENDBRANCH  25  26
ENDBRANCH  17  25
ENDBRANCH   1  17
TORSDOF 10
ENDMDL
MODEL 3
REMARK VINA RESULT:    -8.198      1.215      5.093
REMARK INTER + INTRA:         -13.589
REMARK INTER:                 -12.333
REMARK INTRA:                  -1.256
REMARK UNBOUND:                -1.077
REMARK  Name = 
REMARK  12 active torsions:
REMARK  status: ('A' for Active; 'I' for Inactive)
REMARK    1  A    between atoms: C_2  and  C_3
REMARK    2  A    between atoms: C_3  and  C_4
REMARK    3  A    between atoms: C_4  and  C_5
REMARK    4  A    between atoms: C_5  and  O_7
REMARK    5  A    between atoms: O_7  and  C_8
REMARK    6  A    between atoms: C_8  and  C_9
REMARK    7  A    between atoms: C_8  and  C_14
REMARK    8  A    between atoms: C_9  and  C_10
REMARK    9  A    between atoms: C_11  and  C_12
REMARK   10  A    between atoms: C_11  and  C_13
REMARK   11  A    between atoms: C_19  and  O_20
REMARK   12  A    between atoms: C_23  and  O_24
REMARK                            x       y       z     vdW  Elec       q    Type
REMARK                         _______ _______ _______ _____ _____    ______ ____
ROOT
ATOM      1  C   UNL     1      25.278   1.132  52.736  0.00  0.00    +0.000 C 
ATOM      2  C   UNL     1      26.160   2.096  53.042  0.00  0.00    +0.000 C 
ATOM      3  C   UNL     1      27.534   1.804  53.493  0.00  0.00    +0.000 C 
ATOM      4  O   UNL     1      28.262   2.697  53.915  0.00  0.00    +0.000 OA
ATOM      5  C   UNL     1      28.026   0.425  53.369  0.00  0.00    +0.000 A 
ATOM      6  C   UNL     1      29.379   0.130  53.598  0.00  0.00    +0.000 A 
ATOM      7  C   UNL     1      29.858  -1.166  53.425  0.00  0.00    +0.000 A 
ATOM      8  C   UNL     1      28.994  -2.170  52.995  0.00  0.00    +0.000 A 
ATOM      9  C   UNL     1      27.646  -1.880  52.776  0.00  0.00    +0.000 A 
ATOM     10  C   UNL     1      27.145  -0.591  52.997  0.00  0.00    +0.000 A 
ATOM     11  C   UNL     1      25.694  -0.292  52.901  0.00  0.00    +0.000 C 
ATOM     12  O   UNL     1      24.845  -1.163  53.003  0.00  0.00    +0.000 OA
ENDROOT
BRANCH   6  13
ATOM     13  O   UNL     1      30.299   1.064  53.989  0.00  0.00    +0.000 OA
ATOM     14  H   UNL     1      30.137   1.593  54.745  0.00  0.00    +0.000 HD
ENDBRANCH   6  13
BRANCH   9  15
ATOM     15  O   UNL     1      26.831  -2.868  52.296  0.00  0.00    +0.000 OA
ATOM     16  H   UNL     1      26.372  -2.745  51.488  0.00  0.00    +0.000 HD
ENDBRANCH   9  15
BRANCH   1  17
ATOM     17  C   UNL     1      23.849   1.333  52.234  0.00  0.00    +0.000 C 
BRANCH  17  18
ATOM     18  O   UNL     1      23.755   2.477  51.335  0.00  0.00    +0.000 OA
BRANCH  18  19
ATOM     19  C   UNL     1      23.273   2.306  50.082  0.00  0.00    +0.000 C 
ATOM     20  O   UNL     1      22.292   1.633  49.792  0.00  0.00    +0.000 OA
BRANCH  19  21
ATOM     21  C   UNL     1      24.015   3.155  49.076  0.00  0.00    +0.000 C 
BRANCH  21  22
ATOM     22  C   UNL     1      24.931   4.217  49.677  0.00  0.00    +0.000 C 
BRANCH  22  24
ATOM     23  C   UNL     1      27.309   4.627  48.816  0.00  0.00    +0.000 C 
ATOM     24  C   UNL     1      26.421   4.011  49.607  0.00  0.00    +0.000 C 
ENDBRANCH  22  24
ENDBRANCH  21  22
ENDBRANCH  19  21
ENDBRANCH  18  19
ENDBRANCH  17  18
BRANCH  17  25
ATOM     25  C   UNL     1      22.760   1.397  53.338  0.00  0.00    +0.000 C 
BRANCH  25  26
ATOM     26  C   UNL     1      21.444   0.674  53.161  0.00  0.00    +0.000 C 
ATOM     27  C   UNL     1      20.962  -0.454  53.719  0.00  0.00    +0.000 C 
ATOM     28  C   UNL     1      19.613  -0.987  53.299  0.00  0.00    +0.000 C 
ATOM     29  C   UNL     1      21.658  -1.259  54.776  0.00  0.00    +0.000 C 
ENDBRANCH  25  26
ENDBRANCH  17  25
ENDBRANCH   1  17
TORSDOF 10
ENDMDL
MODEL 4
REMARK VINA RESULT:    -8.093      1.634      4.537
REMARK INTER + INTRA:         -13.428
REMARK INTER:                 -12.158
REMARK INTRA:                  -1.269
REMARK UNBOUND:                -1.077
REMARK  Name = 
REMARK  12 active torsions:
REMARK  status: ('A' for Active; 'I' for Inactive)
REMARK    1  A    between atoms: C_2  and  C_3
REMARK    2  A    between atoms: C_3  and  C_4
REMARK    3  A    between atoms: C_4  and  C_5
REMARK    4  A    between atoms: C_5  and  O_7
REMARK    5  A    between atoms: O_7  and  C_8
REMARK    6  A    between atoms: C_8  and  C_9
REMARK    7  A    between atoms: C_8  and  C_14
REMARK    8  A    between atoms: C_9  and  C_10
REMARK    9  A    between atoms: C_11  and  C_12
REMARK   10  A    between atoms: C_11  and  C_13
REMARK   11  A    between atoms: C_19  and  O_20
REMARK   12  A    between atoms: C_23  and  O_24
REMARK                            x       y       z     vdW  Elec       q    Type
REMARK                         _______ _______ _______ _____ _____    ______ ____
ROOT
ATOM      1  C   UNL     1      25.541   1.089  52.468  0.00  0.00    +0.000 C 
ATOM      2  C   UNL     1      26.417   2.054  52.791  0.00  0.00    +0.000 C 
ATOM      3  C   UNL     1      27.747   1.764  53.359  0.00  0.00    +0.000 C 
ATOM      4  O   UNL     1      28.458   2.666  53.789  0.00  0.00    +0.000 OA
ATOM      5  C   UNL     1      28.219   0.373  53.343  0.00  0.00    +0.000 A 
ATOM      6  C   UNL     1      29.546   0.068  53.689  0.00  0.00    +0.000 A 
ATOM      7  C   UNL     1      30.010  -1.242  53.618  0.00  0.00    +0.000 A 
ATOM      8  C   UNL     1      29.162  -2.254  53.175  0.00  0.00    +0.000 A 
ATOM      9  C   UNL     1      27.839  -1.954  52.841  0.00  0.00    +0.000 A 
ATOM     10  C   UNL     1      27.349  -0.648  52.957  0.00  0.00    +0.000 A 
ATOM     11  C   UNL     1      25.915  -0.331  52.737  0.00  0.00    +0.000 C 
ATOM     12  O   UNL     1      25.044  -1.182  52.818  0.00  0.00    +0.000 OA
ENDROOT
BRANCH   6  13
ATOM     13  O   UNL     1      30.452   1.007  54.100  0.00  0.00    +0.000 OA
ATOM     14  H   UNL     1      30.842   1.586  53.476  0.00  0.00    +0.000 HD
ENDBRANCH   6  13
BRANCH   9  15
ATOM     15  O   UNL     1      27.043  -2.953  52.351  0.00  0.00    +0.000 OA
ATOM     16  H   UNL     1      26.752  -3.640  52.918  0.00  0.00    +0.000 HD
ENDBRANCH   9  15
BRANCH   1  17
ATOM     17  C   UNL     1      24.158   1.286  51.850  0.00  0.00    +0.000 C 
BRANCH  17  18
ATOM     18  O   UNL     1      24.204   2.206  50.720  0.00  0.00    +0.000 OA
BRANCH  18  19
ATOM     19  C   UNL     1      23.501   3.362  50.769  0.00  0.00    +0.000 C 
ATOM     20  O   UNL     1      23.727   4.290  51.535  0.00  0.00    +0.000 OA
BRANCH  19  21
ATOM     21  C   UNL     1      22.470   3.437  49.667  0.00  0.00    +0.000 C 
BRANCH  21  22
ATOM     22  C   UNL     1      22.482   2.265  48.690  0.00  0.00    +0.000 C 
BRANCH  22  24
ATOM     23  C   UNL     1      20.368   1.164  49.629  0.00  0.00    +0.000 C 
ATOM     24  C   UNL     1      21.469   1.165  48.865  0.00  0.00    +0.000 C 
ENDBRANCH  22  24
ENDBRANCH  21  22
ENDBRANCH  19  21
ENDBRANCH  18  19
ENDBRANCH  17  18
BRANCH  17  25
ATOM     25  C   UNL     1      23.035   1.678  52.846  0.00  0.00    +0.000 C 
BRANCH  25  26
ATOM     26  C   UNL     1      21.742   0.896  52.892  0.00  0.00    +0.000 C 
ATOM     27  C   UNL     1      21.356  -0.149  53.651  0.00  0.00    +0.000 C 
ATOM     28  C   UNL     1      20.003  -0.782  53.433  0.00  0.00    +0.000 C 
ATOM     29  C   UNL     1      22.170  -0.762  54.752  0.00  0.00    +0.000 C 
ENDBRANCH  25  26
ENDBRANCH  17  25
ENDBRANCH   1  17
TORSDOF 10
ENDMDL
MODEL 5
REMARK VINA RESULT:    -7.866      1.603      5.920
REMARK INTER + INTRA:         -13.082
REMARK INTER:                 -12.518
REMARK INTRA:                  -0.565
REMARK UNBOUND:                -1.077
REMARK  Name = 
REMARK  12 active torsions:
REMARK  status: ('A' for Active; 'I' for Inactive)
REMARK    1  A    between atoms: C_2  and  C_3
REMARK    2  A    between atoms: C_3  and  C_4
REMARK    3  A    between atoms: C_4  and  C_5
REMARK    4  A    between atoms: C_5  and  O_7
REMARK    5  A    between atoms: O_7  and  C_8
REMARK    6  A    between atoms: C_8  and  C_9
REMARK    7  A    between atoms: C_8  and  C_14
REMARK    8  A    between atoms: C_9  and  C_10
REMARK    9  A    between atoms: C_11  and  C_12
REMARK   10  A    between atoms: C_11  and  C_13
REMARK   11  A    between atoms: C_19  and  O_20
REMARK   12  A    between atoms: C_23  and  O_24
REMARK                            x       y       z     vdW  Elec       q    Type
REMARK                         _______ _______ _______ _____ _____    ______ ____
ROOT
ATOM      1  C   UNL     1      24.629   1.169  51.944  0.00  0.00    +0.000 C 
ATOM      2  C   UNL     1      23.615   1.736  51.272  0.00  0.00    +0.000 C 
ATOM      3  C   UNL     1      22.214   1.299  51.429  0.00  0.00    +0.000 C 
ATOM      4  O   UNL     1      21.335   1.727  50.689  0.00  0.00    +0.000 OA
ATOM      5  C   UNL     1      21.893   0.384  52.532  0.00  0.00    +0.000 A 
ATOM      6  C   UNL     1      20.556   0.091  52.847  0.00  0.00    +0.000 A 
ATOM      7  C   UNL     1      20.250  -0.731  53.928  0.00  0.00    +0.000 A 
ATOM      8  C   UNL     1      21.274  -1.244  54.719  0.00  0.00    +0.000 A 
ATOM      9  C   UNL     1      22.605  -0.962  54.401  0.00  0.00    +0.000 A 
ATOM     10  C   UNL     1      22.924  -0.178  53.286  0.00  0.00    +0.000 A 
ATOM     11  C   UNL     1      24.330   0.023  52.852  0.00  0.00    +0.000 C 
ATOM     12  O   UNL     1      25.224  -0.744  53.175  0.00  0.00    +0.000 OA
ENDROOT
BRANCH   6  13
ATOM     13  O   UNL     1      19.491   0.582  52.142  0.00  0.00    +0.000 OA
ATOM     14  H   UNL     1      19.271   1.490  52.198  0.00  0.00    +0.000 HD
ENDBRANCH   6  13
BRANCH   9  15
ATOM     15  O   UNL     1      23.590  -1.427  55.228  0.00  0.00    +0.000 OA
ATOM     16  H   UNL     1      23.904  -2.305  55.134  0.00  0.00    +0.000 HD
ENDBRANCH   9  15
BRANCH   1  17
ATOM     17  C   UNL     1      26.102   1.568  51.872  0.00  0.00    +0.000 C 
BRANCH  17  18
ATOM     18  O   UNL     1      26.521   2.282  53.072  0.00  0.00    +0.000 OA
BRANCH  18  19
ATOM     19  C   UNL     1      27.719   1.999  53.635  0.00  0.00    +0.000 C 
ATOM     20  O   UNL     1      28.723   2.694  53.538  0.00  0.00    +0.000 OA
BRANCH  19  21
ATOM     21  C   UNL     1      27.647   0.777  54.521  0.00  0.00    +0.000 C 
BRANCH  21  22
ATOM     22  C   UNL     1      28.967   0.035  54.706  0.00  0.00    +0.000 C 
BRANCH  22  24
ATOM     23  C   UNL     1      29.185  -2.020  53.191  0.00  0.00    +0.000 C 
ATOM     24  C   UNL     1      29.510  -0.773  53.557  0.00  0.00    +0.000 C 
ENDBRANCH  22  24
ENDBRANCH  21  22
ENDBRANCH  19  21
ENDBRANCH  18  19
ENDBRANCH  17  18
BRANCH  17  25
ATOM     25  C   UNL     1      26.522   2.334  50.589  0.00  0.00    +0.000 C 
BRANCH  25  26
ATOM     26  C   UNL     1      25.848   3.635  50.217  0.00  0.00    +0.000 C 
ATOM     27  C   UNL     1      26.260   4.670  49.458  0.00  0.00    +0.000 C 
ATOM     28  C   UNL     1      25.385   5.891  49.308  0.00  0.00    +0.000 C 
ATOM     29  C   UNL     1      27.554   4.724  48.702  0.00  0.00    +0.000 C 
ENDBRANCH  25  26
ENDBRANCH  17  25
ENDBRANCH   1  17
TORSDOF 10
ENDMDL
MODEL 6
REMARK VINA RESULT:    -7.764      2.295      4.723
REMARK INTER + INTRA:         -12.925
REMARK INTER:                 -11.268
REMARK INTRA:                  -1.658
REMARK UNBOUND:                -1.077
REMARK  Name = 
REMARK  12 active torsions:
REMARK  status: ('A' for Active; 'I' for Inactive)
REMARK    1  A    between atoms: C_2  and  C_3
REMARK    2  A    between atoms: C_3  and  C_4
REMARK    3  A    between atoms: C_4  and  C_5
REMARK    4  A    between atoms: C_5  and  O_7
REMARK    5  A    between atoms: O_7  and  C_8
REMARK    6  A    between atoms: C_8  and  C_9
REMARK    7  A    between atoms: C_8  and  C_14
REMARK    8  A    between atoms: C_9  and  C_10
REMARK    9  A    between atoms: C_11  and  C_12
REMARK   10  A    between atoms: C_11  and  C_13
REMARK   11  A    between atoms: C_19  and  O_20
REMARK   12  A    between atoms: C_23  and  O_24
REMARK                            x       y       z     vdW  Elec       q    Type
REMARK                         _______ _______ _______ _____ _____    ______ ____
ROOT
ATOM      1  C   UNL     1      24.663   2.520  51.532  0.00  0.00    +0.000 C 
ATOM      2  C   UNL     1      23.936   1.602  52.189  0.00  0.00    +0.000 C 
ATOM      3  C   UNL     1      24.543   0.597  53.083  0.00  0.00    +0.000 C 
ATOM      4  O   UNL     1      23.874  -0.322  53.542  0.00  0.00    +0.000 OA
ATOM      5  C   UNL     1      25.956   0.761  53.452  0.00  0.00    +0.000 A 
ATOM      6  C   UNL     1      26.529  -0.048  54.447  0.00  0.00    +0.000 A 
ATOM      7  C   UNL     1      27.851   0.145  54.838  0.00  0.00    +0.000 A 
ATOM      8  C   UNL     1      28.601   1.165  54.260  0.00  0.00    +0.000 A 
ATOM      9  C   UNL     1      28.036   1.964  53.263  0.00  0.00    +0.000 A 
ATOM     10  C   UNL     1      26.724   1.744  52.827  0.00  0.00    +0.000 A 
ATOM     11  C   UNL     1      26.149   2.491  51.680  0.00  0.00    +0.000 C 
ATOM     12  O   UNL     1      26.852   3.031  50.840  0.00  0.00    +0.000 OA
ENDROOT
BRANCH   6  13
ATOM     13  O   UNL     1      25.851  -1.048  55.088  0.00  0.00    +0.000 OA
ATOM     14  H   UNL     1      25.752  -1.025  56.019  0.00  0.00    +0.000 HD
ENDBRANCH   6  13
BRANCH   9  15
ATOM     15  O   UNL     1      28.772   2.997  52.753  0.00  0.00    +0.000 OA
ATOM     16  H   UNL     1      29.182   3.611  53.332  0.00  0.00    +0.000 HD
ENDBRANCH   9  15
BRANCH   1  17
ATOM     17  C   UNL     1      24.127   3.615  50.612  0.00  0.00    +0.000 C 
BRANCH  17  18
ATOM     18  O   UNL     1      22.991   4.306  51.209  0.00  0.00    +0.000 OA
BRANCH  18  19
ATOM     19  C   UNL     1      22.911   5.654  51.131  0.00  0.00    +0.000 C 
ATOM     20  O   UNL     1      21.868   6.294  51.071  0.00  0.00    +0.000 OA
BRANCH  19  21
ATOM     21  C   UNL     1      24.269   6.305  51.258  0.00  0.00    +0.000 C 
BRANCH  21  22
ATOM     22  C   UNL     1      24.639   7.253  50.121  0.00  0.00    +0.000 C 
BRANCH  22  24
ATOM     23  C   UNL     1      26.397   5.936  48.802  0.00  0.00    +0.000 C 
ATOM     24  C   UNL     1      25.289   6.685  48.888  0.00  0.00    +0.000 C 
ENDBRANCH  22  24
ENDBRANCH  21  22
ENDBRANCH  19  21
ENDBRANCH  18  19
ENDBRANCH  17  18
BRANCH  17  25
ATOM     25  C   UNL     1      23.811   3.167  49.160  0.00  0.00    +0.000 C 
BRANCH  25  26
ATOM     26  C   UNL     1      22.392   3.202  48.638  0.00  0.00    +0.000 C 
ATOM     27  C   UNL     1      21.391   2.303  48.712  0.00  0.00    +0.000 C 
ATOM     28  C   UNL     1      20.073   2.583  48.032  0.00  0.00    +0.000 C 
ATOM     29  C   UNL     1      21.455   0.999  49.451  0.00  0.00    +0.000 C 
ENDBRANCH  25  26
ENDBRANCH  17  25
ENDBRANCH   1  17
TORSDOF 10
ENDMDL
MODEL 7
REMARK VINA RESULT:    -7.737      2.732      4.108
REMARK INTER + INTRA:         -12.885
REMARK INTER:                 -10.915
REMARK INTRA:                  -1.970
REMARK UNBOUND:                -1.077
REMARK  Name = 
REMARK  12 active torsions:
REMARK  status: ('A' for Active; 'I' for Inactive)
REMARK    1  A    between atoms: C_2  and  C_3
REMARK    2  A    between atoms: C_3  and  C_4
REMARK    3  A    between atoms: C_4  and  C_5
REMARK    4  A    between atoms: C_5  and  O_7
REMARK    5  A    between atoms: O_7  and  C_8
REMARK    6  A    between atoms: C_8  and  C_9
REMARK    7  A    between atoms: C_8  and  C_14
REMARK    8  A    between atoms: C_9  and  C_10
REMARK    9  A    between atoms: C_11  and  C_12
REMARK   10  A    between atoms: C_11  and  C_13
REMARK   11  A    between atoms: C_19  and  O_20
REMARK   12  A    between atoms: C_23  and  O_24
REMARK                            x       y       z     vdW  Elec       q    Type
REMARK                         _______ _______ _______ _____ _____    ______ ____
ROOT
ATOM      1  C   UNL     1      24.754   2.500  51.440  0.00  0.00    +0.000 C 
ATOM      2  C   UNL     1      24.018   1.575  52.076  0.00  0.00    +0.000 C 
ATOM      3  C   UNL     1      24.608   0.578  52.989  0.00  0.00    +0.000 C 
ATOM      4  O   UNL     1      23.936  -0.349  53.429  0.00  0.00    +0.000 OA
ATOM      5  C   UNL     1      26.007   0.757  53.400  0.00  0.00    +0.000 A 
ATOM      6  C   UNL     1      26.559  -0.045  54.413  0.00  0.00    +0.000 A 
ATOM      7  C   UNL     1      27.866   0.163  54.843  0.00  0.00    +0.000 A 
ATOM      8  C   UNL     1      28.622   1.192  54.287  0.00  0.00    +0.000 A 
ATOM      9  C   UNL     1      28.079   1.983  53.273  0.00  0.00    +0.000 A 
ATOM     10  C   UNL     1      26.782   1.748  52.798  0.00  0.00    +0.000 A 
ATOM     11  C   UNL     1      26.234   2.488  51.633  0.00  0.00    +0.000 C 
ATOM     12  O   UNL     1      26.956   3.035  50.814  0.00  0.00    +0.000 OA
ENDROOT
BRANCH   6  13
ATOM     13  O   UNL     1      25.872  -1.052  55.034  0.00  0.00    +0.000 OA
ATOM     14  H   UNL     1      25.413  -0.882  55.833  0.00  0.00    +0.000 HD
ENDBRANCH   6  13
BRANCH   9  15
ATOM     15  O   UNL     1      28.819   3.024  52.785  0.00  0.00    +0.000 OA
ATOM     16  H   UNL     1      29.665   2.865  52.416  0.00  0.00    +0.000 HD
ENDBRANCH   9  15
BRANCH   1  17
ATOM     17  C   UNL     1      24.234   3.589  50.503  0.00  0.00    +0.000 C 
BRANCH  17  18
ATOM     18  O   UNL     1      23.072   4.266  51.064  0.00  0.00    +0.000 OA
BRANCH  18  19
ATOM     19  C   UNL     1      23.113   5.603  51.274  0.00  0.00    +0.000 C 
ATOM     20  O   UNL     1      24.134   6.278  51.307  0.00  0.00    +0.000 OA
BRANCH  19  21
ATOM     21  C   UNL     1      21.727   6.203  51.336  0.00  0.00    +0.000 C 
BRANCH  21  22
ATOM     22  C   UNL     1      20.796   5.797  50.198  0.00  0.00    +0.000 C 
BRANCH  22  24
ATOM     23  C   UNL     1      19.614   3.851  51.373  0.00  0.00    +0.000 C 
ATOM     24  C   UNL     1      19.653   4.863  50.496  0.00  0.00    +0.000 C 
ENDBRANCH  22  24
ENDBRANCH  21  22
ENDBRANCH  19  21
ENDBRANCH  18  19
ENDBRANCH  17  18
BRANCH  17  25
ATOM     25  C   UNL     1      23.968   3.137  49.042  0.00  0.00    +0.000 C 
BRANCH  25  26
ATOM     26  C   UNL     1      22.575   3.205  48.460  0.00  0.00    +0.000 C 
ATOM     27  C   UNL     1      21.549   2.332  48.491  0.00  0.00    +0.000 C 
ATOM     28  C   UNL     1      20.269   2.643  47.754  0.00  0.00    +0.000 C 
ATOM     29  C   UNL     1      21.548   1.028  49.234  0.00  0.00    +0.000 C 
ENDBRANCH  25  26
ENDBRANCH  17  25
ENDBRANCH   1  17
TORSDOF 10
ENDMDL
MODEL 8
REMARK VINA RESULT:    -7.714      2.438      4.794
REMARK INTER + INTRA:         -12.850
REMARK INTER:                 -11.640
REMARK INTRA:                  -1.210
REMARK UNBOUND:                -1.077
REMARK  Name = 
REMARK  12 active torsions:
REMARK  status: ('A' for Active; 'I' for Inactive)
REMARK    1  A    between atoms: C_2  and  C_3
REMARK    2  A    between atoms: C_3  and  C_4
REMARK    3  A    between atoms: C_4  and  C_5
REMARK    4  A    between atoms: C_5  and  O_7
REMARK    5  A    between atoms: O_7  and  C_8
REMARK    6  A    between atoms: C_8  and  C_9
REMARK    7  A    between atoms: C_8  and  C_14
REMARK    8  A    between atoms: C_9  and  C_10
REMARK    9  A    between atoms: C_11  and  C_12
REMARK   10  A    between atoms: C_11  and  C_13
REMARK   11  A    between atoms: C_19  and  O_20
REMARK   12  A    between atoms: C_23  and  O_24
REMARK                            x       y       z     vdW  Elec       q    Type
REMARK                         _______ _______ _______ _____ _____    ______ ____
ROOT
ATOM      1  C   UNL     1      25.330   2.687  51.168  0.00  0.00    +0.000 C 
ATOM      2  C   UNL     1      26.361   1.870  51.436  0.00  0.00    +0.000 C 
ATOM      3  C   UNL     1      26.302   0.830  52.480  0.00  0.00    +0.000 C 
ATOM      4  O   UNL     1      27.307   0.209  52.808  0.00  0.00    +0.000 OA
ATOM      5  C   UNL     1      24.995   0.519  53.075  0.00  0.00    +0.000 A 
ATOM      6  C   UNL     1      24.847  -0.588  53.926  0.00  0.00    +0.000 A 
ATOM      7  C   UNL     1      23.597  -0.917  54.445  0.00  0.00    +0.000 A 
ATOM      8  C   UNL     1      22.482  -0.160  54.094  0.00  0.00    +0.000 A 
ATOM      9  C   UNL     1      22.630   0.947  53.256  0.00  0.00    +0.000 A 
ATOM     10  C   UNL     1      23.891   1.316  52.772  0.00  0.00    +0.000 A 
ATOM     11  C   UNL     1      24.091   2.563  51.991  0.00  0.00    +0.000 C 
ATOM     12  O   UNL     1      23.304   3.495  52.045  0.00  0.00    +0.000 OA
ENDROOT
BRANCH   6  13
ATOM     13  O   UNL     1      25.884  -1.402  54.291  0.00  0.00    +0.000 OA
ATOM     14  H   UNL     1      26.239  -1.349  55.157  0.00  0.00    +0.000 HD
ENDBRANCH   6  13
BRANCH   9  15
ATOM     15  O   UNL     1      21.512   1.639  52.879  0.00  0.00    +0.000 OA
ATOM     16  H   UNL     1      21.191   1.566  52.001  0.00  0.00    +0.000 HD
ENDBRANCH   9  15
BRANCH   1  17
ATOM     17  C   UNL     1      25.284   3.770  50.092  0.00  0.00    +0.000 C 
BRANCH  17  18
ATOM     18  O   UNL     1      24.311   3.452  49.054  0.00  0.00    +0.000 OA
BRANCH  18  19
ATOM     19  C   UNL     1      23.331   4.337  48.761  0.00  0.00    +0.000 C 
ATOM     20  O   UNL     1      23.352   5.528  49.045  0.00  0.00    +0.000 OA
BRANCH  19  21
ATOM     21  C   UNL     1      22.245   3.712  47.917  0.00  0.00    +0.000 C 
BRANCH  21  22
ATOM     22  C   UNL     1      22.448   2.234  47.594  0.00  0.00    +0.000 C 
BRANCH  22  24
ATOM     23  C   UNL     1      21.622   0.969  49.663  0.00  0.00    +0.000 C 
ATOM     24  C   UNL     1      21.638   1.211  48.345  0.00  0.00    +0.000 C 
ENDBRANCH  22  24
ENDBRANCH  21  22
ENDBRANCH  19  21
ENDBRANCH  18  19
ENDBRANCH  17  18
BRANCH  17  25
ATOM     25  C   UNL     1      26.656   4.153  49.475  0.00  0.00    +0.000 C 
BRANCH  25  26
ATOM     26  C   UNL     1      26.831   5.466  48.747  0.00  0.00    +0.000 C 
ATOM     27  C   UNL     1      27.927   6.075  48.253  0.00  0.00    +0.000 C 
ATOM     28  C   UNL     1      27.812   7.440  47.618  0.00  0.00    +0.000 C 
ATOM     29  C   UNL     1      29.312   5.497  48.259  0.00  0.00    +0.000 C 
ENDBRANCH  25  26
ENDBRANCH  17  25
ENDBRANCH   1  17
TORSDOF 10
ENDMDL
MODEL 9
REMARK VINA RESULT:    -7.657      2.244      7.162
REMARK INTER + INTRA:         -12.763
REMARK INTER:                 -11.774
REMARK INTRA:                  -0.989
REMARK UNBOUND:                -1.077
REMARK  Name = 
REMARK  12 active torsions:
REMARK  status: ('A' for Active; 'I' for Inactive)
REMARK    1  A    between atoms: C_2  and  C_3
REMARK    2  A    between atoms: C_3  and  C_4
REMARK    3  A    between atoms: C_4  and  C_5
REMARK    4  A    between atoms: C_5  and  O_7
REMARK    5  A    between atoms: O_7  and  C_8
REMARK    6  A    between atoms: C_8  and  C_9
REMARK    7  A    between atoms: C_8  and  C_14
REMARK    8  A    between atoms: C_9  and  C_10
REMARK    9  A    between atoms: C_11  and  C_12
REMARK   10  A    between atoms: C_11  and  C_13
REMARK   11  A    between atoms: C_19  and  O_20
REMARK   12  A    between atoms: C_23  and  O_24
REMARK                            x       y       z     vdW  Elec       q    Type
REMARK                         _______ _______ _______ _____ _____    ______ ____
ROOT
ATOM      1  C   UNL     1      23.869   2.613  51.913  0.00  0.00    +0.000 C 
ATOM      2  C   UNL     1      23.551   2.123  50.704  0.00  0.00    +0.000 C 
ATOM      3  C   UNL     1      23.153   2.987  49.576  0.00  0.00    +0.000 C 
ATOM      4  O   UNL     1      22.718   2.503  48.536  0.00  0.00    +0.000 OA
ATOM      5  C   UNL     1      23.346   4.437  49.710  0.00  0.00    +0.000 A 
ATOM      6  C   UNL     1      23.169   5.284  48.604  0.00  0.00    +0.000 A 
ATOM      7  C   UNL     1      23.408   6.650  48.717  0.00  0.00    +0.000 A 
ATOM      8  C   UNL     1      23.853   7.178  49.927  0.00  0.00    +0.000 A 
ATOM      9  C   UNL     1      24.019   6.338  51.031  0.00  0.00    +0.000 A 
ATOM     10  C   UNL     1      23.732   4.971  50.940  0.00  0.00    +0.000 A 
ATOM     11  C   UNL     1      23.773   4.086  52.133  0.00  0.00    +0.000 C 
ATOM     12  O   UNL     1      23.681   4.525  53.268  0.00  0.00    +0.000 OA
ENDROOT
BRANCH   6  13
ATOM     13  O   UNL     1      22.769   4.841  47.373  0.00  0.00    +0.000 OA
ATOM     14  H   UNL     1      21.903   5.028  47.067  0.00  0.00    +0.000 HD
ENDBRANCH   6  13
BRANCH   9  15
ATOM     15  O   UNL     1      24.514   6.868  52.190  0.00  0.00    +0.000 OA
ATOM     16  H   UNL     1      23.957   6.959  52.938  0.00  0.00    +0.000 HD
ENDBRANCH   9  15
BRANCH   1  17
ATOM     17  C   UNL     1      24.320   1.807  53.130  0.00  0.00    +0.000 C 
BRANCH  17  18
ATOM     18  O   UNL     1      25.615   2.260  53.621  0.00  0.00    +0.000 OA
BRANCH  18  19
ATOM     19  C   UNL     1      26.748   1.687  53.151  0.00  0.00    +0.000 C 
ATOM     20  O   UNL     1      27.232   1.891  52.045  0.00  0.00    +0.000 OA
BRANCH  19  21
ATOM     21  C   UNL     1      27.433   0.852  54.208  0.00  0.00    +0.000 C 
BRANCH  21  22
ATOM     22  C   UNL     1      28.946   1.027  54.289  0.00  0.00    +0.000 C 
BRANCH  22  24
ATOM     23  C   UNL     1      29.799  -1.313  53.688  0.00  0.00    +0.000 C 
ATOM     24  C   UNL     1      29.829   0.023  53.596  0.00  0.00    +0.000 C 
ENDBRANCH  22  24
ENDBRANCH  21  22
ENDBRANCH  19  21
ENDBRANCH  18  19
ENDBRANCH  17  18
BRANCH  17  25
ATOM     25  C   UNL     1      24.297   0.265  52.952  0.00  0.00    +0.000 C 
BRANCH  25  26
ATOM     26  C   UNL     1      23.266  -0.576  53.670  0.00  0.00    +0.000 C 
ATOM     27  C   UNL     1      21.931  -0.677  53.517  0.00  0.00    +0.000 C 
ATOM     28  C   UNL     1      21.131  -1.568  54.436  0.00  0.00    +0.000 C 
ATOM     29  C   UNL     1      21.128   0.029  52.465  0.00  0.00    +0.000 C 
ENDBRANCH  25  26
ENDBRANCH  17  25
ENDBRANCH   1  17
TORSDOF 10
ENDMDL
