MODEL 1
REMARK VINA RESULT:    -8.206      0.000      0.000
REMARK INTER + INTRA:         -14.926
REMARK INTER:                 -13.004
REMARK INTRA:                  -1.922
REMARK UNBOUND:                -1.922
REMARK  Name = 
REMARK  13 active torsions:
REMARK  status: ('A' for Active; 'I' for Inactive)
REMARK    1  A    between atoms: C_2  and  C_3
REMARK    2  A    between atoms: C_3  and  C_4
REMARK    3  A    between atoms: C_4  and  C_5
REMARK    4  A    between atoms: C_6  and  C_7
REMARK    5  A    between atoms: C_7  and  O_9
REMARK    6  A    between atoms: O_9  and  C_10
REMARK    7  A    between atoms: C_10  and  C_11
REMARK    8  A    between atoms: C_10  and  C_16
REMARK    9  A    between atoms: C_11  and  C_12
REMARK   10  A    between atoms: C_13  and  C_14
REMARK   11  A    between atoms: C_13  and  C_15
REMARK   12  A    between atoms: C_21  and  O_22
REMARK   13  A    between atoms: C_25  and  O_26
REMARK                            x       y       z     vdW  Elec       q    Type
REMARK                         _______ _______ _______ _____ _____    ______ ____
ROOT
ATOM      1  C   UNL     1      25.414   0.950  52.408  0.00  0.00    +0.000 C 
ATOM      2  C   UNL     1      25.515  -0.315  51.960  0.00  0.00    +0.000 C 
ATOM      3  C   UNL     1      26.592  -1.238  52.415  0.00  0.00    +0.000 C 
ATOM      4  O   UNL     1      26.547  -2.442  52.197  0.00  0.00    +0.000 OA
ATOM      5  C   UNL     1      27.766  -0.644  53.085  0.00  0.00    +0.000 A 
ATOM      6  C   UNL     1      28.928  -1.379  53.343  0.00  0.00    +0.000 A 
ATOM      7  C   UNL     1      30.048  -0.759  53.897  0.00  0.00    +0.000 A 
ATOM      8  C   UNL     1      30.024   0.610  54.175  0.00  0.00    +0.000 A 
ATOM      9  C   UNL     1      28.855   1.334  53.953  0.00  0.00    +0.000 A 
ATOM     10  C   UNL     1      27.714   0.695  53.453  0.00  0.00    +0.000 A 
ATOM     11  C   UNL     1      26.392   1.341  53.466  0.00  0.00    +0.000 C 
ATOM     12  O   UNL     1      26.067   2.038  54.414  0.00  0.00    +0.000 OA
ENDROOT
BRANCH   6  13
ATOM     13  O   UNL     1      29.035  -2.719  53.091  0.00  0.00    +0.000 OA
ATOM     14  H   UNL     1      28.782  -3.061  52.256  0.00  0.00    +0.000 HD
ENDBRANCH   6  13
BRANCH   9  15
ATOM     15  O   UNL     1      28.837   2.679  54.187  0.00  0.00    +0.000 OA
ATOM     16  H   UNL     1      28.295   3.238  53.667  0.00  0.00    +0.000 HD
ENDBRANCH   9  15
BRANCH   1  17
ATOM     17  C   UNL     1      24.266   1.900  52.078  0.00  0.00    +0.000 C 
BRANCH  17  18
ATOM     18  O   UNL     1      23.461   1.435  50.949  0.00  0.00    +0.000 OA
BRANCH  18  19
ATOM     19  C   UNL     1      22.126   1.454  51.148  0.00  0.00    +0.000 C 
ATOM     20  O   UNL     1      21.376   2.312  50.705  0.00  0.00    +0.000 OA
BRANCH  19  22
ATOM     21  C   UNL     1      21.204   0.215  53.165  0.00  0.00    +0.000 C 
ATOM     22  C   UNL     1      21.601   0.271  51.881  0.00  0.00    +0.000 C 
BRANCH  21  23
ATOM     23  C   UNL     1      20.812  -1.037  53.934  0.00  0.00    +0.000 C 
BRANCH  23  24
ATOM     24  C   UNL     1      21.899  -1.675  54.822  0.00  0.00    +0.000 C 
BRANCH  24  26
ATOM     25  C   UNL     1      24.284  -1.224  55.499  0.00  0.00    +0.000 C 
ATOM     26  C   UNL     1      23.252  -1.029  54.665  0.00  0.00    +0.000 C 
ENDBRANCH  24  26
ENDBRANCH  23  24
ENDBRANCH  21  23
ENDBRANCH  19  22
ENDBRANCH  18  19
ENDBRANCH  17  18
BRANCH  17  27
ATOM     27  C   UNL     1      24.647   3.348  51.663  0.00  0.00    +0.000 C 
BRANCH  27  28
ATOM     28  C   UNL     1      25.781   3.390  50.663  0.00  0.00    +0.000 C 
ATOM     29  C   UNL     1      26.099   4.430  49.873  0.00  0.00    +0.000 C 
ATOM     30  C   UNL     1      27.232   4.327  48.892  0.00  0.00    +0.000 C 
ATOM     31  C   UNL     1      25.349   5.730  49.895  0.00  0.00    +0.000 C 
ENDBRANCH  27  28
ENDBRANCH  17  27
ENDBRANCH   1  17
TORSDOF 11
ENDMDL
MODEL 2
REMARK VINA RESULT:    -7.880      1.608      4.357
REMARK INTER + INTRA:         -14.409
REMARK INTER:                 -12.525
REMARK INTRA:                  -1.884
REMARK UNBOUND:                -1.922
REMARK  Name = 
REMARK  13 active torsions:
REMARK  status: ('A' for Active; 'I' for Inactive)
REMARK    1  A    between atoms: C_2  and  C_3
REMARK    2  A    between atoms: C_3  and  C_4
REMARK    3  A    between atoms: C_4  and  C_5
REMARK    4  A    between atoms: C_6  and  C_7
REMARK    5  A    between atoms: C_7  and  O_9
REMARK    6  A    between atoms: O_9  and  C_10
REMARK    7  A    between atoms: C_10  and  C_11
REMARK    8  A    between atoms: C_10  and  C_16
REMARK    9  A    between atoms: C_11  and  C_12
REMARK   10  A    between atoms: C_13  and  C_14
REMARK   11  A    between atoms: C_13  and  C_15
REMARK   12  A    between atoms: C_21  and  O_22
REMARK   13  A    between atoms: C_25  and  O_26
REMARK                            x       y       z     vdW  Elec       q    Type
REMARK                         _______ _______ _______ _____ _____    ______ ____
ROOT
ATOM      1  C   UNL     1      25.649   0.888  52.330  0.00  0.00    +0.000 C 
ATOM      2  C   UNL     1      25.655  -0.415  51.989  0.00  0.00    +0.000 C 
ATOM      3  C   UNL     1      26.685  -1.366  52.491  0.00  0.00    +0.000 C 
ATOM      4  O   UNL     1      26.556  -2.579  52.378  0.00  0.00    +0.000 OA
ATOM      5  C   UNL     1      27.915  -0.798  53.078  0.00  0.00    +0.000 A 
ATOM      6  C   UNL     1      29.035  -1.584  53.366  0.00  0.00    +0.000 A 
ATOM      7  C   UNL     1      30.210  -0.996  53.836  0.00  0.00    +0.000 A 
ATOM      8  C   UNL     1      30.283   0.389  53.997  0.00  0.00    +0.000 A 
ATOM      9  C   UNL     1      29.155   1.169  53.745  0.00  0.00    +0.000 A 
ATOM     10  C   UNL     1      27.960   0.568  53.331  0.00  0.00    +0.000 A 
ATOM     11  C   UNL     1      26.684   1.299  53.325  0.00  0.00    +0.000 C 
ATOM     12  O   UNL     1      26.435   2.093  54.218  0.00  0.00    +0.000 OA
ENDROOT
BRANCH   6  13
ATOM     13  O   UNL     1      29.048  -2.945  53.226  0.00  0.00    +0.000 OA
ATOM     14  H   UNL     1      29.671  -3.352  52.655  0.00  0.00    +0.000 HD
ENDBRANCH   6  13
BRANCH   9  15
ATOM     15  O   UNL     1      29.232   2.526  53.864  0.00  0.00    +0.000 OA
ATOM     16  H   UNL     1      28.449   3.036  53.932  0.00  0.00    +0.000 HD
ENDBRANCH   9  15
BRANCH   1  17
ATOM     17  C   UNL     1      24.555   1.881  51.951  0.00  0.00    +0.000 C 
BRANCH  17  18
ATOM     18  O   UNL     1      25.079   3.223  51.698  0.00  0.00    +0.000 OA
BRANCH  18  19
ATOM     19  C   UNL     1      25.652   3.399  50.489  0.00  0.00    +0.000 C 
ATOM     20  O   UNL     1      26.853   3.541  50.310  0.00  0.00    +0.000 OA
BRANCH  19  22
ATOM     21  C   UNL     1      23.416   3.691  49.318  0.00  0.00    +0.000 C 
ATOM     22  C   UNL     1      24.705   3.307  49.345  0.00  0.00    +0.000 C 
BRANCH  21  23
ATOM     23  C   UNL     1      22.427   3.452  48.188  0.00  0.00    +0.000 C 
BRANCH  23  24
ATOM     24  C   UNL     1      22.102   1.984  47.849  0.00  0.00    +0.000 C 
BRANCH  24  26
ATOM     25  C   UNL     1      20.351   1.211  49.488  0.00  0.00    +0.000 C 
ATOM     26  C   UNL     1      21.613   1.192  49.037  0.00  0.00    +0.000 C 
ENDBRANCH  24  26
ENDBRANCH  23  24
ENDBRANCH  21  23
ENDBRANCH  19  22
ENDBRANCH  18  19
ENDBRANCH  17  18
BRANCH  17  27
ATOM     27  C   UNL     1      23.439   2.134  53.001  0.00  0.00    +0.000 C 
BRANCH  27  28
ATOM     28  C   UNL     1      22.180   1.343  52.718  0.00  0.00    +0.000 C 
ATOM     29  C   UNL     1      21.863   0.148  53.244  0.00  0.00    +0.000 C 
ATOM     30  C   UNL     1      20.592  -0.549  52.848  0.00  0.00    +0.000 C 
ATOM     31  C   UNL     1      22.744  -0.572  54.223  0.00  0.00    +0.000 C 
ENDBRANCH  27  28
ENDBRANCH  17  27
ENDBRANCH   1  17
TORSDOF 11
ENDMDL
MODEL 3
REMARK VINA RESULT:    -7.842      1.523      5.740
REMARK INTER + INTRA:         -14.349
REMARK INTER:                 -13.238
REMARK INTRA:                  -1.111
REMARK UNBOUND:                -1.922
REMARK  Name = 
REMARK  13 active torsions:
REMARK  status: ('A' for Active; 'I' for Inactive)
REMARK    1  A    between atoms: C_2  and  C_3
REMARK    2  A    between atoms: C_3  and  C_4
REMARK    3  A    between atoms: C_4  and  C_5
REMARK    4  A    between atoms: C_6  and  C_7
REMARK    5  A    between atoms: C_7  and  O_9
REMARK    6  A    between atoms: O_9  and  C_10
REMARK    7  A    between atoms: C_10  and  C_11
REMARK    8  A    between atoms: C_10  and  C_16
REMARK    9  A    between atoms: C_11  and  C_12
REMARK   10  A    between atoms: C_13  and  C_14
REMARK   11  A    between atoms: C_13  and  C_15
REMARK   12  A    between atoms: C_21  and  O_22
REMARK   13  A    between atoms: C_25  and  O_26
REMARK                            x       y       z     vdW  Elec       q    Type
REMARK                         _______ _______ _______ _____ _____    ______ ____
ROOT
ATOM      1  C   UNL     1      25.595   0.877  52.251  0.00  0.00    +0.000 C 
ATOM      2  C   UNL     1      25.658  -0.429  51.930  0.00  0.00    +0.000 C 
ATOM      3  C   UNL     1      26.711  -1.333  52.470  0.00  0.00    +0.000 C 
ATOM      4  O   UNL     1      26.630  -2.551  52.372  0.00  0.00    +0.000 OA
ATOM      5  C   UNL     1      27.905  -0.710  53.075  0.00  0.00    +0.000 A 
ATOM      6  C   UNL     1      29.047  -1.450  53.400  0.00  0.00    +0.000 A 
ATOM      7  C   UNL     1      30.188  -0.811  53.887  0.00  0.00    +0.000 A 
ATOM      8  C   UNL     1      30.205   0.579  54.028  0.00  0.00    +0.000 A 
ATOM      9  C   UNL     1      29.055   1.311  53.740  0.00  0.00    +0.000 A 
ATOM     10  C   UNL     1      27.893   0.660  53.309  0.00  0.00    +0.000 A 
ATOM     11  C   UNL     1      26.591   1.342  53.263  0.00  0.00    +0.000 C 
ATOM     12  O   UNL     1      26.291   2.138  54.138  0.00  0.00    +0.000 OA
ENDROOT
BRANCH   6  13
ATOM     13  O   UNL     1      29.115  -2.811  53.282  0.00  0.00    +0.000 OA
ATOM     14  H   UNL     1      29.740  -3.200  52.702  0.00  0.00    +0.000 HD
ENDBRANCH   6  13
BRANCH   9  15
ATOM     15  O   UNL     1      29.077   2.672  53.840  0.00  0.00    +0.000 OA
ATOM     16  H   UNL     1      29.632   3.087  54.472  0.00  0.00    +0.000 HD
ENDBRANCH   9  15
BRANCH   1  17
ATOM     17  C   UNL     1      24.473   1.823  51.833  0.00  0.00    +0.000 C 
BRANCH  17  18
ATOM     18  O   UNL     1      24.970   3.135  51.423  0.00  0.00    +0.000 OA
BRANCH  18  19
ATOM     19  C   UNL     1      25.067   3.323  50.090  0.00  0.00    +0.000 C 
ATOM     20  O   UNL     1      24.117   3.295  49.320  0.00  0.00    +0.000 OA
BRANCH  19  22
ATOM     21  C   UNL     1      26.822   4.810  49.011  0.00  0.00    +0.000 C 
ATOM     22  C   UNL     1      26.433   3.676  49.620  0.00  0.00    +0.000 C 
BRANCH  21  23
ATOM     23  C   UNL     1      28.190   5.088  48.407  0.00  0.00    +0.000 C 
BRANCH  23  24
ATOM     24  C   UNL     1      28.572   6.568  48.208  0.00  0.00    +0.000 C 
BRANCH  24  26
ATOM     25  C   UNL     1      30.930   7.284  48.733  0.00  0.00    +0.000 C 
ATOM     26  C   UNL     1      30.031   6.768  47.882  0.00  0.00    +0.000 C 
ENDBRANCH  24  26
ENDBRANCH  23  24
ENDBRANCH  21  23
ENDBRANCH  19  22
ENDBRANCH  18  19
ENDBRANCH  17  18
BRANCH  17  27
ATOM     27  C   UNL     1      23.409   2.173  52.910  0.00  0.00    +0.000 C 
BRANCH  27  28
ATOM     28  C   UNL     1      22.091   1.468  52.679  0.00  0.00    +0.000 C 
ATOM     29  C   UNL     1      21.725   0.285  53.203  0.00  0.00    +0.000 C 
ATOM     30  C   UNL     1      20.395  -0.325  52.862  0.00  0.00    +0.000 C 
ATOM     31  C   UNL     1      22.606  -0.506  54.125  0.00  0.00    +0.000 C 
ENDBRANCH  27  28
ENDBRANCH  17  27
ENDBRANCH   1  17
TORSDOF 11
ENDMDL
MODEL 4
REMARK VINA RESULT:    -7.632      2.366      6.363
REMARK INTER + INTRA:         -14.016
REMARK INTER:                 -12.679
REMARK INTRA:                  -1.337
REMARK UNBOUND:                -1.922
REMARK  Name = 
REMARK  13 active torsions:
REMARK  status: ('A' for Active; 'I' for Inactive)
REMARK    1  A    between atoms: C_2  and  C_3
REMARK    2  A    between atoms: C_3  and  C_4
REMARK    3  A    between atoms: C_4  and  C_5
REMARK    4  A    between atoms: C_6  and  C_7
REMARK    5  A    between atoms: C_7  and  O_9
REMARK    6  A    between atoms: O_9  and  C_10
REMARK    7  A    between atoms: C_10  and  C_11
REMARK    8  A    between atoms: C_10  and  C_16
REMARK    9  A    between atoms: C_11  and  C_12
REMARK   10  A    between atoms: C_13  and  C_14
REMARK   11  A    between atoms: C_13  and  C_15
REMARK   12  A    between atoms: C_21  and  O_22
REMARK   13  A    between atoms: C_25  and  O_26
REMARK                            x       y       z     vdW  Elec       q    Type
REMARK                         _______ _______ _______ _____ _____    ______ ____
ROOT
ATOM      1  C   UNL     1      22.901   1.459  51.393  0.00  0.00    +0.000 C 
ATOM      2  C   UNL     1      23.279   0.969  52.589  0.00  0.00    +0.000 C 
ATOM      3  C   UNL     1      22.469  -0.038  53.329  0.00  0.00    +0.000 C 
ATOM      4  O   UNL     1      22.921  -0.654  54.286  0.00  0.00    +0.000 OA
ATOM      5  C   UNL     1      21.065  -0.229  52.914  0.00  0.00    +0.000 A 
ATOM      6  C   UNL     1      20.157  -0.970  53.677  0.00  0.00    +0.000 A 
ATOM      7  C   UNL     1      18.816  -1.052  53.298  0.00  0.00    +0.000 A 
ATOM      8  C   UNL     1      18.367  -0.369  52.165  0.00  0.00    +0.000 A 
ATOM      9  C   UNL     1      19.279   0.338  51.384  0.00  0.00    +0.000 A 
ATOM     10  C   UNL     1      20.634   0.368  51.735  0.00  0.00    +0.000 A 
ATOM     11  C   UNL     1      21.667   0.855  50.808  0.00  0.00    +0.000 C 
ATOM     12  O   UNL     1      21.577   0.610  49.616  0.00  0.00    +0.000 OA
ENDROOT
BRANCH   6  13
ATOM     13  O   UNL     1      20.514  -1.658  54.804  0.00  0.00    +0.000 OA
ATOM     14  H   UNL     1      19.856  -2.060  55.336  0.00  0.00    +0.000 HD
ENDBRANCH   6  13
BRANCH   9  15
ATOM     15  O   UNL     1      18.840   1.037  50.297  0.00  0.00    +0.000 OA
ATOM     16  H   UNL     1      19.231   0.893  49.458  0.00  0.00    +0.000 HD
ENDBRANCH   9  15
BRANCH   1  17
ATOM     17  C   UNL     1      23.744   2.394  50.531  0.00  0.00    +0.000 C 
BRANCH  17  18
ATOM     18  O   UNL     1      24.851   2.995  51.274  0.00  0.00    +0.000 OA
BRANCH  18  19
ATOM     19  C   UNL     1      26.083   2.711  50.801  0.00  0.00    +0.000 C 
ATOM     20  O   UNL     1      26.603   3.278  49.850  0.00  0.00    +0.000 OA
BRANCH  19  22
ATOM     21  C   UNL     1      26.513   0.404  51.774  0.00  0.00    +0.000 C 
ATOM     22  C   UNL     1      26.826   1.700  51.600  0.00  0.00    +0.000 C 
BRANCH  21  23
ATOM     23  C   UNL     1      27.202  -0.573  52.714  0.00  0.00    +0.000 C 
BRANCH  23  24
ATOM     24  C   UNL     1      27.608  -0.034  54.100  0.00  0.00    +0.000 C 
BRANCH  24  26
ATOM     25  C   UNL     1      29.984  -0.694  53.581  0.00  0.00    +0.000 C 
ATOM     26  C   UNL     1      29.101   0.001  54.312  0.00  0.00    +0.000 C 
ENDBRANCH  24  26
ENDBRANCH  23  24
ENDBRANCH  21  23
ENDBRANCH  19  22
ENDBRANCH  18  19
ENDBRANCH  17  18
BRANCH  17  27
ATOM     27  C   UNL     1      23.025   3.627  49.918  0.00  0.00    +0.000 C 
BRANCH  27  28
ATOM     28  C   UNL     1      23.328   4.910  50.659  0.00  0.00    +0.000 C 
ATOM     29  C   UNL     1      23.998   5.967  50.168  0.00  0.00    +0.000 C 
ATOM     30  C   UNL     1      24.265   7.171  51.027  0.00  0.00    +0.000 C 
ATOM     31  C   UNL     1      24.536   6.012  48.767  0.00  0.00    +0.000 C 
ENDBRANCH  27  28
ENDBRANCH  17  27
ENDBRANCH   1  17
TORSDOF 11
ENDMDL
MODEL 5
REMARK VINA RESULT:    -7.572      2.737      5.844
REMARK INTER + INTRA:         -13.921
REMARK INTER:                 -12.229
REMARK INTRA:                  -1.692
REMARK UNBOUND:                -1.922
REMARK  Name = 
REMARK  13 active torsions:
REMARK  status: ('A' for Active; 'I' for Inactive)
REMARK    1  A    between atoms: C_2  and  C_3
REMARK    2  A    between atoms: C_3  and  C_4
REMARK    3  A    between atoms: C_4  and  C_5
REMARK    4  A    between atoms: C_6  and  C_7
REMARK    5  A    between atoms: C_7  and  O_9
REMARK    6  A    between atoms: O_9  and  C_10
REMARK    7  A    between atoms: C_10  and  C_11
REMARK    8  A    between atoms: C_10  and  C_16
REMARK    9  A    between atoms: C_11  and  C_12
REMARK   10  A    between atoms: C_13  and  C_14
REMARK   11  A    between atoms: C_13  and  C_15
REMARK   12  A    between atoms: C_21  and  O_22
REMARK   13  A    between atoms: C_25  and  O_26
REMARK                            x       y       z     vdW  Elec       q    Type
REMARK                         _______ _______ _______ _____ _____    ______ ____
ROOT
ATOM      1  C   UNL     1      24.493   3.335  50.610  0.00  0.00    +0.000 C 
ATOM      2  C   UNL     1      25.539   3.364  49.763  0.00  0.00    +0.000 C 
ATOM      3  C   UNL     1      26.278   4.619  49.451  0.00  0.00    +0.000 C 
ATOM      4  O   UNL     1      27.360   4.608  48.878  0.00  0.00    +0.000 OA
ATOM      5  C   UNL     1      25.629   5.900  49.795  0.00  0.00    +0.000 A 
ATOM      6  C   UNL     1      26.121   7.129  49.344  0.00  0.00    +0.000 A 
ATOM      7  C   UNL     1      25.429   8.311  49.616  0.00  0.00    +0.000 A 
ATOM      8  C   UNL     1      24.224   8.269  50.320  0.00  0.00    +0.000 A 
ATOM      9  C   UNL     1      23.754   7.049  50.803  0.00  0.00    +0.000 A 
ATOM     10  C   UNL     1      24.482   5.874  50.579  0.00  0.00    +0.000 A 
ATOM     11  C   UNL     1      24.181   4.625  51.295  0.00  0.00    +0.000 C 
ATOM     12  O   UNL     1      23.850   4.663  52.470  0.00  0.00    +0.000 OA
ENDROOT
BRANCH   6  13
ATOM     13  O   UNL     1      27.287   7.254  48.640  0.00  0.00    +0.000 OA
ATOM     14  H   UNL     1      28.111   7.132  49.071  0.00  0.00    +0.000 HD
ENDBRANCH   6  13
BRANCH   9  15
ATOM     15  O   UNL     1      22.558   6.997  51.459  0.00  0.00    +0.000 OA
ATOM     16  H   UNL     1      21.770   6.818  50.984  0.00  0.00    +0.000 HD
ENDBRANCH   9  15
BRANCH   1  17
ATOM     17  C   UNL     1      23.778   2.067  51.065  0.00  0.00    +0.000 C 
BRANCH  17  18
ATOM     18  O   UNL     1      22.322   2.202  51.034  0.00  0.00    +0.000 OA
BRANCH  18  19
ATOM     19  C   UNL     1      21.667   1.229  50.367  0.00  0.00    +0.000 C 
ATOM     20  O   UNL     1      21.734   1.058  49.158  0.00  0.00    +0.000 OA
BRANCH  19  22
ATOM     21  C   UNL     1      20.513   0.495  52.508  0.00  0.00    +0.000 C 
ATOM     22  C   UNL     1      20.915   0.289  51.241  0.00  0.00    +0.000 C 
BRANCH  21  23
ATOM     23  C   UNL     1      19.877  -0.533  53.431  0.00  0.00    +0.000 C 
BRANCH  23  24
ATOM     24  C   UNL     1      20.835  -1.489  54.169  0.00  0.00    +0.000 C 
BRANCH  24  26
ATOM     25  C   UNL     1      23.058  -1.364  55.348  0.00  0.00    +0.000 C 
ATOM     26  C   UNL     1      21.935  -0.775  54.912  0.00  0.00    +0.000 C 
ENDBRANCH  24  26
ENDBRANCH  23  24
ENDBRANCH  21  23
ENDBRANCH  19  22
ENDBRANCH  18  19
ENDBRANCH  17  18
BRANCH  17  27
ATOM     27  C   UNL     1      24.053   1.585  52.516  0.00  0.00    +0.000 C 
BRANCH  27  28
ATOM     28  C   UNL     1      24.783   0.261  52.564  0.00  0.00    +0.000 C 
ATOM     29  C   UNL     1      26.117   0.093  52.544  0.00  0.00    +0.000 C 
ATOM     30  C   UNL     1      26.715  -1.286  52.559  0.00  0.00    +0.000 C 
ATOM     31  C   UNL     1      27.083   1.240  52.482  0.00  0.00    +0.000 C 
ENDBRANCH  27  28
ENDBRANCH  17  27
ENDBRANCH   1  17
TORSDOF 11
ENDMDL
MODEL 6
REMARK VINA RESULT:    -7.484      2.286      6.415
REMARK INTER + INTRA:         -13.782
REMARK INTER:                 -11.978
REMARK INTRA:                  -1.804
REMARK UNBOUND:                -1.922
REMARK  Name = 
REMARK  13 active torsions:
REMARK  status: ('A' for Active; 'I' for Inactive)
REMARK    1  A    between atoms: C_2  and  C_3
REMARK    2  A    between atoms: C_3  and  C_4
REMARK    3  A    between atoms: C_4  and  C_5
REMARK    4  A    between atoms: C_6  and  C_7
REMARK    5  A    between atoms: C_7  and  O_9
REMARK    6  A    between atoms: O_9  and  C_10
REMARK    7  A    between atoms: C_10  and  C_11
REMARK    8  A    between atoms: C_10  and  C_16
REMARK    9  A    between atoms: C_11  and  C_12
REMARK   10  A    between atoms: C_13  and  C_14
REMARK   11  A    between atoms: C_13  and  C_15
REMARK   12  A    between atoms: C_21  and  O_22
REMARK   13  A    between atoms: C_25  and  O_26
REMARK                            x       y       z     vdW  Elec       q    Type
REMARK                         _______ _______ _______ _____ _____    ______ ____
ROOT
ATOM      1  C   UNL     1      25.181   2.971  51.172  0.00  0.00    +0.000 C 
ATOM      2  C   UNL     1      23.978   3.575  51.197  0.00  0.00    +0.000 C 
ATOM      3  C   UNL     1      23.605   4.646  50.232  0.00  0.00    +0.000 C 
ATOM      4  O   UNL     1      22.446   5.023  50.100  0.00  0.00    +0.000 OA
ATOM      5  C   UNL     1      24.692   5.298  49.475  0.00  0.00    +0.000 A 
ATOM      6  C   UNL     1      24.484   6.459  48.723  0.00  0.00    +0.000 A 
ATOM      7  C   UNL     1      25.556   7.095  48.095  0.00  0.00    +0.000 A 
ATOM      8  C   UNL     1      26.850   6.589  48.237  0.00  0.00    +0.000 A 
ATOM      9  C   UNL     1      27.051   5.412  48.955  0.00  0.00    +0.000 A 
ATOM     10  C   UNL     1      25.965   4.744  49.533  0.00  0.00    +0.000 A 
ATOM     11  C   UNL     1      26.083   3.373  50.052  0.00  0.00    +0.000 C 
ATOM     12  O   UNL     1      26.776   2.559  49.463  0.00  0.00    +0.000 OA
ENDROOT
BRANCH   6  13
ATOM     13  O   UNL     1      23.251   7.022  48.544  0.00  0.00    +0.000 OA
ATOM     14  H   UNL     1      22.663   7.103  49.269  0.00  0.00    +0.000 HD
ENDBRANCH   6  13
BRANCH   9  15
ATOM     15  O   UNL     1      28.318   4.935  49.128  0.00  0.00    +0.000 OA
ATOM     16  H   UNL     1      28.954   5.035  48.447  0.00  0.00    +0.000 HD
ENDBRANCH   9  15
BRANCH   1  17
ATOM     17  C   UNL     1      25.577   1.787  52.049  0.00  0.00    +0.000 C 
BRANCH  17  18
ATOM     18  O   UNL     1      24.703   1.632  53.210  0.00  0.00    +0.000 OA
BRANCH  18  19
ATOM     19  C   UNL     1      24.061   0.448  53.295  0.00  0.00    +0.000 C 
ATOM     20  O   UNL     1      24.569  -0.582  53.714  0.00  0.00    +0.000 OA
BRANCH  19  22
ATOM     21  C   UNL     1      22.092   0.433  51.690  0.00  0.00    +0.000 C 
ATOM     22  C   UNL     1      22.622   0.506  52.924  0.00  0.00    +0.000 C 
BRANCH  21  23
ATOM     23  C   UNL     1      20.631   0.643  51.322  0.00  0.00    +0.000 C 
BRANCH  23  24
ATOM     24  C   UNL     1      20.339   1.103  49.879  0.00  0.00    +0.000 C 
BRANCH  24  26
ATOM     25  C   UNL     1      21.998   1.956  48.185  0.00  0.00    +0.000 C 
ATOM     26  C   UNL     1      21.526   0.967  48.958  0.00  0.00    +0.000 C 
ENDBRANCH  24  26
ENDBRANCH  23  24
ENDBRANCH  21  23
ENDBRANCH  19  22
ENDBRANCH  18  19
ENDBRANCH  17  18
BRANCH  17  27
ATOM     27  C   UNL     1      26.996   1.822  52.680  0.00  0.00    +0.000 C 
BRANCH  27  28
ATOM     28  C   UNL     1      27.730   0.506  52.544  0.00  0.00    +0.000 C 
ATOM     29  C   UNL     1      28.371  -0.147  53.528  0.00  0.00    +0.000 C 
ATOM     30  C   UNL     1      29.095  -1.434  53.248  0.00  0.00    +0.000 C 
ATOM     31  C   UNL     1      28.431   0.361  54.939  0.00  0.00    +0.000 C 
ENDBRANCH  27  28
ENDBRANCH  17  27
ENDBRANCH   1  17
TORSDOF 11
ENDMDL
MODEL 7
REMARK VINA RESULT:    -7.338      2.453      6.685
REMARK INTER + INTRA:         -13.550
REMARK INTER:                 -12.093
REMARK INTRA:                  -1.457
REMARK UNBOUND:                -1.922
REMARK  Name = 
REMARK  13 active torsions:
REMARK  status: ('A' for Active; 'I' for Inactive)
REMARK    1  A    between atoms: C_2  and  C_3
REMARK    2  A    between atoms: C_3  and  C_4
REMARK    3  A    between atoms: C_4  and  C_5
REMARK    4  A    between atoms: C_6  and  C_7
REMARK    5  A    between atoms: C_7  and  O_9
REMARK    6  A    between atoms: O_9  and  C_10
REMARK    7  A    between atoms: C_10  and  C_11
REMARK    8  A    between atoms: C_10  and  C_16
REMARK    9  A    between atoms: C_11  and  C_12
REMARK   10  A    between atoms: C_13  and  C_14
REMARK   11  A    between atoms: C_13  and  C_15
REMARK   12  A    between atoms: C_21  and  O_22
REMARK   13  A    between atoms: C_25  and  O_26
REMARK                            x       y       z     vdW  Elec       q    Type
REMARK                         _______ _______ _______ _____ _____    ______ ____
ROOT
ATOM      1  C   UNL     1      23.625   3.032  51.122  0.00  0.00    +0.000 C 
ATOM      2  C   UNL     1      24.802   2.935  50.475  0.00  0.00    +0.000 C 
ATOM      3  C   UNL     1      25.676   4.116  50.231  0.00  0.00    +0.000 C 
ATOM      4  O   UNL     1      26.838   3.996  49.862  0.00  0.00    +0.000 OA
ATOM      5  C   UNL     1      25.076   5.457  50.382  0.00  0.00    +0.000 A 
ATOM      6  C   UNL     1      25.730   6.618  49.958  0.00  0.00    +0.000 A 
ATOM      7  C   UNL     1      25.092   7.857  50.035  0.00  0.00    +0.000 A 
ATOM      8  C   UNL     1      23.783   7.941  50.514  0.00  0.00    +0.000 A 
ATOM      9  C   UNL     1      23.145   6.789  50.972  0.00  0.00    +0.000 A 
ATOM     10  C   UNL     1      23.811   5.558  50.948  0.00  0.00    +0.000 A 
ATOM     11  C   UNL     1      23.296   4.382  51.667  0.00  0.00    +0.000 C 
ATOM     12  O   UNL     1      22.770   4.522  52.760  0.00  0.00    +0.000 OA
ENDROOT
BRANCH   6  13
ATOM     13  O   UNL     1      27.007   6.619  49.467  0.00  0.00    +0.000 OA
ATOM     14  H   UNL     1      27.226   7.157  48.731  0.00  0.00    +0.000 HD
ENDBRANCH   6  13
BRANCH   9  15
ATOM     15  O   UNL     1      21.853   6.859  51.406  0.00  0.00    +0.000 OA
ATOM     16  H   UNL     1      21.163   6.502  50.883  0.00  0.00    +0.000 HD
ENDBRANCH   9  15
BRANCH   1  17
ATOM     17  C   UNL     1      22.748   1.846  51.512  0.00  0.00    +0.000 C 
BRANCH  17  18
ATOM     18  O   UNL     1      23.524   0.632  51.760  0.00  0.00    +0.000 OA
BRANCH  18  19
ATOM     19  C   UNL     1      23.705   0.319  53.060  0.00  0.00    +0.000 C 
ATOM     20  O   UNL     1      22.801   0.222  53.877  0.00  0.00    +0.000 OA
BRANCH  19  22
ATOM     21  C   UNL     1      26.067  -0.505  52.616  0.00  0.00    +0.000 C 
ATOM     22  C   UNL     1      25.112  -0.005  53.420  0.00  0.00    +0.000 C 
BRANCH  21  23
ATOM     23  C   UNL     1      27.453  -0.967  53.039  0.00  0.00    +0.000 C 
BRANCH  23  24
ATOM     24  C   UNL     1      28.166  -0.125  54.116  0.00  0.00    +0.000 C 
BRANCH  24  26
ATOM     25  C   UNL     1      28.519   2.323  53.634  0.00  0.00    +0.000 C 
ATOM     26  C   UNL     1      28.926   1.048  53.549  0.00  0.00    +0.000 C 
ENDBRANCH  24  26
ENDBRANCH  23  24
ENDBRANCH  21  23
ENDBRANCH  19  22
ENDBRANCH  18  19
ENDBRANCH  17  18
BRANCH  17  27
ATOM     27  C   UNL     1      21.691   1.379  50.474  0.00  0.00    +0.000 C 
BRANCH  27  28
ATOM     28  C   UNL     1      20.685   0.412  51.057  0.00  0.00    +0.000 C 
ATOM     29  C   UNL     1      19.496   0.736  51.594  0.00  0.00    +0.000 C 
ATOM     30  C   UNL     1      18.604  -0.324  52.175  0.00  0.00    +0.000 C 
ATOM     31  C   UNL     1      18.996   2.149  51.673  0.00  0.00    +0.000 C 
ENDBRANCH  27  28
ENDBRANCH  17  27
ENDBRANCH   1  17
TORSDOF 11
ENDMDL
MODEL 8
REMARK VINA RESULT:    -7.336      2.038      7.285
REMARK INTER + INTRA:         -13.547
REMARK INTER:                 -11.943
REMARK INTRA:                  -1.604
REMARK UNBOUND:                -1.922
REMARK  Name = 
REMARK  13 active torsions:
REMARK  status: ('A' for Active; 'I' for Inactive)
REMARK    1  A    between atoms: C_2  and  C_3
REMARK    2  A    between atoms: C_3  and  C_4
REMARK    3  A    between atoms: C_4  and  C_5
REMARK    4  A    between atoms: C_6  and  C_7
REMARK    5  A    between atoms: C_7  and  O_9
REMARK    6  A    between atoms: O_9  and  C_10
REMARK    7  A    between atoms: C_10  and  C_11
REMARK    8  A    between atoms: C_10  and  C_16
REMARK    9  A    between atoms: C_11  and  C_12
REMARK   10  A    between atoms: C_13  and  C_14
REMARK   11  A    between atoms: C_13  and  C_15
REMARK   12  A    between atoms: C_21  and  O_22
REMARK   13  A    between atoms: C_25  and  O_26
REMARK                            x       y       z     vdW  Elec       q    Type
REMARK                         _______ _______ _______ _____ _____    ______ ____
ROOT
ATOM      1  C   UNL     1      23.908   2.048  51.362  0.00  0.00    +0.000 C 
ATOM      2  C   UNL     1      22.794   2.072  50.606  0.00  0.00    +0.000 C 
ATOM      3  C   UNL     1      21.499   1.507  51.077  0.00  0.00    +0.000 C 
ATOM      4  O   UNL     1      20.444   1.738  50.500  0.00  0.00    +0.000 OA
ATOM      5  C   UNL     1      21.530   0.593  52.236  0.00  0.00    +0.000 A 
ATOM      6  C   UNL     1      20.420  -0.168  52.616  0.00  0.00    +0.000 A 
ATOM      7  C   UNL     1      20.516  -1.087  53.661  0.00  0.00    +0.000 A 
ATOM      8  C   UNL     1      21.734  -1.271  54.320  0.00  0.00    +0.000 A 
ATOM      9  C   UNL     1      22.830  -0.487  53.967  0.00  0.00    +0.000 A 
ATOM     10  C   UNL     1      22.713   0.476  52.958  0.00  0.00    +0.000 A 
ATOM     11  C   UNL     1      23.740   1.507  52.743  0.00  0.00    +0.000 C 
ATOM     12  O   UNL     1      24.303   2.011  53.702  0.00  0.00    +0.000 OA
ENDROOT
BRANCH   6  13
ATOM     13  O   UNL     1      19.196  -0.055  52.015  0.00  0.00    +0.000 OA
ATOM     14  H   UNL     1      18.545  -0.715  52.150  0.00  0.00    +0.000 HD
ENDBRANCH   6  13
BRANCH   9  15
ATOM     15  O   UNL     1      24.032  -0.689  54.582  0.00  0.00    +0.000 OA
ATOM     16  H   UNL     1      24.091  -1.264  55.319  0.00  0.00    +0.000 HD
ENDBRANCH   9  15
BRANCH   1  17
ATOM     17  C   UNL     1      25.227   2.718  50.988  0.00  0.00    +0.000 C 
BRANCH  17  18
ATOM     18  O   UNL     1      25.166   3.390  49.690  0.00  0.00    +0.000 OA
BRANCH  18  19
ATOM     19  C   UNL     1      25.152   4.738  49.740  0.00  0.00    +0.000 C 
ATOM     20  O   UNL     1      24.350   5.395  50.387  0.00  0.00    +0.000 OA
BRANCH  19  22
ATOM     21  C   UNL     1      27.509   4.894  48.803  0.00  0.00    +0.000 C 
ATOM     22  C   UNL     1      26.275   5.388  49.012  0.00  0.00    +0.000 C 
BRANCH  21  23
ATOM     23  C   UNL     1      28.685   5.635  48.186  0.00  0.00    +0.000 C 
BRANCH  23  24
ATOM     24  C   UNL     1      28.398   7.037  47.612  0.00  0.00    +0.000 C 
BRANCH  24  26
ATOM     25  C   UNL     1      27.967   8.674  49.477  0.00  0.00    +0.000 C 
ATOM     26  C   UNL     1      28.782   8.155  48.548  0.00  0.00    +0.000 C 
ENDBRANCH  24  26
ENDBRANCH  23  24
ENDBRANCH  21  23
ENDBRANCH  19  22
ENDBRANCH  18  19
ENDBRANCH  17  18
BRANCH  17  27
ATOM     27  C   UNL     1      26.470   1.797  50.847  0.00  0.00    +0.000 C 
BRANCH  27  28
ATOM     28  C   UNL     1      27.225   1.631  52.148  0.00  0.00    +0.000 C 
ATOM     29  C   UNL     1      27.358   0.489  52.843  0.00  0.00    +0.000 C 
ATOM     30  C   UNL     1      28.106   0.469  54.147  0.00  0.00    +0.000 C 
ATOM     31  C   UNL     1      26.764  -0.814  52.393  0.00  0.00    +0.000 C 
ENDBRANCH  27  28
ENDBRANCH  17  27
ENDBRANCH   1  17
TORSDOF 11
ENDMDL
MODEL 9
REMARK VINA RESULT:    -7.325      2.291      3.362
REMARK INTER + INTRA:         -13.530
REMARK INTER:                 -12.186
REMARK INTRA:                  -1.345
REMARK UNBOUND:                -1.922
REMARK  Name = 
REMARK  13 active torsions:
REMARK  status: ('A' for Active; 'I' for Inactive)
REMARK    1  A    between atoms: C_2  and  C_3
REMARK    2  A    between atoms: C_3  and  C_4
REMARK    3  A    between atoms: C_4  and  C_5
REMARK    4  A    between atoms: C_6  and  C_7
REMARK    5  A    between atoms: C_7  and  O_9
REMARK    6  A    between atoms: O_9  and  C_10
REMARK    7  A    between atoms: C_10  and  C_11
REMARK    8  A    between atoms: C_10  and  C_16
REMARK    9  A    between atoms: C_11  and  C_12
REMARK   10  A    between atoms: C_13  and  C_14
REMARK   11  A    between atoms: C_13  and  C_15
REMARK   12  A    between atoms: C_21  and  O_22
REMARK   13  A    between atoms: C_25  and  O_26
REMARK                            x       y       z     vdW  Elec       q    Type
REMARK                         _______ _______ _______ _____ _____    ______ ____
ROOT
ATOM      1  C   UNL     1      23.569   1.645  51.422  0.00  0.00    +0.000 C 
ATOM      2  C   UNL     1      23.087   0.579  52.090  0.00  0.00    +0.000 C 
ATOM      3  C   UNL     1      23.735   0.052  53.323  0.00  0.00    +0.000 C 
ATOM      4  O   UNL     1      23.173  -0.754  54.055  0.00  0.00    +0.000 OA
ATOM      5  C   UNL     1      25.119   0.481  53.608  0.00  0.00    +0.000 A 
ATOM      6  C   UNL     1      25.897  -0.123  54.600  0.00  0.00    +0.000 A 
ATOM      7  C   UNL     1      27.230   0.249  54.779  0.00  0.00    +0.000 A 
ATOM      8  C   UNL     1      27.803   1.214  53.947  0.00  0.00    +0.000 A 
ATOM      9  C   UNL     1      27.018   1.843  52.983  0.00  0.00    +0.000 A 
ATOM     10  C   UNL     1      25.665   1.508  52.848  0.00  0.00    +0.000 A 
ATOM     11  C   UNL     1      24.738   2.327  52.052  0.00  0.00    +0.000 C 
ATOM     12  O   UNL     1      24.841   3.544  52.061  0.00  0.00    +0.000 OA
ENDROOT
BRANCH   6  13
ATOM     13  O   UNL     1      25.413  -1.082  55.448  0.00  0.00    +0.000 OA
ATOM     14  H   UNL     1      26.001  -1.689  55.853  0.00  0.00    +0.000 HD
ENDBRANCH   6  13
BRANCH   9  15
ATOM     15  O   UNL     1      27.583   2.759  52.143  0.00  0.00    +0.000 OA
ATOM     16  H   UNL     1      27.148   2.996  51.348  0.00  0.00    +0.000 HD
ENDBRANCH   9  15
BRANCH   1  17
ATOM     17  C   UNL     1      22.883   2.306  50.230  0.00  0.00    +0.000 C 
BRANCH  17  18
ATOM     18  O   UNL     1      22.027   1.380  49.491  0.00  0.00    +0.000 OA
BRANCH  18  19
ATOM     19  C   UNL     1      20.754   1.791  49.310  0.00  0.00    +0.000 C 
ATOM     20  O   UNL     1      20.318   2.238  48.258  0.00  0.00    +0.000 OA
BRANCH  19  22
ATOM     21  C   UNL     1      19.569   0.392  51.068  0.00  0.00    +0.000 C 
ATOM     22  C   UNL     1      19.867   1.566  50.482  0.00  0.00    +0.000 C 
BRANCH  21  23
ATOM     23  C   UNL     1      18.545   0.168  52.170  0.00  0.00    +0.000 C 
BRANCH  23  24
ATOM     24  C   UNL     1      17.338  -0.727  51.824  0.00  0.00    +0.000 C 
BRANCH  24  26
ATOM     25  C   UNL     1      17.951  -2.406  53.600  0.00  0.00    +0.000 C 
ATOM     26  C   UNL     1      17.024  -1.744  52.892  0.00  0.00    +0.000 C 
ENDBRANCH  24  26
ENDBRANCH  23  24
ENDBRANCH  21  23
ENDBRANCH  19  22
ENDBRANCH  18  19
ENDBRANCH  17  18
BRANCH  17  27
ATOM     27  C   UNL     1      23.803   2.891  49.124  0.00  0.00    +0.000 C 
BRANCH  27  28
ATOM     28  C   UNL     1      23.624   4.382  48.942  0.00  0.00    +0.000 C 
ATOM     29  C   UNL     1      24.604   5.303  48.949  0.00  0.00    +0.000 C 
ATOM     30  C   UNL     1      24.283   6.763  48.794  0.00  0.00    +0.000 C 
ATOM     31  C   UNL     1      26.052   4.951  49.132  0.00  0.00    +0.000 C 
ENDBRANCH  27  28
ENDBRANCH  17  27
ENDBRANCH   1  17
TORSDOF 11
ENDMDL
