MODEL 1
REMARK VINA RESULT:    -8.033      0.000      0.000
REMARK INTER + INTRA:         -10.324
REMARK INTER:                  -9.911
REMARK INTRA:                  -0.413
REMARK UNBOUND:                -0.413
REMARK  Name = 
REMARK  7 active torsions:
REMARK  status: ('A' for Active; 'I' for Inactive)
REMARK    1  A    between atoms: C_1  and  O_2
REMARK    2  A    between atoms: O_2  and  C_3
REMARK    3  A    between atoms: N_10  and  S_11
REMARK    4  A    between atoms: S_11  and  C_14
REMARK    5  A    between atoms: C_19  and  N_20
REMARK    6  A    between atoms: N_20  and  C_21
REMARK    7  A    between atoms: N_20  and  C_22
REMARK                            x       y       z     vdW  Elec       q    Type
REMARK                         _______ _______ _______ _____ _____    ______ ____
ROOT
ATOM      1  S   UNL     1      22.325   1.806  51.128  0.00  0.00    +0.000 S 
ATOM      2  O   UNL     1      22.113   0.426  50.725  0.00  0.00    +0.000 OA
ATOM      3  O   UNL     1      21.986   2.872  50.200  0.00  0.00    +0.000 OA
ENDROOT
BRANCH   1   4
ATOM      4  C   UNL     1      24.064   1.972  51.571  0.00  0.00    +0.000 A 
ATOM      5  C   UNL     1      24.805   2.844  50.759  0.00  0.00    +0.000 A 
ATOM      6  C   UNL     1      26.189   2.802  50.779  0.00  0.00    +0.000 A 
ATOM      7  C   UNL     1      26.840   1.906  51.623  0.00  0.00    +0.000 A 
ATOM      8  C   UNL     1      26.163   1.090  52.559  0.00  0.00    +0.000 A 
ATOM      9  C   UNL     1      26.862   0.219  53.476  0.00  0.00    +0.000 A 
ATOM     10  C   UNL     1      26.071  -0.595  54.308  0.00  0.00    +0.000 A 
ATOM     11  C   UNL     1      24.680  -0.569  54.274  0.00  0.00    +0.000 A 
ATOM     12  C   UNL     1      24.020   0.275  53.391  0.00  0.00    +0.000 A 
ATOM     13  C   UNL     1      24.720   1.118  52.508  0.00  0.00    +0.000 A 
BRANCH   9  14
ATOM     14  N   UNL     1      28.259   0.120  53.571  0.00  0.00    +0.000 N 
ATOM     15  C   UNL     1      29.087   1.124  54.230  0.00  0.00    +0.000 C 
ATOM     16  C   UNL     1      28.933  -1.143  53.271  0.00  0.00    +0.000 C 
ENDBRANCH   9  14
ENDBRANCH   1   4
BRANCH   1  24
ATOM     17  C   UNL     1      19.958   0.114  53.278  0.00  0.00    +0.000 A 
ATOM     18  N   UNL     1      18.851  -0.658  53.138  0.00  0.00    +0.000 NA
ATOM     19  C   UNL     1      17.967  -0.226  52.217  0.00  0.00    +0.000 A 
ATOM     20 CL   UNL     1      16.598  -1.227  51.994  0.00  0.00    +0.000 Cl
ATOM     21  C   UNL     1      18.145   0.937  51.489  0.00  0.00    +0.000 A 
ATOM     22  N   UNL     1      19.260   1.702  51.597  0.00  0.00    +0.000 NA
ATOM     23  C   UNL     1      20.172   1.259  52.489  0.00  0.00    +0.000 A 
ATOM     24  N   UNL     1      21.355   2.040  52.491  0.00  0.00    +0.000 N 
ATOM     25  H   UNL     1      21.588   2.662  53.219  0.00  0.00    +0.000 HD
BRANCH  17  27
ATOM     26  C   UNL     1      21.079  -1.645  54.322  0.00  0.00    +0.000 C 
ATOM     27  O   UNL     1      20.875  -0.229  54.255  0.00  0.00    +0.000 OA
ENDBRANCH  17  27
ENDBRANCH   1  24
TORSDOF 4
ENDMDL
MODEL 2
REMARK VINA RESULT:    -7.848      4.435      7.095
REMARK INTER + INTRA:         -10.096
REMARK INTER:                 -10.301
REMARK INTRA:                   0.205
REMARK UNBOUND:                -0.413
REMARK  Name = 
REMARK  7 active torsions:
REMARK  status: ('A' for Active; 'I' for Inactive)
REMARK    1  A    between atoms: C_1  and  O_2
REMARK    2  A    between atoms: O_2  and  C_3
REMARK    3  A    between atoms: N_10  and  S_11
REMARK    4  A    between atoms: S_11  and  C_14
REMARK    5  A    between atoms: C_19  and  N_20
REMARK    6  A    between atoms: N_20  and  C_21
REMARK    7  A    between atoms: N_20  and  C_22
REMARK                            x       y       z     vdW  Elec       q    Type
REMARK                         _______ _______ _______ _____ _____    ______ ____
ROOT
ATOM      1  S   UNL     1      23.999   3.112  51.747  0.00  0.00    +0.000 S 
ATOM      2  O   UNL     1      23.737   1.809  51.162  0.00  0.00    +0.000 OA
ATOM      3  O   UNL     1      22.881   3.911  52.221  0.00  0.00    +0.000 OA
ENDROOT
BRANCH   1   4
ATOM      4  C   UNL     1      24.904   4.076  50.522  0.00  0.00    +0.000 A 
ATOM      5  C   UNL     1      25.884   3.367  49.811  0.00  0.00    +0.000 A 
ATOM      6  C   UNL     1      26.857   4.050  49.102  0.00  0.00    +0.000 A 
ATOM      7  C   UNL     1      26.845   5.443  49.081  0.00  0.00    +0.000 A 
ATOM      8  C   UNL     1      25.818   6.219  49.665  0.00  0.00    +0.000 A 
ATOM      9  C   UNL     1      25.786   7.660  49.570  0.00  0.00    +0.000 A 
ATOM     10  C   UNL     1      24.750   8.320  50.257  0.00  0.00    +0.000 A 
ATOM     11  C   UNL     1      23.784   7.636  50.988  0.00  0.00    +0.000 A 
ATOM     12  C   UNL     1      23.823   6.250  51.069  0.00  0.00    +0.000 A 
ATOM     13  C   UNL     1      24.827   5.499  50.429  0.00  0.00    +0.000 A 
BRANCH   9  14
ATOM     14  N   UNL     1      26.724   8.432  48.866  0.00  0.00    +0.000 N 
ATOM     15  C   UNL     1      26.489   8.935  47.516  0.00  0.00    +0.000 C 
ATOM     16  C   UNL     1      27.868   9.022  49.561  0.00  0.00    +0.000 C 
ENDBRANCH   9  14
ENDBRANCH   1   4
BRANCH   1  24
ATOM     17  C   UNL     1      26.978   1.344  52.790  0.00  0.00    +0.000 A 
ATOM     18  N   UNL     1      27.498   0.098  52.666  0.00  0.00    +0.000 NA
ATOM     19  C   UNL     1      26.624  -0.908  52.865  0.00  0.00    +0.000 A 
ATOM     20 CL   UNL     1      27.260  -2.482  52.652  0.00  0.00    +0.000 Cl
ATOM     21  C   UNL     1      25.300  -0.699  53.209  0.00  0.00    +0.000 A 
ATOM     22  N   UNL     1      24.759   0.541  53.308  0.00  0.00    +0.000 NA
ATOM     23  C   UNL     1      25.616   1.559  53.073  0.00  0.00    +0.000 A 
ATOM     24  N   UNL     1      24.977   2.823  53.094  0.00  0.00    +0.000 N 
ATOM     25  H   UNL     1      25.093   3.472  53.826  0.00  0.00    +0.000 HD
BRANCH  17  27
ATOM     26  C   UNL     1      28.793   2.465  53.733  0.00  0.00    +0.000 C 
ATOM     27  O   UNL     1      27.832   2.425  52.671  0.00  0.00    +0.000 OA
ENDBRANCH  17  27
ENDBRANCH   1  24
TORSDOF 4
ENDMDL
MODEL 3
REMARK VINA RESULT:    -7.573      4.445      6.932
REMARK INTER + INTRA:          -9.758
REMARK INTER:                  -9.612
REMARK INTRA:                  -0.145
REMARK UNBOUND:                -0.413
REMARK  Name = 
REMARK  7 active torsions:
REMARK  status: ('A' for Active; 'I' for Inactive)
REMARK    1  A    between atoms: C_1  and  O_2
REMARK    2  A    between atoms: O_2  and  C_3
REMARK    3  A    between atoms: N_10  and  S_11
REMARK    4  A    between atoms: S_11  and  C_14
REMARK    5  A    between atoms: C_19  and  N_20
REMARK    6  A    between atoms: N_20  and  C_21
REMARK    7  A    between atoms: N_20  and  C_22
REMARK                            x       y       z     vdW  Elec       q    Type
REMARK                         _______ _______ _______ _____ _____    ______ ____
ROOT
ATOM      1  S   UNL     1      23.922   3.044  51.604  0.00  0.00    +0.000 S 
ATOM      2  O   UNL     1      22.518   3.150  51.246  0.00  0.00    +0.000 OA
ATOM      3  O   UNL     1      24.336   3.407  52.949  0.00  0.00    +0.000 OA
ENDROOT
BRANCH   1   4
ATOM      4  C   UNL     1      24.849   4.054  50.434  0.00  0.00    +0.000 A 
ATOM      5  C   UNL     1      25.844   3.374  49.716  0.00  0.00    +0.000 A 
ATOM      6  C   UNL     1      26.830   4.084  49.052  0.00  0.00    +0.000 A 
ATOM      7  C   UNL     1      26.815   5.477  49.084  0.00  0.00    +0.000 A 
ATOM      8  C   UNL     1      25.776   6.229  49.677  0.00  0.00    +0.000 A 
ATOM      9  C   UNL     1      25.743   7.673  49.636  0.00  0.00    +0.000 A 
ATOM     10  C   UNL     1      24.693   8.306  50.326  0.00  0.00    +0.000 A 
ATOM     11  C   UNL     1      23.713   7.593  51.011  0.00  0.00    +0.000 A 
ATOM     12  C   UNL     1      23.753   6.205  51.040  0.00  0.00    +0.000 A 
ATOM     13  C   UNL     1      24.771   5.479  50.393  0.00  0.00    +0.000 A 
BRANCH   9  14
ATOM     14  N   UNL     1      26.693   8.472  48.980  0.00  0.00    +0.000 N 
ATOM     15  C   UNL     1      26.551   8.904  47.594  0.00  0.00    +0.000 C 
ATOM     16  C   UNL     1      27.735   9.159  49.742  0.00  0.00    +0.000 C 
ENDBRANCH   9  14
ENDBRANCH   1   4
BRANCH   1  24
ATOM     17  C   UNL     1      25.083   0.147  53.433  0.00  0.00    +0.000 A 
ATOM     18  N   UNL     1      26.062  -0.148  54.324  0.00  0.00    +0.000 NA
ATOM     19  C   UNL     1      27.272   0.368  54.035  0.00  0.00    +0.000 A 
ATOM     20 CL   UNL     1      28.497   0.048  55.186  0.00  0.00    +0.000 Cl
ATOM     21  C   UNL     1      27.521   1.113  52.896  0.00  0.00    +0.000 A 
ATOM     22  N   UNL     1      26.546   1.442  52.012  0.00  0.00    +0.000 NA
ATOM     23  C   UNL     1      25.319   0.963  52.310  0.00  0.00    +0.000 A 
ATOM     24  N   UNL     1      24.324   1.415  51.408  0.00  0.00    +0.000 N 
ATOM     25  H   UNL     1      23.908   0.834  50.730  0.00  0.00    +0.000 HD
BRANCH  17  27
ATOM     26  C   UNL     1      23.717  -1.028  54.913  0.00  0.00    +0.000 C 
ATOM     27  O   UNL     1      23.831  -0.408  53.627  0.00  0.00    +0.000 OA
ENDBRANCH  17  27
ENDBRANCH   1  24
TORSDOF 4
ENDMDL
MODEL 4
REMARK VINA RESULT:    -7.537      1.794      3.019
REMARK INTER + INTRA:          -9.712
REMARK INTER:                  -9.237
REMARK INTRA:                  -0.475
REMARK UNBOUND:                -0.413
REMARK  Name = 
REMARK  7 active torsions:
REMARK  status: ('A' for Active; 'I' for Inactive)
REMARK    1  A    between atoms: C_1  and  O_2
REMARK    2  A    between atoms: O_2  and  C_3
REMARK    3  A    between atoms: N_10  and  S_11
REMARK    4  A    between atoms: S_11  and  C_14
REMARK    5  A    between atoms: C_19  and  N_20
REMARK    6  A    between atoms: N_20  and  C_21
REMARK    7  A    between atoms: N_20  and  C_22
REMARK                            x       y       z     vdW  Elec       q    Type
REMARK                         _______ _______ _______ _____ _____    ______ ____
ROOT
ATOM      1  S   UNL     1      21.780   2.282  52.010  0.00  0.00    +0.000 S 
ATOM      2  O   UNL     1      21.572   2.095  50.584  0.00  0.00    +0.000 OA
ATOM      3  O   UNL     1      22.190   3.589  52.497  0.00  0.00    +0.000 OA
ENDROOT
BRANCH   1   4
ATOM      4  C   UNL     1      23.008   1.071  52.534  0.00  0.00    +0.000 A 
ATOM      5  C   UNL     1      22.520   0.045  53.358  0.00  0.00    +0.000 A 
ATOM      6  C   UNL     1      23.400  -0.735  54.088  0.00  0.00    +0.000 A 
ATOM      7  C   UNL     1      24.771  -0.510  53.985  0.00  0.00    +0.000 A 
ATOM      8  C   UNL     1      25.339   0.416  53.081  0.00  0.00    +0.000 A 
ATOM      9  C   UNL     1      26.767   0.583  52.937  0.00  0.00    +0.000 A 
ATOM     10  C   UNL     1      27.205   1.589  52.056  0.00  0.00    +0.000 A 
ATOM     11  C   UNL     1      26.322   2.389  51.338  0.00  0.00    +0.000 A 
ATOM     12  C   UNL     1      24.951   2.216  51.481  0.00  0.00    +0.000 A 
ATOM     13  C   UNL     1      24.413   1.247  52.348  0.00  0.00    +0.000 A 
BRANCH   9  14
ATOM     14  N   UNL     1      27.729  -0.169  53.630  0.00  0.00    +0.000 N 
ATOM     15  C   UNL     1      28.284  -1.418  53.118  0.00  0.00    +0.000 C 
ATOM     16  C   UNL     1      28.445   0.411  54.766  0.00  0.00    +0.000 C 
ENDBRANCH   9  14
ENDBRANCH   1   4
BRANCH   1  24
ATOM     17  C   UNL     1      18.450   1.069  51.287  0.00  0.00    +0.000 A 
ATOM     18  N   UNL     1      17.477   1.299  50.370  0.00  0.00    +0.000 NA
ATOM     19  C   UNL     1      17.250   2.597  50.091  0.00  0.00    +0.000 A 
ATOM     20 CL   UNL     1      16.066   2.891  48.891  0.00  0.00    +0.000 Cl
ATOM     21  C   UNL     1      17.926   3.631  50.715  0.00  0.00    +0.000 A 
ATOM     22  N   UNL     1      18.921   3.417  51.611  0.00  0.00    +0.000 NA
ATOM     23  C   UNL     1      19.184   2.118  51.872  0.00  0.00    +0.000 A 
ATOM     24  N   UNL     1      20.293   1.951  52.739  0.00  0.00    +0.000 N 
ATOM     25  H   UNL     1      20.203   1.669  53.679  0.00  0.00    +0.000 HD
BRANCH  17  27
ATOM     26  C   UNL     1      17.637  -0.743  52.509  0.00  0.00    +0.000 C 
ATOM     27  O   UNL     1      18.687  -0.236  51.677  0.00  0.00    +0.000 OA
ENDBRANCH  17  27
ENDBRANCH   1  24
TORSDOF 4
ENDMDL
MODEL 5
REMARK VINA RESULT:    -7.525      3.698      5.449
REMARK INTER + INTRA:          -9.698
REMARK INTER:                  -9.204
REMARK INTRA:                  -0.493
REMARK UNBOUND:                -0.413
REMARK  Name = 
REMARK  7 active torsions:
REMARK  status: ('A' for Active; 'I' for Inactive)
REMARK    1  A    between atoms: C_1  and  O_2
REMARK    2  A    between atoms: O_2  and  C_3
REMARK    3  A    between atoms: N_10  and  S_11
REMARK    4  A    between atoms: S_11  and  C_14
REMARK    5  A    between atoms: C_19  and  N_20
REMARK    6  A    between atoms: N_20  and  C_21
REMARK    7  A    between atoms: N_20  and  C_22
REMARK                            x       y       z     vdW  Elec       q    Type
REMARK                         _______ _______ _______ _____ _____    ______ ____
ROOT
ATOM      1  S   UNL     1      21.730   3.246  51.985  0.00  0.00    +0.000 S 
ATOM      2  O   UNL     1      22.512   4.361  52.492  0.00  0.00    +0.000 OA
ATOM      3  O   UNL     1      20.362   3.077  52.446  0.00  0.00    +0.000 OA
ENDROOT
BRANCH   1   4
ATOM      4  C   UNL     1      22.644   1.739  52.361  0.00  0.00    +0.000 A 
ATOM      5  C   UNL     1      21.951   0.799  53.138  0.00  0.00    +0.000 A 
ATOM      6  C   UNL     1      22.639  -0.225  53.766  0.00  0.00    +0.000 A 
ATOM      7  C   UNL     1      24.019  -0.329  53.606  0.00  0.00    +0.000 A 
ATOM      8  C   UNL     1      24.764   0.503  52.739  0.00  0.00    +0.000 A 
ATOM      9  C   UNL     1      26.183   0.332  52.531  0.00  0.00    +0.000 A 
ATOM     10  C   UNL     1      26.822   1.270  51.699  0.00  0.00    +0.000 A 
ATOM     11  C   UNL     1      26.135   2.312  51.084  0.00  0.00    +0.000 A 
ATOM     12  C   UNL     1      24.770   2.463  51.287  0.00  0.00    +0.000 A 
ATOM     13  C   UNL     1      24.042   1.586  52.114  0.00  0.00    +0.000 A 
BRANCH   9  14
ATOM     14  N   UNL     1      26.957  -0.681  53.119  0.00  0.00    +0.000 N 
ATOM     15  C   UNL     1      27.059  -2.028  52.567  0.00  0.00    +0.000 C 
ATOM     16  C   UNL     1      27.938  -0.357  54.155  0.00  0.00    +0.000 C 
ENDBRANCH   9  14
ENDBRANCH   1   4
BRANCH   1  24
ATOM     17  C   UNL     1      22.787   5.474  49.338  0.00  0.00    +0.000 A 
ATOM     18  N   UNL     1      22.796   6.808  49.096  0.00  0.00    +0.000 NA
ATOM     19  C   UNL     1      21.659   7.455  49.419  0.00  0.00    +0.000 A 
ATOM     20 CL   UNL     1      21.685   9.147  49.171  0.00  0.00    +0.000 Cl
ATOM     21  C   UNL     1      20.544   6.810  49.926  0.00  0.00    +0.000 A 
ATOM     22  N   UNL     1      20.531   5.482  50.202  0.00  0.00    +0.000 NA
ATOM     23  C   UNL     1      21.679   4.829  49.917  0.00  0.00    +0.000 A 
ATOM     24  N   UNL     1      21.642   3.469  50.313  0.00  0.00    +0.000 N 
ATOM     25  H   UNL     1      21.571   2.724  49.673  0.00  0.00    +0.000 HD
BRANCH  17  27
ATOM     26  C   UNL     1      25.110   5.476  49.121  0.00  0.00    +0.000 C 
ATOM     27  O   UNL     1      23.894   4.733  48.965  0.00  0.00    +0.000 OA
ENDBRANCH  17  27
ENDBRANCH   1  24
TORSDOF 4
ENDMDL
MODEL 6
REMARK VINA RESULT:    -7.329      3.842      5.820
REMARK INTER + INTRA:          -9.457
REMARK INTER:                  -9.047
REMARK INTRA:                  -0.409
REMARK UNBOUND:                -0.413
REMARK  Name = 
REMARK  7 active torsions:
REMARK  status: ('A' for Active; 'I' for Inactive)
REMARK    1  A    between atoms: C_1  and  O_2
REMARK    2  A    between atoms: O_2  and  C_3
REMARK    3  A    between atoms: N_10  and  S_11
REMARK    4  A    between atoms: S_11  and  C_14
REMARK    5  A    between atoms: C_19  and  N_20
REMARK    6  A    between atoms: N_20  and  C_21
REMARK    7  A    between atoms: N_20  and  C_22
REMARK                            x       y       z     vdW  Elec       q    Type
REMARK                         _______ _______ _______ _____ _____    ______ ____
ROOT
ATOM      1  S   UNL     1      23.666   3.386  51.548  0.00  0.00    +0.000 S 
ATOM      2  O   UNL     1      22.311   3.851  51.307  0.00  0.00    +0.000 OA
ATOM      3  O   UNL     1      24.230   3.516  52.881  0.00  0.00    +0.000 OA
ENDROOT
BRANCH   1   4
ATOM      4  C   UNL     1      24.743   4.253  50.391  0.00  0.00    +0.000 A 
ATOM      5  C   UNL     1      25.703   3.451  49.755  0.00  0.00    +0.000 A 
ATOM      6  C   UNL     1      26.783   4.037  49.117  0.00  0.00    +0.000 A 
ATOM      7  C   UNL     1      26.900   5.425  49.094  0.00  0.00    +0.000 A 
ATOM      8  C   UNL     1      25.909   6.297  49.600  0.00  0.00    +0.000 A 
ATOM      9  C   UNL     1      26.016   7.733  49.500  0.00  0.00    +0.000 A 
ATOM     10  C   UNL     1      24.998   8.491  50.108  0.00  0.00    +0.000 A 
ATOM     11  C   UNL     1      23.922   7.904  50.767  0.00  0.00    +0.000 A 
ATOM     12  C   UNL     1      23.828   6.521  50.853  0.00  0.00    +0.000 A 
ATOM     13  C   UNL     1      24.803   5.676  50.290  0.00  0.00    +0.000 A 
BRANCH   9  14
ATOM     14  N   UNL     1      27.070   8.411  48.865  0.00  0.00    +0.000 N 
ATOM     15  C   UNL     1      27.116   8.641  47.425  0.00  0.00    +0.000 C 
ATOM     16  C   UNL     1      28.034   9.181  49.651  0.00  0.00    +0.000 C 
ENDBRANCH   9  14
ENDBRANCH   1   4
BRANCH   1  24
ATOM     17  C   UNL     1      21.438   0.650  50.750  0.00  0.00    +0.000 A 
ATOM     18  N   UNL     1      20.275   0.135  51.221  0.00  0.00    +0.000 NA
ATOM     19  C   UNL     1      20.198   0.033  52.562  0.00  0.00    +0.000 A 
ATOM     20 CL   UNL     1      18.711  -0.561  53.165  0.00  0.00    +0.000 Cl
ATOM     21  C   UNL     1      21.237   0.387  53.406  0.00  0.00    +0.000 A 
ATOM     22  N   UNL     1      22.393   0.930  52.951  0.00  0.00    +0.000 NA
ATOM     23  C   UNL     1      22.468   1.074  51.610  0.00  0.00    +0.000 A 
ATOM     24  N   UNL     1      23.653   1.733  51.199  0.00  0.00    +0.000 N 
ATOM     25  H   UNL     1      24.400   1.270  50.753  0.00  0.00    +0.000 HD
BRANCH  17  27
ATOM     26  C   UNL     1      20.854   1.781  48.795  0.00  0.00    +0.000 C 
ATOM     27  O   UNL     1      21.616   0.718  49.380  0.00  0.00    +0.000 OA
ENDBRANCH  17  27
ENDBRANCH   1  24
TORSDOF 4
ENDMDL
MODEL 7
REMARK VINA RESULT:    -7.292      2.077      3.690
REMARK INTER + INTRA:          -9.410
REMARK INTER:                  -9.205
REMARK INTRA:                  -0.205
REMARK UNBOUND:                -0.413
REMARK  Name = 
REMARK  7 active torsions:
REMARK  status: ('A' for Active; 'I' for Inactive)
REMARK    1  A    between atoms: C_1  and  O_2
REMARK    2  A    between atoms: O_2  and  C_3
REMARK    3  A    between atoms: N_10  and  S_11
REMARK    4  A    between atoms: S_11  and  C_14
REMARK    5  A    between atoms: C_19  and  N_20
REMARK    6  A    between atoms: N_20  and  C_21
REMARK    7  A    between atoms: N_20  and  C_22
REMARK                            x       y       z     vdW  Elec       q    Type
REMARK                         _______ _______ _______ _____ _____    ______ ____
ROOT
ATOM      1  S   UNL     1      21.445   0.954  52.975  0.00  0.00    +0.000 S 
ATOM      2  O   UNL     1      21.788   2.303  52.558  0.00  0.00    +0.000 OA
ATOM      3  O   UNL     1      20.508   0.773  54.072  0.00  0.00    +0.000 OA
ENDROOT
BRANCH   1   4
ATOM      4  C   UNL     1      22.984   0.118  53.401  0.00  0.00    +0.000 A 
ATOM      5  C   UNL     1      22.891  -0.799  54.458  0.00  0.00    +0.000 A 
ATOM      6  C   UNL     1      24.039  -1.245  55.092  0.00  0.00    +0.000 A 
ATOM      7  C   UNL     1      25.284  -0.794  54.661  0.00  0.00    +0.000 A 
ATOM      8  C   UNL     1      25.462   0.027  53.525  0.00  0.00    +0.000 A 
ATOM      9  C   UNL     1      26.767   0.425  53.051  0.00  0.00    +0.000 A 
ATOM     10  C   UNL     1      26.806   1.303  51.953  0.00  0.00    +0.000 A 
ATOM     11  C   UNL     1      25.653   1.769  51.328  0.00  0.00    +0.000 A 
ATOM     12  C   UNL     1      24.404   1.377  51.790  0.00  0.00    +0.000 A 
ATOM     13  C   UNL     1      24.258   0.512  52.891  0.00  0.00    +0.000 A 
BRANCH   9  14
ATOM     14  N   UNL     1      27.981   0.014  53.626  0.00  0.00    +0.000 N 
ATOM     15  C   UNL     1      28.577   0.671  54.784  0.00  0.00    +0.000 C 
ATOM     16  C   UNL     1      28.565  -1.281  53.276  0.00  0.00    +0.000 C 
ENDBRANCH   9  14
ENDBRANCH   1   4
BRANCH   1  24
ATOM     17  C   UNL     1      20.342   1.638  49.599  0.00  0.00    +0.000 A 
ATOM     18  N   UNL     1      19.597   2.574  48.958  0.00  0.00    +0.000 NA
ATOM     19  C   UNL     1      18.456   2.921  49.585  0.00  0.00    +0.000 A 
ATOM     20 CL   UNL     1      17.541   4.143  48.812  0.00  0.00    +0.000 Cl
ATOM     21  C   UNL     1      18.044   2.346  50.774  0.00  0.00    +0.000 A 
ATOM     22  N   UNL     1      18.792   1.432  51.441  0.00  0.00    +0.000 NA
ATOM     23  C   UNL     1      19.958   1.103  50.842  0.00  0.00    +0.000 A 
ATOM     24  N   UNL     1      20.741   0.220  51.626  0.00  0.00    +0.000 N 
ATOM     25  H   UNL     1      20.863  -0.732  51.405  0.00  0.00    +0.000 HD
BRANCH  17  27
ATOM     26  C   UNL     1      22.409   2.246  48.705  0.00  0.00    +0.000 C 
ATOM     27  O   UNL     1      21.491   1.181  48.980  0.00  0.00    +0.000 OA
ENDBRANCH  17  27
ENDBRANCH   1  24
TORSDOF 4
ENDMDL
MODEL 8
REMARK VINA RESULT:    -7.275      3.923      5.276
REMARK INTER + INTRA:          -9.389
REMARK INTER:                  -9.004
REMARK INTRA:                  -0.386
REMARK UNBOUND:                -0.413
REMARK  Name = 
REMARK  7 active torsions:
REMARK  status: ('A' for Active; 'I' for Inactive)
REMARK    1  A    between atoms: C_1  and  O_2
REMARK    2  A    between atoms: O_2  and  C_3
REMARK    3  A    between atoms: N_10  and  S_11
REMARK    4  A    between atoms: S_11  and  C_14
REMARK    5  A    between atoms: C_19  and  N_20
REMARK    6  A    between atoms: N_20  and  C_21
REMARK    7  A    between atoms: N_20  and  C_22
REMARK                            x       y       z     vdW  Elec       q    Type
REMARK                         _______ _______ _______ _____ _____    ______ ____
ROOT
ATOM      1  S   UNL     1      22.619   3.241  49.478  0.00  0.00    +0.000 S 
ATOM      2  O   UNL     1      21.612   3.712  50.413  0.00  0.00    +0.000 OA
ATOM      3  O   UNL     1      22.309   2.113  48.615  0.00  0.00    +0.000 OA
ENDROOT
BRANCH   1   4
ATOM      4  C   UNL     1      24.089   2.833  50.438  0.00  0.00    +0.000 A 
ATOM      5  C   UNL     1      25.281   3.413  49.979  0.00  0.00    +0.000 A 
ATOM      6  C   UNL     1      26.502   2.922  50.409  0.00  0.00    +0.000 A 
ATOM      7  C   UNL     1      26.540   1.865  51.315  0.00  0.00    +0.000 A 
ATOM      8  C   UNL     1      25.384   1.317  51.917  0.00  0.00    +0.000 A 
ATOM      9  C   UNL     1      25.449   0.269  52.909  0.00  0.00    +0.000 A 
ATOM     10  C   UNL     1      24.224  -0.241  53.378  0.00  0.00    +0.000 A 
ATOM     11  C   UNL     1      22.996   0.237  52.931  0.00  0.00    +0.000 A 
ATOM     12  C   UNL     1      22.946   1.248  51.980  0.00  0.00    +0.000 A 
ATOM     13  C   UNL     1      24.116   1.814  51.437  0.00  0.00    +0.000 A 
BRANCH   9  14
ATOM     14  N   UNL     1      26.641  -0.281  53.409  0.00  0.00    +0.000 N 
ATOM     15  C   UNL     1      27.268   0.169  54.647  0.00  0.00    +0.000 C 
ATOM     16  C   UNL     1      27.161  -1.536  52.867  0.00  0.00    +0.000 C 
ENDBRANCH   9  14
ENDBRANCH   1   4
BRANCH   1  24
ATOM     17  C   UNL     1      22.721   6.856  49.399  0.00  0.00    +0.000 A 
ATOM     18  N   UNL     1      21.929   7.889  49.780  0.00  0.00    +0.000 NA
ATOM     19  C   UNL     1      20.623   7.749  49.481  0.00  0.00    +0.000 A 
ATOM     20 CL   UNL     1      19.610   9.021  50.012  0.00  0.00    +0.000 Cl
ATOM     21  C   UNL     1      20.120   6.654  48.800  0.00  0.00    +0.000 A 
ATOM     22  N   UNL     1      20.894   5.600  48.439  0.00  0.00    +0.000 NA
ATOM     23  C   UNL     1      22.200   5.712  48.768  0.00  0.00    +0.000 A 
ATOM     24  N   UNL     1      22.941   4.546  48.453  0.00  0.00    +0.000 N 
ATOM     25  H   UNL     1      23.583   4.500  47.708  0.00  0.00    +0.000 HD
BRANCH  17  27
ATOM     26  C   UNL     1      24.416   6.880  51.000  0.00  0.00    +0.000 C 
ATOM     27  O   UNL     1      24.084   6.964  49.609  0.00  0.00    +0.000 OA
ENDBRANCH  17  27
ENDBRANCH   1  24
TORSDOF 4
ENDMDL
MODEL 9
REMARK VINA RESULT:    -6.983      3.890      5.891
REMARK INTER + INTRA:          -9.030
REMARK INTER:                  -9.061
REMARK INTRA:                   0.031
REMARK UNBOUND:                -0.413
REMARK  Name = 
REMARK  7 active torsions:
REMARK  status: ('A' for Active; 'I' for Inactive)
REMARK    1  A    between atoms: C_1  and  O_2
REMARK    2  A    between atoms: O_2  and  C_3
REMARK    3  A    between atoms: N_10  and  S_11
REMARK    4  A    between atoms: S_11  and  C_14
REMARK    5  A    between atoms: C_19  and  N_20
REMARK    6  A    between atoms: N_20  and  C_21
REMARK    7  A    between atoms: N_20  and  C_22
REMARK                            x       y       z     vdW  Elec       q    Type
REMARK                         _______ _______ _______ _____ _____    ______ ____
ROOT
ATOM      1  S   UNL     1      23.218   3.203  50.895  0.00  0.00    +0.000 S 
ATOM      2  O   UNL     1      23.158   1.892  50.273  0.00  0.00    +0.000 OA
ATOM      3  O   UNL     1      22.006   4.003  50.973  0.00  0.00    +0.000 OA
ENDROOT
BRANCH   1   4
ATOM      4  C   UNL     1      24.469   4.156  50.015  0.00  0.00    +0.000 A 
ATOM      5  C   UNL     1      25.528   3.404  49.485  0.00  0.00    +0.000 A 
ATOM      6  C   UNL     1      26.698   4.032  49.092  0.00  0.00    +0.000 A 
ATOM      7  C   UNL     1      26.808   5.416  49.206  0.00  0.00    +0.000 A 
ATOM      8  C   UNL     1      25.740   6.250  49.610  0.00  0.00    +0.000 A 
ATOM      9  C   UNL     1      25.854   7.689  49.652  0.00  0.00    +0.000 A 
ATOM     10  C   UNL     1      24.742   8.401  50.140  0.00  0.00    +0.000 A 
ATOM     11  C   UNL     1      23.574   7.769  50.556  0.00  0.00    +0.000 A 
ATOM     12  C   UNL     1      23.476   6.385  50.506  0.00  0.00    +0.000 A 
ATOM     13  C   UNL     1      24.537   5.582  50.047  0.00  0.00    +0.000 A 
BRANCH   9  14
ATOM     14  N   UNL     1      26.995   8.409  49.264  0.00  0.00    +0.000 N 
ATOM     15  C   UNL     1      27.438   8.516  47.878  0.00  0.00    +0.000 C 
ATOM     16  C   UNL     1      27.637   9.336  50.196  0.00  0.00    +0.000 C 
ENDBRANCH   9  14
ENDBRANCH   1   4
BRANCH   1  24
ATOM     17  C   UNL     1      24.111   0.566  53.203  0.00  0.00    +0.000 A 
ATOM     18  N   UNL     1      23.614  -0.634  53.595  0.00  0.00    +0.000 NA
ATOM     19  C   UNL     1      22.285  -0.657  53.815  0.00  0.00    +0.000 A 
ATOM     20 CL   UNL     1      21.643  -2.182  54.251  0.00  0.00    +0.000 Cl
ATOM     21  C   UNL     1      21.482   0.463  53.692  0.00  0.00    +0.000 A 
ATOM     22  N   UNL     1      21.959   1.661  53.274  0.00  0.00    +0.000 NA
ATOM     23  C   UNL     1      23.284   1.688  53.012  0.00  0.00    +0.000 A 
ATOM     24  N   UNL     1      23.710   2.934  52.489  0.00  0.00    +0.000 N 
ATOM     25  H   UNL     1      24.242   3.582  53.006  0.00  0.00    +0.000 HD
BRANCH  17  27
ATOM     26  C   UNL     1      26.186   0.565  54.269  0.00  0.00    +0.000 C 
ATOM     27  O   UNL     1      25.478   0.682  53.029  0.00  0.00    +0.000 OA
ENDBRANCH  17  27
ENDBRANCH   1  24
TORSDOF 4
ENDMDL
