MODEL 1
REMARK VINA RESULT:    -9.119      0.000      0.000
REMARK INTER + INTRA:         -13.083
REMARK INTER:                 -12.318
REMARK INTRA:                  -0.766
REMARK UNBOUND:                -0.766
REMARK  Name = 
REMARK  7 active torsions:
REMARK  status: ('A' for Active; 'I' for Inactive)
REMARK    1  A    between atoms: C_1  and  C_2
REMARK    2  A    between atoms: C_2  and  N_3
REMARK    3  A    between atoms: N_3  and  C_4
REMARK    4  A    between atoms: C_4  and  C_5
REMARK    5  A    between atoms: N_8  and  C_9
REMARK    6  A    between atoms: C_16  and  C_17
REMARK    7  A    between atoms: N_21  and  C_22
REMARK                            x       y       z     vdW  Elec       q    Type
REMARK                         _______ _______ _______ _____ _____    ______ ____
ROOT
ATOM      1  C   UNL     1      25.006   3.480  50.764  0.00  0.00    +0.000 A 
ATOM      2  C   UNL     1      23.614   3.624  50.823  0.00  0.00    +0.000 A 
ATOM      3  F   UNL     1      22.990   4.629  50.193  0.00  0.00    +0.000 F 
ATOM      4  C   UNL     1      22.811   2.764  51.561  0.00  0.00    +0.000 A 
ATOM      5  C   UNL     1      23.386   1.724  52.295  0.00  0.00    +0.000 A 
ATOM      6  C   UNL     1      22.468   0.840  53.052  0.00  0.00    +0.000 A 
ATOM      7  O   UNL     1      21.279   1.129  53.129  0.00  0.00    +0.000 OA
ATOM      8  C   UNL     1      23.053  -0.332  53.710  0.00  0.00    +0.000 A 
ATOM      9  C   UNL     1      24.394  -0.422  53.723  0.00  0.00    +0.000 A 
ATOM     10  N   UNL     1      25.325   0.434  53.116  0.00  0.00    +0.000 N 
ATOM     11  C   UNL     1      24.778   1.512  52.308  0.00  0.00    +0.000 A 
ATOM     12  C   UNL     1      25.540   2.370  51.479  0.00  0.00    +0.000 A 
ATOM     13  F   UNL     1      26.840   2.101  51.274  0.00  0.00    +0.000 F 
ENDROOT
BRANCH  10  14
ATOM     14  C   UNL     1      26.729   0.211  53.386  0.00  0.00    +0.000 A 
ATOM     15  C   UNL     1      27.401  -0.928  52.893  0.00  0.00    +0.000 A 
ATOM     16  C   UNL     1      28.762  -1.149  53.145  0.00  0.00    +0.000 A 
ATOM     17  C   UNL     1      29.497  -0.217  53.867  0.00  0.00    +0.000 A 
ATOM     18  C   UNL     1      28.859   0.906  54.381  0.00  0.00    +0.000 A 
ATOM     19  C   UNL     1      27.486   1.093  54.176  0.00  0.00    +0.000 A 
ENDBRANCH  10  14
BRANCH   1  23
ATOM     20  C   UNL     1      27.245   5.295  48.393  0.00  0.00    +0.000 C 
ATOM     21  C   UNL     1      26.125   6.272  48.768  0.00  0.00    +0.000 C 
ATOM     22  C   UNL     1      25.653   5.806  50.143  0.00  0.00    +0.000 C 
ATOM     23  N   UNL     1      25.823   4.361  50.076  0.00  0.00    +0.000 N 
ATOM     24  C   UNL     1      26.834   3.981  49.086  0.00  0.00    +0.000 C 
BRANCH  20  25
ATOM     25  C   UNL     1      28.624   5.829  48.807  0.00  0.00    +0.000 C 
BRANCH  25  26
ATOM     26  N   UNL     1      28.582   7.258  49.131  0.00  0.00    +0.000 N 
ATOM     27  H   UNL     1      27.645   7.608  48.930  0.00  0.00    +0.000 HD
ATOM     28  H   UNL     1      28.823   7.352  50.117  0.00  0.00    +0.000 HD
BRANCH  26  30
ATOM     29  C   UNL     1      29.788   7.566  46.945  0.00  0.00    +0.000 C 
ATOM     30  C   UNL     1      29.550   8.053  48.368  0.00  0.00    +0.000 C 
ENDBRANCH  26  30
ENDBRANCH  25  26
ENDBRANCH  20  25
ENDBRANCH   1  23
BRANCH   8  31
ATOM     31  C   UNL     1      22.284  -1.387  54.380  0.00  0.00    +0.000 C 
ATOM     32  O   UNL     1      21.206  -1.829  54.018  0.00  0.00    +0.000 OA
ATOM     33  O   UNL     1      22.836  -1.801  55.538  0.00  0.00    +0.000 OA
ENDBRANCH   8  31
TORSDOF 6
ENDMDL
MODEL 2
REMARK VINA RESULT:    -9.080      3.099      6.384
REMARK INTER + INTRA:         -13.030
REMARK INTER:                 -11.603
REMARK INTRA:                  -1.427
REMARK UNBOUND:                -0.766
REMARK  Name = 
REMARK  7 active torsions:
REMARK  status: ('A' for Active; 'I' for Inactive)
REMARK    1  A    between atoms: C_1  and  C_2
REMARK    2  A    between atoms: C_2  and  N_3
REMARK    3  A    between atoms: N_3  and  C_4
REMARK    4  A    between atoms: C_4  and  C_5
REMARK    5  A    between atoms: N_8  and  C_9
REMARK    6  A    between atoms: C_16  and  C_17
REMARK    7  A    between atoms: N_21  and  C_22
REMARK                            x       y       z     vdW  Elec       q    Type
REMARK                         _______ _______ _______ _____ _____    ______ ____
ROOT
ATOM      1  C   UNL     1      23.602   0.144  53.245  0.00  0.00    +0.000 A 
ATOM      2  C   UNL     1      22.907  -0.699  54.120  0.00  0.00    +0.000 A 
ATOM      3  F   UNL     1      23.539  -1.364  55.098  0.00  0.00    +0.000 F 
ATOM      4  C   UNL     1      21.541  -0.923  54.005  0.00  0.00    +0.000 A 
ATOM      5  C   UNL     1      20.815  -0.316  52.978  0.00  0.00    +0.000 A 
ATOM      6  C   UNL     1      19.359  -0.592  52.921  0.00  0.00    +0.000 A 
ATOM      7  O   UNL     1      18.876  -1.437  53.666  0.00  0.00    +0.000 OA
ATOM      8  C   UNL     1      18.572   0.151  51.932  0.00  0.00    +0.000 A 
ATOM      9  C   UNL     1      19.250   0.892  51.041  0.00  0.00    +0.000 A 
ATOM     10  N   UNL     1      20.634   1.115  50.973  0.00  0.00    +0.000 N 
ATOM     11  C   UNL     1      21.432   0.536  52.042  0.00  0.00    +0.000 A 
ATOM     12  C   UNL     1      22.809   0.788  52.252  0.00  0.00    +0.000 A 
ATOM     13  F   UNL     1      23.419   1.745  51.534  0.00  0.00    +0.000 F 
ENDROOT
BRANCH  10  14
ATOM     14  C   UNL     1      21.150   1.843  49.835  0.00  0.00    +0.000 A 
ATOM     15  C   UNL     1      21.085   3.252  49.771  0.00  0.00    +0.000 A 
ATOM     16  C   UNL     1      21.588   3.966  48.674  0.00  0.00    +0.000 A 
ATOM     17  C   UNL     1      22.201   3.291  47.627  0.00  0.00    +0.000 A 
ATOM     18  C   UNL     1      22.265   1.903  47.652  0.00  0.00    +0.000 A 
ATOM     19  C   UNL     1      21.709   1.191  48.723  0.00  0.00    +0.000 A 
ENDBRANCH  10  14
BRANCH   1  23
ATOM     20  C   UNL     1      27.120   1.127  54.009  0.00  0.00    +0.000 C 
ATOM     21  C   UNL     1      27.109  -0.402  53.900  0.00  0.00    +0.000 C 
ATOM     22  C   UNL     1      25.929  -0.713  52.985  0.00  0.00    +0.000 C 
ATOM     23  N   UNL     1      24.971   0.333  53.315  0.00  0.00    +0.000 N 
ATOM     24  C   UNL     1      25.635   1.516  53.872  0.00  0.00    +0.000 C 
BRANCH  20  25
ATOM     25  C   UNL     1      28.044   1.763  52.960  0.00  0.00    +0.000 C 
BRANCH  25  26
ATOM     26  N   UNL     1      27.351   2.783  52.167  0.00  0.00    +0.000 N 
ATOM     27  H   UNL     1      26.598   3.175  52.732  0.00  0.00    +0.000 HD
ATOM     28  H   UNL     1      28.043   3.486  51.908  0.00  0.00    +0.000 HD
BRANCH  26  30
ATOM     29  C   UNL     1      26.410   3.321  49.897  0.00  0.00    +0.000 C 
ATOM     30  C   UNL     1      26.777   2.258  50.924  0.00  0.00    +0.000 C 
ENDBRANCH  26  30
ENDBRANCH  25  26
ENDBRANCH  20  25
ENDBRANCH   1  23
BRANCH   8  31
ATOM     31  C   UNL     1      17.109   0.112  51.827  0.00  0.00    +0.000 C 
ATOM     32  O   UNL     1      16.428  -0.884  51.646  0.00  0.00    +0.000 OA
ATOM     33  O   UNL     1      16.536   1.331  51.861  0.00  0.00    +0.000 OA
ENDBRANCH   8  31
TORSDOF 6
ENDMDL
MODEL 3
REMARK VINA RESULT:    -8.876      4.010      6.906
REMARK INTER + INTRA:         -12.755
REMARK INTER:                 -11.558
REMARK INTRA:                  -1.196
REMARK UNBOUND:                -0.766
REMARK  Name = 
REMARK  7 active torsions:
REMARK  status: ('A' for Active; 'I' for Inactive)
REMARK    1  A    between atoms: C_1  and  C_2
REMARK    2  A    between atoms: C_2  and  N_3
REMARK    3  A    between atoms: N_3  and  C_4
REMARK    4  A    between atoms: C_4  and  C_5
REMARK    5  A    between atoms: N_8  and  C_9
REMARK    6  A    between atoms: C_16  and  C_17
REMARK    7  A    between atoms: N_21  and  C_22
REMARK                            x       y       z     vdW  Elec       q    Type
REMARK                         _______ _______ _______ _____ _____    ______ ____
ROOT
ATOM      1  C   UNL     1      23.380   0.223  53.276  0.00  0.00    +0.000 A 
ATOM      2  C   UNL     1      22.681  -0.621  54.148  0.00  0.00    +0.000 A 
ATOM      3  F   UNL     1      23.301  -1.252  55.155  0.00  0.00    +0.000 F 
ATOM      4  C   UNL     1      21.324  -0.881  53.999  0.00  0.00    +0.000 A 
ATOM      5  C   UNL     1      20.613  -0.311  52.940  0.00  0.00    +0.000 A 
ATOM      6  C   UNL     1      19.167  -0.625  52.848  0.00  0.00    +0.000 A 
ATOM      7  O   UNL     1      18.684  -1.468  53.595  0.00  0.00    +0.000 OA
ATOM      8  C   UNL     1      18.390   0.080  51.823  0.00  0.00    +0.000 A 
ATOM      9  C   UNL     1      19.075   0.822  50.937  0.00  0.00    +0.000 A 
ATOM     10  N   UNL     1      20.454   1.078  50.905  0.00  0.00    +0.000 N 
ATOM     11  C   UNL     1      21.235   0.538  52.006  0.00  0.00    +0.000 A 
ATOM     12  C   UNL     1      22.600   0.828  52.250  0.00  0.00    +0.000 A 
ATOM     13  F   UNL     1      23.206   1.787  51.531  0.00  0.00    +0.000 F 
ENDROOT
BRANCH  10  14
ATOM     14  C   UNL     1      20.985   1.798  49.767  0.00  0.00    +0.000 A 
ATOM     15  C   UNL     1      20.824   3.194  49.640  0.00  0.00    +0.000 A 
ATOM     16  C   UNL     1      21.340   3.900  48.544  0.00  0.00    +0.000 A 
ATOM     17  C   UNL     1      22.061   3.232  47.563  0.00  0.00    +0.000 A 
ATOM     18  C   UNL     1      22.221   1.854  47.651  0.00  0.00    +0.000 A 
ATOM     19  C   UNL     1      21.655   1.145  48.718  0.00  0.00    +0.000 A 
ENDBRANCH  10  14
BRANCH   1  23
ATOM     20  C   UNL     1      27.101   0.304  53.006  0.00  0.00    +0.000 C 
ATOM     21  C   UNL     1      26.632   1.763  52.998  0.00  0.00    +0.000 C 
ATOM     22  C   UNL     1      25.300   1.743  53.741  0.00  0.00    +0.000 C 
ATOM     23  N   UNL     1      24.742   0.448  53.381  0.00  0.00    +0.000 N 
ATOM     24  C   UNL     1      25.788  -0.504  52.997  0.00  0.00    +0.000 C 
BRANCH  20  25
ATOM     25  C   UNL     1      28.020   0.012  54.201  0.00  0.00    +0.000 C 
BRANCH  25  26
ATOM     26  N   UNL     1      29.431   0.235  53.872  0.00  0.00    +0.000 N 
ATOM     27  H   UNL     1      29.481   0.757  52.998  0.00  0.00    +0.000 HD
ATOM     28  H   UNL     1      29.845   0.748  54.650  0.00  0.00    +0.000 HD
BRANCH  26  30
ATOM     29  C   UNL     1      29.360  -2.214  53.300  0.00  0.00    +0.000 C 
ATOM     30  C   UNL     1      30.193  -1.009  53.717  0.00  0.00    +0.000 C 
ENDBRANCH  26  30
ENDBRANCH  25  26
ENDBRANCH  20  25
ENDBRANCH   1  23
BRANCH   8  31
ATOM     31  C   UNL     1      16.932   0.003  51.679  0.00  0.00    +0.000 C 
ATOM     32  O   UNL     1      16.296  -0.980  51.336  0.00  0.00    +0.000 OA
ATOM     33  O   UNL     1      16.310   1.181  51.877  0.00  0.00    +0.000 OA
ENDBRANCH   8  31
TORSDOF 6
ENDMDL
MODEL 4
REMARK VINA RESULT:    -8.803      3.400      6.522
REMARK INTER + INTRA:         -12.657
REMARK INTER:                 -11.261
REMARK INTRA:                  -1.396
REMARK UNBOUND:                -0.766
REMARK  Name = 
REMARK  7 active torsions:
REMARK  status: ('A' for Active; 'I' for Inactive)
REMARK    1  A    between atoms: C_1  and  C_2
REMARK    2  A    between atoms: C_2  and  N_3
REMARK    3  A    between atoms: N_3  and  C_4
REMARK    4  A    between atoms: C_4  and  C_5
REMARK    5  A    between atoms: N_8  and  C_9
REMARK    6  A    between atoms: C_16  and  C_17
REMARK    7  A    between atoms: N_21  and  C_22
REMARK                            x       y       z     vdW  Elec       q    Type
REMARK                         _______ _______ _______ _____ _____    ______ ____
ROOT
ATOM      1  C   UNL     1      21.665   0.897  51.897  0.00  0.00    +0.000 A 
ATOM      2  C   UNL     1      21.698  -0.055  52.923  0.00  0.00    +0.000 A 
ATOM      3  F   UNL     1      20.577  -0.642  53.366  0.00  0.00    +0.000 F 
ATOM      4  C   UNL     1      22.877  -0.416  53.563  0.00  0.00    +0.000 A 
ATOM      5  C   UNL     1      24.083   0.191  53.203  0.00  0.00    +0.000 A 
ATOM      6  C   UNL     1      25.303  -0.249  53.921  0.00  0.00    +0.000 A 
ATOM      7  O   UNL     1      25.200  -1.002  54.881  0.00  0.00    +0.000 OA
ATOM      8  C   UNL     1      26.588   0.283  53.452  0.00  0.00    +0.000 A 
ATOM      9  C   UNL     1      26.547   1.256  52.527  0.00  0.00    +0.000 A 
ATOM     10  N   UNL     1      25.422   1.791  51.882  0.00  0.00    +0.000 N 
ATOM     11  C   UNL     1      24.145   1.169  52.193  0.00  0.00    +0.000 A 
ATOM     12  C   UNL     1      22.926   1.442  51.524  0.00  0.00    +0.000 A 
ATOM     13  F   UNL     1      22.941   2.203  50.417  0.00  0.00    +0.000 F 
ENDROOT
BRANCH  10  14
ATOM     14  C   UNL     1      25.614   2.935  51.018  0.00  0.00    +0.000 A 
ATOM     15  C   UNL     1      24.857   4.115  51.178  0.00  0.00    +0.000 A 
ATOM     16  C   UNL     1      25.041   5.230  50.348  0.00  0.00    +0.000 A 
ATOM     17  C   UNL     1      26.014   5.207  49.357  0.00  0.00    +0.000 A 
ATOM     18  C   UNL     1      26.765   4.054  49.163  0.00  0.00    +0.000 A 
ATOM     19  C   UNL     1      26.536   2.922  49.957  0.00  0.00    +0.000 A 
ENDBRANCH  10  14
BRANCH   1  23
ATOM     20  C   UNL     1      18.520   1.305  49.930  0.00  0.00    +0.000 C 
ATOM     21  C   UNL     1      18.199   1.750  51.362  0.00  0.00    +0.000 C 
ATOM     22  C   UNL     1      19.540   2.200  51.934  0.00  0.00    +0.000 C 
ATOM     23  N   UNL     1      20.490   1.304  51.289  0.00  0.00    +0.000 N 
ATOM     24  C   UNL     1      19.967   0.782  50.024  0.00  0.00    +0.000 C 
BRANCH  20  25
ATOM     25  C   UNL     1      18.320   2.448  48.925  0.00  0.00    +0.000 C 
BRANCH  25  26
ATOM     26  N   UNL     1      19.399   2.501  47.934  0.00  0.00    +0.000 N 
ATOM     27  H   UNL     1      20.127   1.843  48.214  0.00  0.00    +0.000 HD
ATOM     28  H   UNL     1      18.992   2.262  47.030  0.00  0.00    +0.000 HD
BRANCH  26  30
ATOM     29  C   UNL     1      20.742   4.318  49.042  0.00  0.00    +0.000 C 
ATOM     30  C   UNL     1      20.000   3.832  47.803  0.00  0.00    +0.000 C 
ENDBRANCH  26  30
ENDBRANCH  25  26
ENDBRANCH  20  25
ENDBRANCH   1  23
BRANCH   8  31
ATOM     31  C   UNL     1      27.901  -0.146  53.946  0.00  0.00    +0.000 C 
ATOM     32  O   UNL     1      28.533   0.374  54.850  0.00  0.00    +0.000 OA
ATOM     33  O   UNL     1      28.435  -1.160  53.237  0.00  0.00    +0.000 OA
ENDBRANCH   8  31
TORSDOF 6
ENDMDL
MODEL 5
REMARK VINA RESULT:    -8.779      3.480      7.537
REMARK INTER + INTRA:         -12.624
REMARK INTER:                 -11.575
REMARK INTRA:                  -1.049
REMARK UNBOUND:                -0.766
REMARK  Name = 
REMARK  7 active torsions:
REMARK  status: ('A' for Active; 'I' for Inactive)
REMARK    1  A    between atoms: C_1  and  C_2
REMARK    2  A    between atoms: C_2  and  N_3
REMARK    3  A    between atoms: N_3  and  C_4
REMARK    4  A    between atoms: C_4  and  C_5
REMARK    5  A    between atoms: N_8  and  C_9
REMARK    6  A    between atoms: C_16  and  C_17
REMARK    7  A    between atoms: N_21  and  C_22
REMARK                            x       y       z     vdW  Elec       q    Type
REMARK                         _______ _______ _______ _____ _____    ______ ____
ROOT
ATOM      1  C   UNL     1      22.341   1.458  52.060  0.00  0.00    +0.000 A 
ATOM      2  C   UNL     1      21.750   2.232  51.055  0.00  0.00    +0.000 A 
ATOM      3  F   UNL     1      20.428   2.193  50.831  0.00  0.00    +0.000 F 
ATOM      4  C   UNL     1      22.494   3.049  50.213  0.00  0.00    +0.000 A 
ATOM      5  C   UNL     1      23.885   3.103  50.339  0.00  0.00    +0.000 A 
ATOM      6  C   UNL     1      24.614   4.002  49.413  0.00  0.00    +0.000 A 
ATOM      7  O   UNL     1      24.009   4.543  48.496  0.00  0.00    +0.000 OA
ATOM      8  C   UNL     1      26.055   4.167  49.633  0.00  0.00    +0.000 A 
ATOM      9  C   UNL     1      26.633   3.362  50.540  0.00  0.00    +0.000 A 
ATOM     10  N   UNL     1      26.019   2.417  51.375  0.00  0.00    +0.000 N 
ATOM     11  C   UNL     1      24.568   2.348  51.311  0.00  0.00    +0.000 A 
ATOM     12  C   UNL     1      23.753   1.592  52.189  0.00  0.00    +0.000 A 
ATOM     13  F   UNL     1      24.309   1.015  53.267  0.00  0.00    +0.000 F 
ENDROOT
BRANCH  10  14
ATOM     14  C   UNL     1      26.869   1.566  52.178  0.00  0.00    +0.000 A 
ATOM     15  C   UNL     1      26.868   0.164  52.019  0.00  0.00    +0.000 A 
ATOM     16  C   UNL     1      27.693  -0.668  52.789  0.00  0.00    +0.000 A 
ATOM     17  C   UNL     1      28.568  -0.116  53.715  0.00  0.00    +0.000 A 
ATOM     18  C   UNL     1      28.580   1.261  53.907  0.00  0.00    +0.000 A 
ATOM     19  C   UNL     1      27.713   2.082  53.177  0.00  0.00    +0.000 A 
ENDBRANCH  10  14
BRANCH   1  23
ATOM     20  C   UNL     1      20.980  -1.329  54.136  0.00  0.00    +0.000 C 
ATOM     21  C   UNL     1      20.824  -0.051  54.967  0.00  0.00    +0.000 C 
ATOM     22  C   UNL     1      20.745   1.071  53.936  0.00  0.00    +0.000 C 
ATOM     23  N   UNL     1      21.617   0.599  52.870  0.00  0.00    +0.000 N 
ATOM     24  C   UNL     1      21.744  -0.861  52.882  0.00  0.00    +0.000 C 
BRANCH  20  25
ATOM     25  C   UNL     1      19.622  -1.985  53.846  0.00  0.00    +0.000 C 
BRANCH  25  26
ATOM     26  N   UNL     1      18.521  -1.020  53.925  0.00  0.00    +0.000 N 
ATOM     27  H   UNL     1      17.954  -1.242  54.742  0.00  0.00    +0.000 HD
ATOM     28  H   UNL     1      18.938  -0.091  53.988  0.00  0.00    +0.000 HD
BRANCH  26  30
ATOM     29  C   UNL     1      18.198  -0.242  51.554  0.00  0.00    +0.000 C 
ATOM     30  C   UNL     1      17.657  -1.030  52.740  0.00  0.00    +0.000 C 
ENDBRANCH  26  30
ENDBRANCH  25  26
ENDBRANCH  20  25
ENDBRANCH   1  23
BRANCH   8  31
ATOM     31  C   UNL     1      26.908   5.118  48.910  0.00  0.00    +0.000 C 
ATOM     32  O   UNL     1      26.640   6.285  48.672  0.00  0.00    +0.000 OA
ATOM     33  O   UNL     1      28.035   4.564  48.422  0.00  0.00    +0.000 OA
ENDBRANCH   8  31
TORSDOF 6
ENDMDL
MODEL 6
REMARK VINA RESULT:    -8.689      3.711      7.820
REMARK INTER + INTRA:         -12.502
REMARK INTER:                 -11.706
REMARK INTRA:                  -0.796
REMARK UNBOUND:                -0.766
REMARK  Name = 
REMARK  7 active torsions:
REMARK  status: ('A' for Active; 'I' for Inactive)
REMARK    1  A    between atoms: C_1  and  C_2
REMARK    2  A    between atoms: C_2  and  N_3
REMARK    3  A    between atoms: N_3  and  C_4
REMARK    4  A    between atoms: C_4  and  C_5
REMARK    5  A    between atoms: N_8  and  C_9
REMARK    6  A    between atoms: C_16  and  C_17
REMARK    7  A    between atoms: N_21  and  C_22
REMARK                            x       y       z     vdW  Elec       q    Type
REMARK                         _______ _______ _______ _____ _____    ______ ____
ROOT
ATOM      1  C   UNL     1      22.620   0.461  52.178  0.00  0.00    +0.000 A 
ATOM      2  C   UNL     1      22.921  -0.362  53.270  0.00  0.00    +0.000 A 
ATOM      3  F   UNL     1      21.999  -1.173  53.808  0.00  0.00    +0.000 F 
ATOM      4  C   UNL     1      24.170  -0.359  53.878  0.00  0.00    +0.000 A 
ATOM      5  C   UNL     1      25.172   0.499  53.418  0.00  0.00    +0.000 A 
ATOM      6  C   UNL     1      26.483   0.443  54.108  0.00  0.00    +0.000 A 
ATOM      7  O   UNL     1      26.600  -0.228  55.126  0.00  0.00    +0.000 OA
ATOM      8  C   UNL     1      27.576   1.239  53.541  0.00  0.00    +0.000 A 
ATOM      9  C   UNL     1      27.264   2.089  52.548  0.00  0.00    +0.000 A 
ATOM     10  N   UNL     1      26.023   2.267  51.918  0.00  0.00    +0.000 N 
ATOM     11  C   UNL     1      24.955   1.372  52.335  0.00  0.00    +0.000 A 
ATOM     12  C   UNL     1      23.690   1.272  51.706  0.00  0.00    +0.000 A 
ATOM     13  F   UNL     1      23.481   1.916  50.546  0.00  0.00    +0.000 F 
ENDROOT
BRANCH  10  14
ATOM     14  C   UNL     1      25.895   3.346  50.963  0.00  0.00    +0.000 A 
ATOM     15  C   UNL     1      24.925   4.359  51.121  0.00  0.00    +0.000 A 
ATOM     16  C   UNL     1      24.798   5.410  50.203  0.00  0.00    +0.000 A 
ATOM     17  C   UNL     1      25.662   5.495  49.118  0.00  0.00    +0.000 A 
ATOM     18  C   UNL     1      26.616   4.503  48.925  0.00  0.00    +0.000 A 
ATOM     19  C   UNL     1      26.700   3.424  49.814  0.00  0.00    +0.000 A 
ENDBRANCH  10  14
BRANCH   1  23
ATOM     20  C   UNL     1      19.089   1.103  51.155  0.00  0.00    +0.000 C 
ATOM     21  C   UNL     1      19.930   1.161  49.874  0.00  0.00    +0.000 C 
ATOM     22  C   UNL     1      21.146   0.289  50.174  0.00  0.00    +0.000 C 
ATOM     23  N   UNL     1      21.364   0.506  51.598  0.00  0.00    +0.000 N 
ATOM     24  C   UNL     1      20.134   0.929  52.274  0.00  0.00    +0.000 C 
BRANCH  20  25
ATOM     25  C   UNL     1      18.034  -0.011  51.089  0.00  0.00    +0.000 C 
BRANCH  25  26
ATOM     26  N   UNL     1      18.023  -0.826  52.307  0.00  0.00    +0.000 N 
ATOM     27  H   UNL     1      18.588  -1.659  52.145  0.00  0.00    +0.000 HD
ATOM     28  H   UNL     1      18.397  -0.249  53.060  0.00  0.00    +0.000 HD
BRANCH  26  30
ATOM     29  C   UNL     1      15.683  -1.372  51.563  0.00  0.00    +0.000 C 
ATOM     30  C   UNL     1      16.677  -1.247  52.710  0.00  0.00    +0.000 C 
ENDBRANCH  26  30
ENDBRANCH  25  26
ENDBRANCH  20  25
ENDBRANCH   1  23
BRANCH   8  31
ATOM     31  C   UNL     1      28.968   1.198  54.003  0.00  0.00    +0.000 C 
ATOM     32  O   UNL     1      29.525   2.046  54.680  0.00  0.00    +0.000 OA
ATOM     33  O   UNL     1      29.658   0.141  53.531  0.00  0.00    +0.000 OA
ENDBRANCH   8  31
TORSDOF 6
ENDMDL
MODEL 7
REMARK VINA RESULT:    -8.683      3.936      7.380
REMARK INTER + INTRA:         -12.494
REMARK INTER:                 -11.762
REMARK INTRA:                  -0.732
REMARK UNBOUND:                -0.766
REMARK  Name = 
REMARK  7 active torsions:
REMARK  status: ('A' for Active; 'I' for Inactive)
REMARK    1  A    between atoms: C_1  and  C_2
REMARK    2  A    between atoms: C_2  and  N_3
REMARK    3  A    between atoms: N_3  and  C_4
REMARK    4  A    between atoms: C_4  and  C_5
REMARK    5  A    between atoms: N_8  and  C_9
REMARK    6  A    between atoms: C_16  and  C_17
REMARK    7  A    between atoms: N_21  and  C_22
REMARK                            x       y       z     vdW  Elec       q    Type
REMARK                         _______ _______ _______ _____ _____    ______ ____
ROOT
ATOM      1  C   UNL     1      21.606   0.965  52.221  0.00  0.00    +0.000 A 
ATOM      2  C   UNL     1      21.669   0.015  53.248  0.00  0.00    +0.000 A 
ATOM      3  F   UNL     1      20.557  -0.535  53.757  0.00  0.00    +0.000 F 
ATOM      4  C   UNL     1      22.871  -0.381  53.819  0.00  0.00    +0.000 A 
ATOM      5  C   UNL     1      24.073   0.186  53.387  0.00  0.00    +0.000 A 
ATOM      6  C   UNL     1      25.318  -0.290  54.035  0.00  0.00    +0.000 A 
ATOM      7  O   UNL     1      25.247  -1.038  55.003  0.00  0.00    +0.000 OA
ATOM      8  C   UNL     1      26.589   0.200  53.490  0.00  0.00    +0.000 A 
ATOM      9  C   UNL     1      26.525   1.172  52.565  0.00  0.00    +0.000 A 
ATOM     10  N   UNL     1      25.382   1.741  51.985  0.00  0.00    +0.000 N 
ATOM     11  C   UNL     1      24.106   1.160  52.371  0.00  0.00    +0.000 A 
ATOM     12  C   UNL     1      22.860   1.470  51.774  0.00  0.00    +0.000 A 
ATOM     13  F   UNL     1      22.834   2.228  50.665  0.00  0.00    +0.000 F 
ENDROOT
BRANCH  10  14
ATOM     14  C   UNL     1      25.560   2.877  51.106  0.00  0.00    +0.000 A 
ATOM     15  C   UNL     1      24.791   4.051  51.256  0.00  0.00    +0.000 A 
ATOM     16  C   UNL     1      24.961   5.158  50.412  0.00  0.00    +0.000 A 
ATOM     17  C   UNL     1      25.931   5.132  49.418  0.00  0.00    +0.000 A 
ATOM     18  C   UNL     1      26.692   3.984  49.234  0.00  0.00    +0.000 A 
ATOM     19  C   UNL     1      26.478   2.860  50.042  0.00  0.00    +0.000 A 
ENDBRANCH  10  14
BRANCH   1  23
ATOM     20  C   UNL     1      18.686   2.854  50.869  0.00  0.00    +0.000 C 
ATOM     21  C   UNL     1      18.991   1.744  49.858  0.00  0.00    +0.000 C 
ATOM     22  C   UNL     1      19.672   0.653  50.679  0.00  0.00    +0.000 C 
ATOM     23  N   UNL     1      20.411   1.408  51.681  0.00  0.00    +0.000 N 
ATOM     24  C   UNL     1      19.820   2.731  51.905  0.00  0.00    +0.000 C 
BRANCH  20  25
ATOM     25  C   UNL     1      17.272   2.714  51.453  0.00  0.00    +0.000 C 
BRANCH  25  26
ATOM     26  N   UNL     1      16.815   3.957  52.082  0.00  0.00    +0.000 N 
ATOM     27  H   UNL     1      17.168   3.985  53.039  0.00  0.00    +0.000 HD
ATOM     28  H   UNL     1      17.170   4.729  51.519  0.00  0.00    +0.000 HD
BRANCH  26  30
ATOM     29  C   UNL     1      14.765   4.191  53.522  0.00  0.00    +0.000 C 
ATOM     30  C   UNL     1      15.354   4.083  52.122  0.00  0.00    +0.000 C 
ENDBRANCH  26  30
ENDBRANCH  25  26
ENDBRANCH  20  25
ENDBRANCH   1  23
BRANCH   8  31
ATOM     31  C   UNL     1      27.915  -0.270  53.909  0.00  0.00    +0.000 C 
ATOM     32  O   UNL     1      28.559   0.150  54.856  0.00  0.00    +0.000 OA
ATOM     33  O   UNL     1      28.444  -1.191  53.079  0.00  0.00    +0.000 OA
ENDBRANCH   8  31
TORSDOF 6
ENDMDL
MODEL 8
REMARK VINA RESULT:    -8.682      1.584      2.421
REMARK INTER + INTRA:         -12.492
REMARK INTER:                 -11.141
REMARK INTRA:                  -1.352
REMARK UNBOUND:                -0.766
REMARK  Name = 
REMARK  7 active torsions:
REMARK  status: ('A' for Active; 'I' for Inactive)
REMARK    1  A    between atoms: C_1  and  C_2
REMARK    2  A    between atoms: C_2  and  N_3
REMARK    3  A    between atoms: N_3  and  C_4
REMARK    4  A    between atoms: C_4  and  C_5
REMARK    5  A    between atoms: N_8  and  C_9
REMARK    6  A    between atoms: C_16  and  C_17
REMARK    7  A    between atoms: N_21  and  C_22
REMARK                            x       y       z     vdW  Elec       q    Type
REMARK                         _______ _______ _______ _____ _____    ______ ____
ROOT
ATOM      1  C   UNL     1      24.032   3.485  50.886  0.00  0.00    +0.000 A 
ATOM      2  C   UNL     1      22.643   3.582  51.038  0.00  0.00    +0.000 A 
ATOM      3  F   UNL     1      21.948   4.582  50.478  0.00  0.00    +0.000 F 
ATOM      4  C   UNL     1      21.917   2.678  51.803  0.00  0.00    +0.000 A 
ATOM      5  C   UNL     1      22.571   1.639  52.470  0.00  0.00    +0.000 A 
ATOM      6  C   UNL     1      21.732   0.707  53.261  0.00  0.00    +0.000 A 
ATOM      7  O   UNL     1      20.543   0.954  53.422  0.00  0.00    +0.000 OA
ATOM      8  C   UNL     1      22.396  -0.462  53.847  0.00  0.00    +0.000 A 
ATOM      9  C   UNL     1      23.737  -0.508  53.771  0.00  0.00    +0.000 A 
ATOM     10  N   UNL     1      24.599   0.393  53.128  0.00  0.00    +0.000 N 
ATOM     11  C   UNL     1      23.967   1.472  52.387  0.00  0.00    +0.000 A 
ATOM     12  C   UNL     1      24.646   2.376  51.534  0.00  0.00    +0.000 A 
ATOM     13  F   UNL     1      25.937   2.155  51.238  0.00  0.00    +0.000 F 
ENDROOT
BRANCH  10  14
ATOM     14  C   UNL     1      26.024   0.209  53.300  0.00  0.00    +0.000 A 
ATOM     15  C   UNL     1      26.780   1.059  54.135  0.00  0.00    +0.000 A 
ATOM     16  C   UNL     1      28.160   0.885  54.311  0.00  0.00    +0.000 A 
ATOM     17  C   UNL     1      28.815  -0.167  53.683  0.00  0.00    +0.000 A 
ATOM     18  C   UNL     1      28.100  -1.011  52.840  0.00  0.00    +0.000 A 
ATOM     19  C   UNL     1      26.733  -0.797  52.622  0.00  0.00    +0.000 A 
ENDBRANCH  10  14
BRANCH   1  23
ATOM     20  C   UNL     1      26.070   6.346  49.628  0.00  0.00    +0.000 C 
ATOM     21  C   UNL     1      26.751   5.071  49.118  0.00  0.00    +0.000 C 
ATOM     22  C   UNL     1      25.630   4.038  49.053  0.00  0.00    +0.000 C 
ATOM     23  N   UNL     1      24.774   4.410  50.171  0.00  0.00    +0.000 N 
ATOM     24  C   UNL     1      24.932   5.823  50.525  0.00  0.00    +0.000 C 
BRANCH  20  25
ATOM     25  C   UNL     1      25.607   7.241  48.469  0.00  0.00    +0.000 C 
BRANCH  25  26
ATOM     26  N   UNL     1      24.156   7.448  48.484  0.00  0.00    +0.000 N 
ATOM     27  H   UNL     1      23.765   6.940  49.277  0.00  0.00    +0.000 HD
ATOM     28  H   UNL     1      23.994   8.452  48.553  0.00  0.00    +0.000 HD
BRANCH  26  30
ATOM     29  C   UNL     1      22.692   5.697  47.424  0.00  0.00    +0.000 C 
ATOM     30  C   UNL     1      23.492   6.983  47.261  0.00  0.00    +0.000 C 
ENDBRANCH  26  30
ENDBRANCH  25  26
ENDBRANCH  20  25
ENDBRANCH   1  23
BRANCH   8  31
ATOM     31  C   UNL     1      21.706  -1.558  54.536  0.00  0.00    +0.000 C 
ATOM     32  O   UNL     1      20.549  -1.902  54.359  0.00  0.00    +0.000 OA
ATOM     33  O   UNL     1      22.449  -2.141  55.497  0.00  0.00    +0.000 OA
ENDBRANCH   8  31
TORSDOF 6
ENDMDL
MODEL 9
REMARK VINA RESULT:    -8.386      1.919      4.631
REMARK INTER + INTRA:         -12.093
REMARK INTER:                 -11.177
REMARK INTRA:                  -0.915
REMARK UNBOUND:                -0.766
REMARK  Name = 
REMARK  7 active torsions:
REMARK  status: ('A' for Active; 'I' for Inactive)
REMARK    1  A    between atoms: C_1  and  C_2
REMARK    2  A    between atoms: C_2  and  N_3
REMARK    3  A    between atoms: N_3  and  C_4
REMARK    4  A    between atoms: C_4  and  C_5
REMARK    5  A    between atoms: N_8  and  C_9
REMARK    6  A    between atoms: C_16  and  C_17
REMARK    7  A    between atoms: N_21  and  C_22
REMARK                            x       y       z     vdW  Elec       q    Type
REMARK                         _______ _______ _______ _____ _____    ______ ____
ROOT
ATOM      1  C   UNL     1      25.485   3.124  51.164  0.00  0.00    +0.000 A 
ATOM      2  C   UNL     1      26.360   2.401  51.984  0.00  0.00    +0.000 A 
ATOM      3  F   UNL     1      27.673   2.672  52.012  0.00  0.00    +0.000 F 
ATOM      4  C   UNL     1      25.930   1.347  52.780  0.00  0.00    +0.000 A 
ATOM      5  C   UNL     1      24.588   0.960  52.765  0.00  0.00    +0.000 A 
ATOM      6  C   UNL     1      24.198  -0.167  53.646  0.00  0.00    +0.000 A 
ATOM      7  O   UNL     1      25.066  -0.803  54.232  0.00  0.00    +0.000 OA
ATOM      8  C   UNL     1      22.769  -0.485  53.739  0.00  0.00    +0.000 A 
ATOM      9  C   UNL     1      21.944   0.152  52.891  0.00  0.00    +0.000 A 
ATOM     10  N   UNL     1      22.261   1.153  51.961  0.00  0.00    +0.000 N 
ATOM     11  C   UNL     1      23.639   1.619  51.961  0.00  0.00    +0.000 A 
ATOM     12  C   UNL     1      24.118   2.733  51.229  0.00  0.00    +0.000 A 
ATOM     13  F   UNL     1      23.239   3.536  50.607  0.00  0.00    +0.000 F 
ENDROOT
BRANCH  10  14
ATOM     14  C   UNL     1      21.222   1.593  51.055  0.00  0.00    +0.000 A 
ATOM     15  C   UNL     1      20.186   2.450  51.484  0.00  0.00    +0.000 A 
ATOM     16  C   UNL     1      19.179   2.885  50.612  0.00  0.00    +0.000 A 
ATOM     17  C   UNL     1      19.201   2.503  49.277  0.00  0.00    +0.000 A 
ATOM     18  C   UNL     1      20.199   1.646  48.828  0.00  0.00    +0.000 A 
ATOM     19  C   UNL     1      21.170   1.167  49.717  0.00  0.00    +0.000 A 
ENDBRANCH  10  14
BRANCH   1  23
ATOM     20  C   UNL     1      26.758   5.297  48.411  0.00  0.00    +0.000 C 
ATOM     21  C   UNL     1      25.465   5.948  48.915  0.00  0.00    +0.000 C 
ATOM     22  C   UNL     1      25.340   5.480  50.362  0.00  0.00    +0.000 C 
ATOM     23  N   UNL     1      25.910   4.141  50.326  0.00  0.00    +0.000 N 
ATOM     24  C   UNL     1      26.844   3.981  49.208  0.00  0.00    +0.000 C 
BRANCH  20  25
ATOM     25  C   UNL     1      27.966   6.229  48.588  0.00  0.00    +0.000 C 
BRANCH  25  26
ATOM     26  N   UNL     1      29.191   5.484  48.895  0.00  0.00    +0.000 N 
ATOM     27  H   UNL     1      29.347   5.518  49.902  0.00  0.00    +0.000 HD
ATOM     28  H   UNL     1      29.056   4.530  48.559  0.00  0.00    +0.000 HD
BRANCH  26  30
ATOM     29  C   UNL     1      31.326   4.960  47.671  0.00  0.00    +0.000 C 
ATOM     30  C   UNL     1      30.379   6.019  48.220  0.00  0.00    +0.000 C 
ENDBRANCH  26  30
ENDBRANCH  25  26
ENDBRANCH  20  25
ENDBRANCH   1  23
BRANCH   8  31
ATOM     31  C   UNL     1      22.188  -1.467  54.661  0.00  0.00    +0.000 C 
ATOM     32  O   UNL     1      22.779  -2.045  55.559  0.00  0.00    +0.000 OA
ATOM     33  O   UNL     1      20.906  -1.772  54.382  0.00  0.00    +0.000 OA
ENDBRANCH   8  31
TORSDOF 6
ENDMDL
