MODEL 1
REMARK VINA RESULT:    -9.223      0.000      0.000
REMARK INTER + INTRA:         -15.325
REMARK INTER:                 -13.806
REMARK INTRA:                  -1.519
REMARK UNBOUND:                -1.519
REMARK  Name = 
REMARK  10 active torsions:
REMARK  status: ('A' for Active; 'I' for Inactive)
REMARK    1  A    between atoms: C_2  and  C_3
REMARK    2  A    between atoms: C_3  and  N_4
REMARK    3  A    between atoms: N_4  and  C_5
REMARK    4  A    between atoms: N_4  and  C_18
REMARK    5  A    between atoms: C_5  and  C_6
REMARK    6  A    between atoms: C_11  and  C_12
REMARK    7  A    between atoms: C_14  and  O_15
REMARK    8  A    between atoms: C_21  and  C_22
REMARK    9  A    between atoms: N_24  and  C_25
REMARK   10  A    between atoms: C_25  and  C_26
REMARK                            x       y       z     vdW  Elec       q    Type
REMARK                         _______ _______ _______ _____ _____    ______ ____
ROOT
ATOM      1  N   UNL     1      23.598   3.693  51.907  0.00  0.00    +0.000 N 
ENDROOT
BRANCH   1   2
ATOM      2  C   UNL     1      24.479   4.199  50.955  0.00  0.00    +0.000 A 
ATOM      3  C   UNL     1      25.354   3.392  50.209  0.00  0.00    +0.000 A 
ATOM      4  C   UNL     1      26.342   3.933  49.364  0.00  0.00    +0.000 A 
ATOM      5  C   UNL     1      26.465   5.314  49.194  0.00  0.00    +0.000 A 
ATOM      6  C   UNL     1      25.510   6.125  49.798  0.00  0.00    +0.000 A 
ATOM      7  C   UNL     1      24.554   5.574  50.669  0.00  0.00    +0.000 A 
BRANCH   5   8
ATOM      8  C   UNL     1      27.628   5.848  48.412  0.00  0.00    +0.000 C 
ATOM      9  O   UNL     1      27.454   6.740  47.588  0.00  0.00    +0.000 OA
ATOM     10  N   UNL     1      28.859   5.267  48.634  0.00  0.00    +0.000 N 
ATOM     11  H   UNL     1      28.925   4.540  49.296  0.00  0.00    +0.000 HD
BRANCH  10  12
ATOM     12  C   UNL     1      30.056   5.680  47.936  0.00  0.00    +0.000 C 
BRANCH  12  13
ATOM     13  C   UNL     1      30.677   6.812  48.676  0.00  0.00    +0.000 A 
ATOM     14  C   UNL     1      30.368   8.201  48.572  0.00  0.00    +0.000 A 
ATOM     15  C   UNL     1      31.221   8.860  49.428  0.00  0.00    +0.000 A 
ATOM     16  O   UNL     1      32.034   7.972  50.054  0.00  0.00    +0.000 OA
ATOM     17  C   UNL     1      31.701   6.738  49.599  0.00  0.00    +0.000 A 
ENDBRANCH  12  13
ENDBRANCH  10  12
ENDBRANCH   5   8
ENDBRANCH   1   2
BRANCH   1  18
ATOM     18  C   UNL     1      22.193   3.368  51.622  0.00  0.00    +0.000 C 
BRANCH  18  20
ATOM     19  C   UNL     1      21.915   1.093  50.247  0.00  0.00    +0.000 C 
ATOM     20  C   UNL     1      22.066   2.104  50.868  0.00  0.00    +0.000 C 
ENDBRANCH  18  20
ENDBRANCH   1  18
BRANCH   1  21
ATOM     21  C   UNL     1      24.077   3.267  53.234  0.00  0.00    +0.000 C 
BRANCH  21  22
ATOM     22  C   UNL     1      25.050   2.107  53.184  0.00  0.00    +0.000 A 
ATOM     23  C   UNL     1      24.680   0.801  52.849  0.00  0.00    +0.000 A 
ATOM     24  C   UNL     1      25.637  -0.218  52.780  0.00  0.00    +0.000 A 
ATOM     25  C   UNL     1      26.965   0.010  53.102  0.00  0.00    +0.000 A 
ATOM     26  N   UNL     1      27.832  -1.012  53.096  0.00  0.00    +0.000 NA
ATOM     27  C   UNL     1      29.093  -0.764  53.498  0.00  0.00    +0.000 A 
ATOM     28  C   UNL     1      30.019  -1.936  53.561  0.00  0.00    +0.000 C 
ATOM     29  N   UNL     1      29.561   0.435  53.883  0.00  0.00    +0.000 NA
ATOM     30  C   UNL     1      28.665   1.426  53.841  0.00  0.00    +0.000 A 
ATOM     31  C   UNL     1      27.338   1.302  53.465  0.00  0.00    +0.000 A 
ATOM     32  C   UNL     1      26.398   2.355  53.468  0.00  0.00    +0.000 A 
BRANCH  30  33
ATOM     33  O   UNL     1      29.159   2.618  54.280  0.00  0.00    +0.000 OA
ATOM     34  H   UNL     1      28.793   3.421  53.966  0.00  0.00    +0.000 HD
ENDBRANCH  30  33
ENDBRANCH  21  22
ENDBRANCH   1  21
TORSDOF 9
ENDMDL
MODEL 2
REMARK VINA RESULT:    -8.552      4.329      8.907
REMARK INTER + INTRA:         -14.320
REMARK INTER:                 -12.800
REMARK INTRA:                  -1.520
REMARK UNBOUND:                -1.519
REMARK  Name = 
REMARK  10 active torsions:
REMARK  status: ('A' for Active; 'I' for Inactive)
REMARK    1  A    between atoms: C_2  and  C_3
REMARK    2  A    between atoms: C_3  and  N_4
REMARK    3  A    between atoms: N_4  and  C_5
REMARK    4  A    between atoms: N_4  and  C_18
REMARK    5  A    between atoms: C_5  and  C_6
REMARK    6  A    between atoms: C_11  and  C_12
REMARK    7  A    between atoms: C_14  and  O_15
REMARK    8  A    between atoms: C_21  and  C_22
REMARK    9  A    between atoms: N_24  and  C_25
REMARK   10  A    between atoms: C_25  and  C_26
REMARK                            x       y       z     vdW  Elec       q    Type
REMARK                         _______ _______ _______ _____ _____    ______ ____
ROOT
ATOM      1  N   UNL     1      23.504   3.332  51.865  0.00  0.00    +0.000 N 
ENDROOT
BRANCH   1   2
ATOM      2  C   UNL     1      22.276   2.765  51.537  0.00  0.00    +0.000 A 
ATOM      3  C   UNL     1      21.063   3.161  52.125  0.00  0.00    +0.000 A 
ATOM      4  C   UNL     1      19.855   2.476  51.895  0.00  0.00    +0.000 A 
ATOM      5  C   UNL     1      19.802   1.385  51.023  0.00  0.00    +0.000 A 
ATOM      6  C   UNL     1      20.955   1.074  50.310  0.00  0.00    +0.000 A 
ATOM      7  C   UNL     1      22.162   1.742  50.579  0.00  0.00    +0.000 A 
BRANCH   5   8
ATOM      8  C   UNL     1      18.533   0.591  50.932  0.00  0.00    +0.000 C 
ATOM      9  O   UNL     1      18.135   0.197  49.840  0.00  0.00    +0.000 OA
ATOM     10  N   UNL     1      17.840   0.372  52.103  0.00  0.00    +0.000 N 
ATOM     11  H   UNL     1      18.205   0.733  52.943  0.00  0.00    +0.000 HD
BRANCH  10  12
ATOM     12  C   UNL     1      16.596  -0.367  52.149  0.00  0.00    +0.000 C 
BRANCH  12  13
ATOM     13  C   UNL     1      16.852  -1.699  52.760  0.00  0.00    +0.000 A 
ATOM     14  C   UNL     1      16.046  -2.873  52.673  0.00  0.00    +0.000 A 
ATOM     15  C   UNL     1      16.676  -3.841  53.421  0.00  0.00    +0.000 A 
ATOM     16  O   UNL     1      17.818  -3.346  53.962  0.00  0.00    +0.000 OA
ATOM     17  C   UNL     1      17.922  -2.054  53.559  0.00  0.00    +0.000 A 
ENDBRANCH  12  13
ENDBRANCH  10  12
ENDBRANCH   5   8
ENDBRANCH   1   2
BRANCH   1  18
ATOM     18  C   UNL     1      24.178   4.345  51.039  0.00  0.00    +0.000 C 
BRANCH  18  20
ATOM     19  C   UNL     1      26.173   3.255  49.632  0.00  0.00    +0.000 C 
ATOM     20  C   UNL     1      25.273   3.759  50.240  0.00  0.00    +0.000 C 
ENDBRANCH  18  20
ENDBRANCH   1  18
BRANCH   1  21
ATOM     21  C   UNL     1      24.127   3.086  53.177  0.00  0.00    +0.000 C 
BRANCH  21  22
ATOM     22  C   UNL     1      25.133   1.953  53.170  0.00  0.00    +0.000 A 
ATOM     23  C   UNL     1      24.806   0.630  52.860  0.00  0.00    +0.000 A 
ATOM     24  C   UNL     1      25.792  -0.362  52.829  0.00  0.00    +0.000 A 
ATOM     25  C   UNL     1      27.107  -0.090  53.167  0.00  0.00    +0.000 A 
ATOM     26  N   UNL     1      28.003  -1.086  53.198  0.00  0.00    +0.000 NA
ATOM     27  C   UNL     1      29.249  -0.793  53.615  0.00  0.00    +0.000 A 
ATOM     28  C   UNL     1      30.207  -1.937  53.720  0.00  0.00    +0.000 C 
ATOM     29  N   UNL     1      29.676   0.427  53.980  0.00  0.00    +0.000 NA
ATOM     30  C   UNL     1      28.754   1.391  53.901  0.00  0.00    +0.000 A 
ATOM     31  C   UNL     1      27.438   1.220  53.506  0.00  0.00    +0.000 A 
ATOM     32  C   UNL     1      26.469   2.246  53.470  0.00  0.00    +0.000 A 
BRANCH  30  33
ATOM     33  O   UNL     1      29.207   2.606  54.320  0.00  0.00    +0.000 OA
ATOM     34  H   UNL     1      29.376   2.755  55.229  0.00  0.00    +0.000 HD
ENDBRANCH  30  33
ENDBRANCH  21  22
ENDBRANCH   1  21
TORSDOF 9
ENDMDL
MODEL 3
REMARK VINA RESULT:    -8.294      2.264      7.496
REMARK INTER + INTRA:         -13.935
REMARK INTER:                 -12.596
REMARK INTRA:                  -1.339
REMARK UNBOUND:                -1.519
REMARK  Name = 
REMARK  10 active torsions:
REMARK  status: ('A' for Active; 'I' for Inactive)
REMARK    1  A    between atoms: C_2  and  C_3
REMARK    2  A    between atoms: C_3  and  N_4
REMARK    3  A    between atoms: N_4  and  C_5
REMARK    4  A    between atoms: N_4  and  C_18
REMARK    5  A    between atoms: C_5  and  C_6
REMARK    6  A    between atoms: C_11  and  C_12
REMARK    7  A    between atoms: C_14  and  O_15
REMARK    8  A    between atoms: C_21  and  C_22
REMARK    9  A    between atoms: N_24  and  C_25
REMARK   10  A    between atoms: C_25  and  C_26
REMARK                            x       y       z     vdW  Elec       q    Type
REMARK                         _______ _______ _______ _____ _____    ______ ____
ROOT
ATOM      1  N   UNL     1      23.023   5.599  50.733  0.00  0.00    +0.000 N 
ENDROOT
BRANCH   1   2
ATOM      2  C   UNL     1      23.252   4.347  51.297  0.00  0.00    +0.000 A 
ATOM      3  C   UNL     1      23.756   4.168  52.595  0.00  0.00    +0.000 A 
ATOM      4  C   UNL     1      24.125   2.904  53.093  0.00  0.00    +0.000 A 
ATOM      5  C   UNL     1      23.958   1.752  52.320  0.00  0.00    +0.000 A 
ATOM      6  C   UNL     1      23.315   1.885  51.094  0.00  0.00    +0.000 A 
ATOM      7  C   UNL     1      22.989   3.158  50.595  0.00  0.00    +0.000 A 
BRANCH   5   8
ATOM      8  C   UNL     1      24.509   0.452  52.828  0.00  0.00    +0.000 C 
ATOM      9  O   UNL     1      23.801  -0.295  53.494  0.00  0.00    +0.000 OA
ATOM     10  N   UNL     1      25.831   0.174  52.547  0.00  0.00    +0.000 N 
ATOM     11  H   UNL     1      26.350   0.827  52.024  0.00  0.00    +0.000 HD
BRANCH  10  12
ATOM     12  C   UNL     1      26.486  -1.037  52.991  0.00  0.00    +0.000 C 
BRANCH  12  13
ATOM     13  C   UNL     1      27.905  -0.725  53.311  0.00  0.00    +0.000 A 
ATOM     14  C   UNL     1      29.020  -1.615  53.312  0.00  0.00    +0.000 A 
ATOM     15  C   UNL     1      30.115  -0.876  53.699  0.00  0.00    +0.000 A 
ATOM     16  O   UNL     1      29.753   0.410  53.935  0.00  0.00    +0.000 OA
ATOM     17  C   UNL     1      28.419   0.498  53.698  0.00  0.00    +0.000 A 
ENDBRANCH  12  13
ENDBRANCH  10  12
ENDBRANCH   5   8
ENDBRANCH   1   2
BRANCH   1  18
ATOM     18  C   UNL     1      21.817   5.935  49.961  0.00  0.00    +0.000 C 
BRANCH  18  20
ATOM     19  C   UNL     1      22.266   6.003  47.327  0.00  0.00    +0.000 C 
ATOM     20  C   UNL     1      22.085   5.953  48.509  0.00  0.00    +0.000 C 
ENDBRANCH  18  20
ENDBRANCH   1  18
BRANCH   1  21
ATOM     21  C   UNL     1      23.901   6.742  51.039  0.00  0.00    +0.000 C 
BRANCH  21  22
ATOM     22  C   UNL     1      25.190   6.749  50.243  0.00  0.00    +0.000 A 
ATOM     23  C   UNL     1      25.651   5.652  49.507  0.00  0.00    +0.000 A 
ATOM     24  C   UNL     1      26.828   5.739  48.757  0.00  0.00    +0.000 A 
ATOM     25  C   UNL     1      27.614   6.880  48.767  0.00  0.00    +0.000 A 
ATOM     26  N   UNL     1      28.773   6.892  48.095  0.00  0.00    +0.000 NA
ATOM     27  C   UNL     1      29.546   7.989  48.200  0.00  0.00    +0.000 A 
ATOM     28  C   UNL     1      30.871   7.945  47.508  0.00  0.00    +0.000 C 
ATOM     29  N   UNL     1      29.236   9.089  48.907  0.00  0.00    +0.000 NA
ATOM     30  C   UNL     1      28.055   9.039  49.532  0.00  0.00    +0.000 A 
ATOM     31  C   UNL     1      27.177   7.968  49.519  0.00  0.00    +0.000 A 
ATOM     32  C   UNL     1      25.954   7.921  50.222  0.00  0.00    +0.000 A 
BRANCH  30  33
ATOM     33  O   UNL     1      27.792  10.151  50.276  0.00  0.00    +0.000 OA
ATOM     34  H   UNL     1      27.295  10.079  51.066  0.00  0.00    +0.000 HD
ENDBRANCH  30  33
ENDBRANCH  21  22
ENDBRANCH   1  21
TORSDOF 9
ENDMDL
MODEL 4
REMARK VINA RESULT:    -8.259      4.768      9.036
REMARK INTER + INTRA:         -13.883
REMARK INTER:                 -12.515
REMARK INTRA:                  -1.368
REMARK UNBOUND:                -1.519
REMARK  Name = 
REMARK  10 active torsions:
REMARK  status: ('A' for Active; 'I' for Inactive)
REMARK    1  A    between atoms: C_2  and  C_3
REMARK    2  A    between atoms: C_3  and  N_4
REMARK    3  A    between atoms: N_4  and  C_5
REMARK    4  A    between atoms: N_4  and  C_18
REMARK    5  A    between atoms: C_5  and  C_6
REMARK    6  A    between atoms: C_11  and  C_12
REMARK    7  A    between atoms: C_14  and  O_15
REMARK    8  A    between atoms: C_21  and  C_22
REMARK    9  A    between atoms: N_24  and  C_25
REMARK   10  A    between atoms: C_25  and  C_26
REMARK                            x       y       z     vdW  Elec       q    Type
REMARK                         _______ _______ _______ _____ _____    ______ ____
ROOT
ATOM      1  N   UNL     1      23.390   3.093  51.711  0.00  0.00    +0.000 N 
ENDROOT
BRANCH   1   2
ATOM      2  C   UNL     1      22.231   2.327  51.620  0.00  0.00    +0.000 A 
ATOM      3  C   UNL     1      21.958   1.469  50.542  0.00  0.00    +0.000 A 
ATOM      4  C   UNL     1      20.717   0.821  50.390  0.00  0.00    +0.000 A 
ATOM      5  C   UNL     1      19.708   0.970  51.344  0.00  0.00    +0.000 A 
ATOM      6  C   UNL     1      20.011   1.686  52.497  0.00  0.00    +0.000 A 
ATOM      7  C   UNL     1      21.239   2.359  52.616  0.00  0.00    +0.000 A 
BRANCH   5   8
ATOM      8  C   UNL     1      18.353   0.391  51.062  0.00  0.00    +0.000 C 
ATOM      9  O   UNL     1      17.954   0.298  49.906  0.00  0.00    +0.000 OA
ATOM     10  N   UNL     1      17.586   0.020  52.148  0.00  0.00    +0.000 N 
ATOM     11  H   UNL     1      17.958   0.140  53.051  0.00  0.00    +0.000 HD
BRANCH  10  12
ATOM     12  C   UNL     1      16.258  -0.537  52.013  0.00  0.00    +0.000 C 
BRANCH  12  13
ATOM     13  C   UNL     1      15.264   0.487  52.433  0.00  0.00    +0.000 A 
ATOM     14  C   UNL     1      14.141   0.317  53.297  0.00  0.00    +0.000 A 
ATOM     15  C   UNL     1      13.505   1.535  53.363  0.00  0.00    +0.000 A 
ATOM     16  O   UNL     1      14.160   2.448  52.600  0.00  0.00    +0.000 OA
ATOM     17  C   UNL     1      15.221   1.812  52.043  0.00  0.00    +0.000 A 
ENDBRANCH  12  13
ENDBRANCH  10  12
ENDBRANCH   5   8
ENDBRANCH   1   2
BRANCH   1  18
ATOM     18  C   UNL     1      23.789   4.087  50.704  0.00  0.00    +0.000 C 
BRANCH  18  20
ATOM     19  C   UNL     1      26.114   3.411  49.572  0.00  0.00    +0.000 C 
ATOM     20  C   UNL     1      25.065   3.725  50.055  0.00  0.00    +0.000 C 
ENDBRANCH  18  20
ENDBRANCH   1  18
BRANCH   1  21
ATOM     21  C   UNL     1      24.206   3.091  52.938  0.00  0.00    +0.000 C 
BRANCH  21  22
ATOM     22  C   UNL     1      25.213   1.961  52.996  0.00  0.00    +0.000 A 
ATOM     23  C   UNL     1      24.900   0.629  52.708  0.00  0.00    +0.000 A 
ATOM     24  C   UNL     1      25.888  -0.360  52.738  0.00  0.00    +0.000 A 
ATOM     25  C   UNL     1      27.190  -0.076  53.117  0.00  0.00    +0.000 A 
ATOM     26  N   UNL     1      28.085  -1.068  53.205  0.00  0.00    +0.000 NA
ATOM     27  C   UNL     1      29.316  -0.762  53.659  0.00  0.00    +0.000 A 
ATOM     28  C   UNL     1      30.271  -1.900  53.827  0.00  0.00    +0.000 C 
ATOM     29  N   UNL     1      29.727   0.468  54.007  0.00  0.00    +0.000 NA
ATOM     30  C   UNL     1      28.807   1.428  53.870  0.00  0.00    +0.000 A 
ATOM     31  C   UNL     1      27.506   1.244  53.433  0.00  0.00    +0.000 A 
ATOM     32  C   UNL     1      26.537   2.265  53.336  0.00  0.00    +0.000 A 
BRANCH  30  33
ATOM     33  O   UNL     1      29.242   2.655  54.274  0.00  0.00    +0.000 OA
ATOM     34  H   UNL     1      29.880   3.115  53.766  0.00  0.00    +0.000 HD
ENDBRANCH  30  33
ENDBRANCH  21  22
ENDBRANCH   1  21
TORSDOF 9
ENDMDL
MODEL 5
REMARK VINA RESULT:    -8.239      3.263      6.002
REMARK INTER + INTRA:         -13.852
REMARK INTER:                 -12.842
REMARK INTRA:                  -1.010
REMARK UNBOUND:                -1.519
REMARK  Name = 
REMARK  10 active torsions:
REMARK  status: ('A' for Active; 'I' for Inactive)
REMARK    1  A    between atoms: C_2  and  C_3
REMARK    2  A    between atoms: C_3  and  N_4
REMARK    3  A    between atoms: N_4  and  C_5
REMARK    4  A    between atoms: N_4  and  C_18
REMARK    5  A    between atoms: C_5  and  C_6
REMARK    6  A    between atoms: C_11  and  C_12
REMARK    7  A    between atoms: C_14  and  O_15
REMARK    8  A    between atoms: C_21  and  C_22
REMARK    9  A    between atoms: N_24  and  C_25
REMARK   10  A    between atoms: C_25  and  C_26
REMARK                            x       y       z     vdW  Elec       q    Type
REMARK                         _______ _______ _______ _____ _____    ______ ____
ROOT
ATOM      1  N   UNL     1      25.757   0.640  53.626  0.00  0.00    +0.000 N 
ENDROOT
BRANCH   1   2
ATOM      2  C   UNL     1      25.399   1.685  52.777  0.00  0.00    +0.000 A 
ATOM      3  C   UNL     1      25.889   1.815  51.468  0.00  0.00    +0.000 A 
ATOM      4  C   UNL     1      25.639   2.955  50.679  0.00  0.00    +0.000 A 
ATOM      5  C   UNL     1      24.843   3.998  51.158  0.00  0.00    +0.000 A 
ATOM      6  C   UNL     1      24.219   3.821  52.389  0.00  0.00    +0.000 A 
ATOM      7  C   UNL     1      24.509   2.696  53.179  0.00  0.00    +0.000 A 
BRANCH   5   8
ATOM      8  C   UNL     1      24.734   5.257  50.350  0.00  0.00    +0.000 C 
ATOM      9  O   UNL     1      24.346   5.207  49.187  0.00  0.00    +0.000 OA
ATOM     10  N   UNL     1      25.125   6.433  50.956  0.00  0.00    +0.000 N 
ATOM     11  H   UNL     1      25.447   6.400  51.886  0.00  0.00    +0.000 HD
BRANCH  10  12
ATOM     12  C   UNL     1      25.082   7.712  50.282  0.00  0.00    +0.000 C 
BRANCH  12  13
ATOM     13  C   UNL     1      26.454   8.053  49.814  0.00  0.00    +0.000 A 
ATOM     14  C   UNL     1      27.235   7.383  48.826  0.00  0.00    +0.000 A 
ATOM     15  C   UNL     1      28.439   8.045  48.759  0.00  0.00    +0.000 A 
ATOM     16  O   UNL     1      28.454   9.080  49.637  0.00  0.00    +0.000 OA
ATOM     17  C   UNL     1      27.254   9.082  50.270  0.00  0.00    +0.000 A 
ENDBRANCH  12  13
ENDBRANCH  10  12
ENDBRANCH   5   8
ENDBRANCH   1   2
BRANCH   1  18
ATOM     18  C   UNL     1      26.601   0.814  54.817  0.00  0.00    +0.000 C 
BRANCH  18  20
ATOM     19  C   UNL     1      29.058  -0.156  54.405  0.00  0.00    +0.000 C 
ATOM     20  C   UNL     1      27.956   0.262  54.612  0.00  0.00    +0.000 C 
ENDBRANCH  18  20
ENDBRANCH   1  18
BRANCH   1  21
ATOM     21  C   UNL     1      25.145  -0.693  53.487  0.00  0.00    +0.000 C 
BRANCH  21  22
ATOM     22  C   UNL     1      23.632  -0.677  53.552  0.00  0.00    +0.000 A 
ATOM     23  C   UNL     1      22.900  -1.097  54.667  0.00  0.00    +0.000 A 
ATOM     24  C   UNL     1      21.504  -1.016  54.677  0.00  0.00    +0.000 A 
ATOM     25  C   UNL     1      20.792  -0.584  53.569  0.00  0.00    +0.000 A 
ATOM     26  N   UNL     1      19.453  -0.595  53.597  0.00  0.00    +0.000 NA
ATOM     27  C   UNL     1      18.802  -0.248  52.470  0.00  0.00    +0.000 A 
ATOM     28  C   UNL     1      17.310  -0.348  52.501  0.00  0.00    +0.000 C 
ATOM     29  N   UNL     1      19.388   0.133  51.324  0.00  0.00    +0.000 NA
ATOM     30  C   UNL     1      20.724   0.157  51.358  0.00  0.00    +0.000 A 
ATOM     31  C   UNL     1      21.512  -0.190  52.443  0.00  0.00    +0.000 A 
ATOM     32  C   UNL     1      22.923  -0.197  52.444  0.00  0.00    +0.000 A 
BRANCH  30  33
ATOM     33  O   UNL     1      21.288   0.505  50.167  0.00  0.00    +0.000 OA
ATOM     34  H   UNL     1      20.807   0.394  49.372  0.00  0.00    +0.000 HD
ENDBRANCH  30  33
ENDBRANCH  21  22
ENDBRANCH   1  21
TORSDOF 9
ENDMDL
MODEL 6
REMARK VINA RESULT:    -8.235      3.065      5.180
REMARK INTER + INTRA:         -13.846
REMARK INTER:                 -12.674
REMARK INTRA:                  -1.172
REMARK UNBOUND:                -1.519
REMARK  Name = 
REMARK  10 active torsions:
REMARK  status: ('A' for Active; 'I' for Inactive)
REMARK    1  A    between atoms: C_2  and  C_3
REMARK    2  A    between atoms: C_3  and  N_4
REMARK    3  A    between atoms: N_4  and  C_5
REMARK    4  A    between atoms: N_4  and  C_18
REMARK    5  A    between atoms: C_5  and  C_6
REMARK    6  A    between atoms: C_11  and  C_12
REMARK    7  A    between atoms: C_14  and  O_15
REMARK    8  A    between atoms: C_21  and  C_22
REMARK    9  A    between atoms: N_24  and  C_25
REMARK   10  A    between atoms: C_25  and  C_26
REMARK                            x       y       z     vdW  Elec       q    Type
REMARK                         _______ _______ _______ _____ _____    ______ ____
ROOT
ATOM      1  N   UNL     1      25.355   1.950  51.869  0.00  0.00    +0.000 N 
ENDROOT
BRANCH   1   2
ATOM      2  C   UNL     1      25.555   3.023  51.004  0.00  0.00    +0.000 A 
ATOM      3  C   UNL     1      26.556   3.043  50.020  0.00  0.00    +0.000 A 
ATOM      4  C   UNL     1      26.844   4.192  49.259  0.00  0.00    +0.000 A 
ATOM      5  C   UNL     1      26.103   5.365  49.423  0.00  0.00    +0.000 A 
ATOM      6  C   UNL     1      25.006   5.321  50.278  0.00  0.00    +0.000 A 
ATOM      7  C   UNL     1      24.756   4.179  51.059  0.00  0.00    +0.000 A 
BRANCH   5   8
ATOM      8  C   UNL     1      26.544   6.608  48.709  0.00  0.00    +0.000 C 
ATOM      9  O   UNL     1      25.921   7.006  47.730  0.00  0.00    +0.000 OA
ATOM     10  N   UNL     1      27.681   7.234  49.176  0.00  0.00    +0.000 N 
ATOM     11  H   UNL     1      28.145   6.851  49.954  0.00  0.00    +0.000 HD
BRANCH  10  12
ATOM     12  C   UNL     1      28.219   8.431  48.567  0.00  0.00    +0.000 C 
BRANCH  12  13
ATOM     13  C   UNL     1      29.687   8.474  48.810  0.00  0.00    +0.000 A 
ATOM     14  C   UNL     1      30.622   7.401  48.721  0.00  0.00    +0.000 A 
ATOM     15  C   UNL     1      31.851   7.918  49.062  0.00  0.00    +0.000 A 
ATOM     16  O   UNL     1      31.738   9.239  49.354  0.00  0.00    +0.000 OA
ATOM     17  C   UNL     1      30.432   9.571  49.199  0.00  0.00    +0.000 A 
ENDBRANCH  12  13
ENDBRANCH  10  12
ENDBRANCH   5   8
ENDBRANCH   1   2
BRANCH   1  18
ATOM     18  C   UNL     1      26.098   0.684  51.778  0.00  0.00    +0.000 C 
BRANCH  18  20
ATOM     19  C   UNL     1      27.348   0.084  54.064  0.00  0.00    +0.000 C 
ATOM     20  C   UNL     1      26.805   0.375  53.037  0.00  0.00    +0.000 C 
ENDBRANCH  18  20
ENDBRANCH   1  18
BRANCH   1  21
ATOM     21  C   UNL     1      24.506   2.087  53.065  0.00  0.00    +0.000 C 
BRANCH  21  22
ATOM     22  C   UNL     1      23.115   1.514  52.892  0.00  0.00    +0.000 A 
ATOM     23  C   UNL     1      22.139   2.085  52.069  0.00  0.00    +0.000 A 
ATOM     24  C   UNL     1      20.887   1.480  51.920  0.00  0.00    +0.000 A 
ATOM     25  C   UNL     1      20.542   0.339  52.626  0.00  0.00    +0.000 A 
ATOM     26  N   UNL     1      19.305  -0.163  52.510  0.00  0.00    +0.000 NA
ATOM     27  C   UNL     1      18.985  -1.222  53.278  0.00  0.00    +0.000 A 
ATOM     28  C   UNL     1      17.575  -1.712  53.191  0.00  0.00    +0.000 C 
ATOM     29  N   UNL     1      19.817  -1.834  54.137  0.00  0.00    +0.000 NA
ATOM     30  C   UNL     1      21.048  -1.315  54.191  0.00  0.00    +0.000 A 
ATOM     31  C   UNL     1      21.498  -0.222  53.470  0.00  0.00    +0.000 A 
ATOM     32  C   UNL     1      22.790   0.336  53.574  0.00  0.00    +0.000 A 
BRANCH  30  33
ATOM     33  O   UNL     1      21.852  -1.931  55.103  0.00  0.00    +0.000 OA
ATOM     34  H   UNL     1      22.276  -2.737  54.885  0.00  0.00    +0.000 HD
ENDBRANCH  30  33
ENDBRANCH  21  22
ENDBRANCH   1  21
TORSDOF 9
ENDMDL
MODEL 7
REMARK VINA RESULT:    -8.180      2.312      7.599
REMARK INTER + INTRA:         -13.764
REMARK INTER:                 -12.383
REMARK INTRA:                  -1.381
REMARK UNBOUND:                -1.519
REMARK  Name = 
REMARK  10 active torsions:
REMARK  status: ('A' for Active; 'I' for Inactive)
REMARK    1  A    between atoms: C_2  and  C_3
REMARK    2  A    between atoms: C_3  and  N_4
REMARK    3  A    between atoms: N_4  and  C_5
REMARK    4  A    between atoms: N_4  and  C_18
REMARK    5  A    between atoms: C_5  and  C_6
REMARK    6  A    between atoms: C_11  and  C_12
REMARK    7  A    between atoms: C_14  and  O_15
REMARK    8  A    between atoms: C_21  and  C_22
REMARK    9  A    between atoms: N_24  and  C_25
REMARK   10  A    between atoms: C_25  and  C_26
REMARK                            x       y       z     vdW  Elec       q    Type
REMARK                         _______ _______ _______ _____ _____    ______ ____
ROOT
ATOM      1  N   UNL     1      22.702   5.345  50.374  0.00  0.00    +0.000 N 
ENDROOT
BRANCH   1   2
ATOM      2  C   UNL     1      22.992   4.176  51.072  0.00  0.00    +0.000 A 
ATOM      3  C   UNL     1      23.759   4.151  52.248  0.00  0.00    +0.000 A 
ATOM      4  C   UNL     1      24.170   2.948  52.854  0.00  0.00    +0.000 A 
ATOM      5  C   UNL     1      23.788   1.712  52.328  0.00  0.00    +0.000 A 
ATOM      6  C   UNL     1      22.900   1.713  51.257  0.00  0.00    +0.000 A 
ATOM      7  C   UNL     1      22.530   2.920  50.640  0.00  0.00    +0.000 A 
BRANCH   5   8
ATOM      8  C   UNL     1      24.378   0.462  52.911  0.00  0.00    +0.000 C 
ATOM      9  O   UNL     1      23.718  -0.224  53.685  0.00  0.00    +0.000 OA
ATOM     10  N   UNL     1      25.680   0.160  52.571  0.00  0.00    +0.000 N 
ATOM     11  H   UNL     1      26.161   0.764  51.960  0.00  0.00    +0.000 HD
BRANCH  10  12
ATOM     12  C   UNL     1      26.369  -1.007  53.076  0.00  0.00    +0.000 C 
BRANCH  12  13
ATOM     13  C   UNL     1      27.773  -0.633  53.402  0.00  0.00    +0.000 A 
ATOM     14  C   UNL     1      28.934  -1.460  53.357  0.00  0.00    +0.000 A 
ATOM     15  C   UNL     1      29.990  -0.681  53.770  0.00  0.00    +0.000 A 
ATOM     16  O   UNL     1      29.561   0.573  54.065  0.00  0.00    +0.000 OA
ATOM     17  C   UNL     1      28.222   0.598  53.839  0.00  0.00    +0.000 A 
ENDBRANCH  12  13
ENDBRANCH  10  12
ENDBRANCH   5   8
ENDBRANCH   1   2
BRANCH   1  18
ATOM     18  C   UNL     1      22.423   6.633  51.027  0.00  0.00    +0.000 C 
BRANCH  18  20
ATOM     19  C   UNL     1      20.378   7.872  49.833  0.00  0.00    +0.000 C 
ATOM     20  C   UNL     1      21.295   7.338  50.386  0.00  0.00    +0.000 C 
ENDBRANCH  18  20
ENDBRANCH   1  18
BRANCH   1  21
ATOM     21  C   UNL     1      22.845   5.411  48.909  0.00  0.00    +0.000 C 
BRANCH  21  22
ATOM     22  C   UNL     1      24.099   6.128  48.453  0.00  0.00    +0.000 A 
ATOM     23  C   UNL     1      24.086   7.286  47.669  0.00  0.00    +0.000 A 
ATOM     24  C   UNL     1      25.280   7.925  47.318  0.00  0.00    +0.000 A 
ATOM     25  C   UNL     1      26.514   7.404  47.672  0.00  0.00    +0.000 A 
ATOM     26  N   UNL     1      27.633   8.008  47.249  0.00  0.00    +0.000 NA
ATOM     27  C   UNL     1      28.809   7.421  47.543  0.00  0.00    +0.000 A 
ATOM     28  C   UNL     1      30.038   8.069  46.990  0.00  0.00    +0.000 C 
ATOM     29  N   UNL     1      28.953   6.288  48.250  0.00  0.00    +0.000 NA
ATOM     30  C   UNL     1      27.809   5.744  48.676  0.00  0.00    +0.000 A 
ATOM     31  C   UNL     1      26.538   6.235  48.429  0.00  0.00    +0.000 A 
ATOM     32  C   UNL     1      25.340   5.620  48.852  0.00  0.00    +0.000 A 
BRANCH  30  33
ATOM     33  O   UNL     1      27.987   4.573  49.351  0.00  0.00    +0.000 OA
ATOM     34  H   UNL     1      27.342   4.284  49.966  0.00  0.00    +0.000 HD
ENDBRANCH  30  33
ENDBRANCH  21  22
ENDBRANCH   1  21
TORSDOF 9
ENDMDL
MODEL 8
REMARK VINA RESULT:    -8.155      2.521      3.775
REMARK INTER + INTRA:         -13.727
REMARK INTER:                 -12.323
REMARK INTRA:                  -1.403
REMARK UNBOUND:                -1.519
REMARK  Name = 
REMARK  10 active torsions:
REMARK  status: ('A' for Active; 'I' for Inactive)
REMARK    1  A    between atoms: C_2  and  C_3
REMARK    2  A    between atoms: C_3  and  N_4
REMARK    3  A    between atoms: N_4  and  C_5
REMARK    4  A    between atoms: N_4  and  C_18
REMARK    5  A    between atoms: C_5  and  C_6
REMARK    6  A    between atoms: C_11  and  C_12
REMARK    7  A    between atoms: C_14  and  O_15
REMARK    8  A    between atoms: C_21  and  C_22
REMARK    9  A    between atoms: N_24  and  C_25
REMARK   10  A    between atoms: C_25  and  C_26
REMARK                            x       y       z     vdW  Elec       q    Type
REMARK                         _______ _______ _______ _____ _____    ______ ____
ROOT
ATOM      1  N   UNL     1      23.911   4.430  49.601  0.00  0.00    +0.000 N 
ENDROOT
BRANCH   1   2
ATOM      2  C   UNL     1      25.075   5.034  49.134  0.00  0.00    +0.000 A 
ATOM      3  C   UNL     1      26.328   4.400  49.143  0.00  0.00    +0.000 A 
ATOM      4  C   UNL     1      27.517   5.077  48.811  0.00  0.00    +0.000 A 
ATOM      5  C   UNL     1      27.494   6.414  48.409  0.00  0.00    +0.000 A 
ATOM      6  C   UNL     1      26.251   7.015  48.241  0.00  0.00    +0.000 A 
ATOM      7  C   UNL     1      25.076   6.340  48.613  0.00  0.00    +0.000 A 
BRANCH   5   8
ATOM      8  C   UNL     1      28.795   7.137  48.219  0.00  0.00    +0.000 C 
ATOM      9  O   UNL     1      29.531   6.839  47.284  0.00  0.00    +0.000 OA
ATOM     10  N   UNL     1      29.126   8.097  49.152  0.00  0.00    +0.000 N 
ATOM     11  H   UNL     1      28.499   8.274  49.890  0.00  0.00    +0.000 HD
BRANCH  10  12
ATOM     12  C   UNL     1      30.356   8.855  49.091  0.00  0.00    +0.000 C 
BRANCH  12  13
ATOM     13  C   UNL     1      30.023  10.304  49.017  0.00  0.00    +0.000 A 
ATOM     14  C   UNL     1      30.910  11.415  49.144  0.00  0.00    +0.000 A 
ATOM     15  C   UNL     1      30.140  12.550  49.034  0.00  0.00    +0.000 A 
ATOM     16  O   UNL     1      28.838  12.216  48.846  0.00  0.00    +0.000 OA
ATOM     17  C   UNL     1      28.772  10.860  48.834  0.00  0.00    +0.000 A 
ENDBRANCH  12  13
ENDBRANCH  10  12
ENDBRANCH   5   8
ENDBRANCH   1   2
BRANCH   1  18
ATOM     18  C   UNL     1      22.898   5.131  50.406  0.00  0.00    +0.000 C 
BRANCH  18  20
ATOM     19  C   UNL     1      23.442   4.942  53.016  0.00  0.00    +0.000 C 
ATOM     20  C   UNL     1      23.199   5.054  51.850  0.00  0.00    +0.000 C 
ENDBRANCH  18  20
ENDBRANCH   1  18
BRANCH   1  21
ATOM     21  C   UNL     1      23.521   3.082  49.152  0.00  0.00    +0.000 C 
BRANCH  21  22
ATOM     22  C   UNL     1      23.211   2.129  50.288  0.00  0.00    +0.000 A 
ATOM     23  C   UNL     1      21.937   1.610  50.537  0.00  0.00    +0.000 A 
ATOM     24  C   UNL     1      21.728   0.699  51.578  0.00  0.00    +0.000 A 
ATOM     25  C   UNL     1      22.749   0.330  52.438  0.00  0.00    +0.000 A 
ATOM     26  N   UNL     1      22.486  -0.485  53.468  0.00  0.00    +0.000 NA
ATOM     27  C   UNL     1      23.488  -0.749  54.328  0.00  0.00    +0.000 A 
ATOM     28  C   UNL     1      23.147  -1.595  55.514  0.00  0.00    +0.000 C 
ATOM     29  N   UNL     1      24.742  -0.280  54.223  0.00  0.00    +0.000 NA
ATOM     30  C   UNL     1      24.960   0.503  53.162  0.00  0.00    +0.000 A 
ATOM     31  C   UNL     1      24.016   0.865  52.215  0.00  0.00    +0.000 A 
ATOM     32  C   UNL     1      24.259   1.727  51.125  0.00  0.00    +0.000 A 
BRANCH  30  33
ATOM     33  O   UNL     1      26.229   0.998  53.109  0.00  0.00    +0.000 OA
ATOM     34  H   UNL     1      26.872   0.703  53.722  0.00  0.00    +0.000 HD
ENDBRANCH  30  33
ENDBRANCH  21  22
ENDBRANCH   1  21
TORSDOF 9
ENDMDL
MODEL 9
REMARK VINA RESULT:    -8.154      6.129     10.440
REMARK INTER + INTRA:         -13.724
REMARK INTER:                 -12.490
REMARK INTRA:                  -1.234
REMARK UNBOUND:                -1.519
REMARK  Name = 
REMARK  10 active torsions:
REMARK  status: ('A' for Active; 'I' for Inactive)
REMARK    1  A    between atoms: C_2  and  C_3
REMARK    2  A    between atoms: C_3  and  N_4
REMARK    3  A    between atoms: N_4  and  C_5
REMARK    4  A    between atoms: N_4  and  C_18
REMARK    5  A    between atoms: C_5  and  C_6
REMARK    6  A    between atoms: C_11  and  C_12
REMARK    7  A    between atoms: C_14  and  O_15
REMARK    8  A    between atoms: C_21  and  C_22
REMARK    9  A    between atoms: N_24  and  C_25
REMARK   10  A    between atoms: C_25  and  C_26
REMARK                            x       y       z     vdW  Elec       q    Type
REMARK                         _______ _______ _______ _____ _____    ______ ____
ROOT
ATOM      1  N   UNL     1      21.348   1.033  51.357  0.00  0.00    +0.000 N 
ENDROOT
BRANCH   1   2
ATOM      2  C   UNL     1      20.096   0.461  51.558  0.00  0.00    +0.000 A 
ATOM      3  C   UNL     1      19.066   0.505  50.604  0.00  0.00    +0.000 A 
ATOM      4  C   UNL     1      17.761   0.057  50.883  0.00  0.00    +0.000 A 
ATOM      5  C   UNL     1      17.443  -0.502  52.123  0.00  0.00    +0.000 A 
ATOM      6  C   UNL     1      18.482  -0.701  53.026  0.00  0.00    +0.000 A 
ATOM      7  C   UNL     1      19.770  -0.213  52.749  0.00  0.00    +0.000 A 
BRANCH   5   8
ATOM      8  C   UNL     1      16.009  -0.818  52.430  0.00  0.00    +0.000 C 
ATOM      9  O   UNL     1      15.494  -1.834  51.972  0.00  0.00    +0.000 OA
ATOM     10  N   UNL     1      15.311   0.091  53.197  0.00  0.00    +0.000 N 
ATOM     11  H   UNL     1      15.779   0.897  53.516  0.00  0.00    +0.000 HD
BRANCH  10  12
ATOM     12  C   UNL     1      13.921  -0.089  53.551  0.00  0.00    +0.000 C 
BRANCH  12  13
ATOM     13  C   UNL     1      13.261   1.244  53.600  0.00  0.00    +0.000 A 
ATOM     14  C   UNL     1      12.187   1.661  54.441  0.00  0.00    +0.000 A 
ATOM     15  C   UNL     1      11.904   2.965  54.104  0.00  0.00    +0.000 A 
ATOM     16  O   UNL     1      12.732   3.382  53.112  0.00  0.00    +0.000 OA
ATOM     17  C   UNL     1      13.550   2.342  52.812  0.00  0.00    +0.000 A 
ENDBRANCH  12  13
ENDBRANCH  10  12
ENDBRANCH   5   8
ENDBRANCH   1   2
BRANCH   1  18
ATOM     18  C   UNL     1      21.974   1.176  50.034  0.00  0.00    +0.000 C 
BRANCH  18  20
ATOM     19  C   UNL     1      22.314   3.739  49.353  0.00  0.00    +0.000 C 
ATOM     20  C   UNL     1      22.134   2.595  49.655  0.00  0.00    +0.000 C 
ENDBRANCH  18  20
ENDBRANCH   1  18
BRANCH   1  21
ATOM     21  C   UNL     1      22.057   1.716  52.454  0.00  0.00    +0.000 C 
BRANCH  21  22
ATOM     22  C   UNL     1      23.376   1.068  52.820  0.00  0.00    +0.000 A 
ATOM     23  C   UNL     1      23.480  -0.115  53.557  0.00  0.00    +0.000 A 
ATOM     24  C   UNL     1      24.730  -0.684  53.824  0.00  0.00    +0.000 A 
ATOM     25  C   UNL     1      25.908  -0.069  53.431  0.00  0.00    +0.000 A 
ATOM     26  N   UNL     1      27.084  -0.610  53.775  0.00  0.00    +0.000 NA
ATOM     27  C   UNL     1      28.202   0.065  53.447  0.00  0.00    +0.000 A 
ATOM     28  C   UNL     1      29.498  -0.518  53.913  0.00  0.00    +0.000 C 
ATOM     29  N   UNL     1      28.235   1.229  52.778  0.00  0.00    +0.000 NA
ATOM     30  C   UNL     1      27.037   1.710  52.431  0.00  0.00    +0.000 A 
ATOM     31  C   UNL     1      25.816   1.126  52.720  0.00  0.00    +0.000 A 
ATOM     32  C   UNL     1      24.560   1.673  52.380  0.00  0.00    +0.000 A 
BRANCH  30  33
ATOM     33  O   UNL     1      27.103   2.913  51.793  0.00  0.00    +0.000 OA
ATOM     34  H   UNL     1      26.376   3.215  51.286  0.00  0.00    +0.000 HD
ENDBRANCH  30  33
ENDBRANCH  21  22
ENDBRANCH   1  21
TORSDOF 9
ENDMDL
