MODEL 1
REMARK VINA RESULT:    -8.521      0.000      0.000
REMARK INTER + INTRA:         -10.159
REMARK INTER:                  -9.766
REMARK INTRA:                  -0.393
REMARK UNBOUND:                -0.393
REMARK  Name = 
REMARK  9 active torsions:
REMARK  status: ('A' for Active; 'I' for Inactive)
REMARK    1  A    between atoms: C_1  and  C_2
REMARK    2  A    between atoms: C_2  and  C_3
REMARK    3  A    between atoms: C_3  and  C_4
REMARK    4  A    between atoms: C_16  and  C_17
REMARK    5  A    between atoms: C_16  and  C_18
REMARK    6  A    between atoms: C_22  and  C_23
REMARK    7  A    between atoms: C_22  and  C_24
REMARK    8  A    between atoms: C_25  and  C_26
REMARK    9  A    between atoms: C_27  and  O_28
REMARK                            x       y       z     vdW  Elec       q    Type
REMARK                         _______ _______ _______ _____ _____    ______ ____
ROOT
ATOM      1  C   UNL     1      21.811   1.352  52.860  0.00  0.00    +0.000 A 
ATOM      2  C   UNL     1      21.580   0.419  53.800  0.00  0.00    +0.000 A 
ATOM      3  C   UNL     1      22.244  -0.876  53.786  0.00  0.00    +0.000 A 
ATOM      4  O   UNL     1      21.831  -1.826  54.437  0.00  0.00    +0.000 OA
ATOM      5  O   UNL     1      23.337  -0.982  52.969  0.00  0.00    +0.000 OA
ATOM      6  C   UNL     1      23.858   0.239  52.553  0.00  0.00    +0.000 A 
ATOM      7  C   UNL     1      25.186   0.476  52.846  0.00  0.00    +0.000 A 
ATOM      8  C   UNL     1      25.855   1.398  52.077  0.00  0.00    +0.000 A 
ATOM      9  C   UNL     1      25.128   2.193  51.169  0.00  0.00    +0.000 A 
ATOM     10  C   UNL     1      23.714   2.220  51.249  0.00  0.00    +0.000 A 
ATOM     11  C   UNL     1      23.059   1.265  52.060  0.00  0.00    +0.000 A 
ATOM     12  O   UNL     1      22.968   3.143  50.544  0.00  0.00    +0.000 OA
ATOM     13  C   UNL     1      23.650   4.169  49.770  0.00  0.00    +0.000 C 
ATOM     14  C   UNL     1      22.955   4.271  48.401  0.00  0.00    +0.000 C 
ATOM     15  C   UNL     1      23.491   5.508  50.505  0.00  0.00    +0.000 C 
ATOM     16  C   UNL     1      25.121   3.941  49.535  0.00  0.00    +0.000 C 
ATOM     17  C   UNL     1      25.829   3.036  50.208  0.00  0.00    +0.000 C 
ATOM     18  O   UNL     1      27.214   1.556  52.184  0.00  0.00    +0.000 OA
ATOM     19  C   UNL     1      27.851   1.095  53.403  0.00  0.00    +0.000 C 
ATOM     20  C   UNL     1      27.791   2.253  54.423  0.00  0.00    +0.000 C 
ATOM     21  C   UNL     1      29.324   0.852  53.056  0.00  0.00    +0.000 C 
ATOM     22  C   UNL     1      27.238  -0.210  53.983  0.00  0.00    +0.000 C 
ATOM     23  C   UNL     1      27.476  -1.479  53.140  0.00  0.00    +0.000 C 
ATOM     24  C   UNL     1      25.755   0.010  54.158  0.00  0.00    +0.000 C 
ENDROOT
BRANCH  24  25
ATOM     25  O   UNL     1      25.168  -1.129  54.774  0.00  0.00    +0.000 OA
ATOM     26  H   UNL     1      24.201  -1.058  54.728  0.00  0.00    +0.000 HD
ENDBRANCH  24  25
BRANCH   1  27
ATOM     27  C   UNL     1      20.928   2.581  52.918  0.00  0.00    +0.000 C 
BRANCH  27  29
ATOM     28  C   UNL     1      19.605   3.790  51.149  0.00  0.00    +0.000 C 
ATOM     29  C   UNL     1      19.779   2.487  51.912  0.00  0.00    +0.000 C 
ENDBRANCH  27  29
ENDBRANCH   1  27
TORSDOF 3
ENDMDL
MODEL 2
REMARK VINA RESULT:    -8.134      1.547      4.709
REMARK INTER + INTRA:          -9.716
REMARK INTER:                  -9.334
REMARK INTRA:                  -0.382
REMARK UNBOUND:                -0.393
REMARK  Name = 
REMARK  9 active torsions:
REMARK  status: ('A' for Active; 'I' for Inactive)
REMARK    1  A    between atoms: C_1  and  C_2
REMARK    2  A    between atoms: C_2  and  C_3
REMARK    3  A    between atoms: C_3  and  C_4
REMARK    4  A    between atoms: C_16  and  C_17
REMARK    5  A    between atoms: C_16  and  C_18
REMARK    6  A    between atoms: C_22  and  C_23
REMARK    7  A    between atoms: C_22  and  C_24
REMARK    8  A    between atoms: C_25  and  C_26
REMARK    9  A    between atoms: C_27  and  O_28
REMARK                            x       y       z     vdW  Elec       q    Type
REMARK                         _______ _______ _______ _____ _____    ______ ____
ROOT
ATOM      1  C   UNL     1      22.804   1.907  50.385  0.00  0.00    +0.000 A 
ATOM      2  C   UNL     1      23.520   2.711  49.580  0.00  0.00    +0.000 A 
ATOM      3  C   UNL     1      24.452   3.700  50.101  0.00  0.00    +0.000 A 
ATOM      4  O   UNL     1      24.872   4.623  49.418  0.00  0.00    +0.000 OA
ATOM      5  O   UNL     1      24.802   3.559  51.418  0.00  0.00    +0.000 OA
ATOM      6  C   UNL     1      24.503   2.312  51.956  0.00  0.00    +0.000 A 
ATOM      7  C   UNL     1      25.557   1.607  52.504  0.00  0.00    +0.000 A 
ATOM      8  C   UNL     1      25.263   0.643  53.438  0.00  0.00    +0.000 A 
ATOM      9  C   UNL     1      23.918   0.280  53.653  0.00  0.00    +0.000 A 
ATOM     10  C   UNL     1      22.930   0.711  52.735  0.00  0.00    +0.000 A 
ATOM     11  C   UNL     1      23.269   1.696  51.779  0.00  0.00    +0.000 A 
ATOM     12  O   UNL     1      21.646   0.205  52.765  0.00  0.00    +0.000 OA
ATOM     13  C   UNL     1      21.322  -0.860  53.703  0.00  0.00    +0.000 C 
ATOM     14  C   UNL     1      19.974  -0.519  54.363  0.00  0.00    +0.000 C 
ATOM     15  C   UNL     1      21.166  -2.166  52.909  0.00  0.00    +0.000 C 
ATOM     16  C   UNL     1      22.332  -1.100  54.795  0.00  0.00    +0.000 C 
ATOM     17  C   UNL     1      23.563  -0.592  54.765  0.00  0.00    +0.000 C 
ATOM     18  O   UNL     1      26.257   0.029  54.157  0.00  0.00    +0.000 OA
ATOM     19  C   UNL     1      27.602   0.064  53.614  0.00  0.00    +0.000 C 
ATOM     20  C   UNL     1      27.749  -1.149  52.669  0.00  0.00    +0.000 C 
ATOM     21  C   UNL     1      28.552  -0.145  54.797  0.00  0.00    +0.000 C 
ATOM     22  C   UNL     1      27.960   1.395  52.896  0.00  0.00    +0.000 C 
ATOM     23  C   UNL     1      28.085   2.625  53.817  0.00  0.00    +0.000 C 
ATOM     24  C   UNL     1      26.908   1.655  51.846  0.00  0.00    +0.000 C 
ENDROOT
BRANCH  24  25
ATOM     25  O   UNL     1      27.247   2.817  51.101  0.00  0.00    +0.000 OA
ATOM     26  H   UNL     1      27.034   2.675  50.165  0.00  0.00    +0.000 HD
ENDBRANCH  24  25
BRANCH   1  27
ATOM     27  C   UNL     1      21.762   1.046  49.702  0.00  0.00    +0.000 C 
BRANCH  27  29
ATOM     28  C   UNL     1      19.333   0.837  50.333  0.00  0.00    +0.000 C 
ATOM     29  C   UNL     1      20.392   1.727  49.702  0.00  0.00    +0.000 C 
ENDBRANCH  27  29
ENDBRANCH   1  27
TORSDOF 3
ENDMDL
MODEL 3
REMARK VINA RESULT:    -8.103      2.056      4.690
REMARK INTER + INTRA:          -9.681
REMARK INTER:                  -9.344
REMARK INTRA:                  -0.336
REMARK UNBOUND:                -0.393
REMARK  Name = 
REMARK  9 active torsions:
REMARK  status: ('A' for Active; 'I' for Inactive)
REMARK    1  A    between atoms: C_1  and  C_2
REMARK    2  A    between atoms: C_2  and  C_3
REMARK    3  A    between atoms: C_3  and  C_4
REMARK    4  A    between atoms: C_16  and  C_17
REMARK    5  A    between atoms: C_16  and  C_18
REMARK    6  A    between atoms: C_22  and  C_23
REMARK    7  A    between atoms: C_22  and  C_24
REMARK    8  A    between atoms: C_25  and  C_26
REMARK    9  A    between atoms: C_27  and  O_28
REMARK                            x       y       z     vdW  Elec       q    Type
REMARK                         _______ _______ _______ _____ _____    ______ ____
ROOT
ATOM      1  C   UNL     1      22.608   0.155  53.442  0.00  0.00    +0.000 A 
ATOM      2  C   UNL     1      23.808   0.002  54.030  0.00  0.00    +0.000 A 
ATOM      3  C   UNL     1      25.044  -0.064  53.264  0.00  0.00    +0.000 A 
ATOM      4  O   UNL     1      26.083  -0.498  53.742  0.00  0.00    +0.000 OA
ATOM      5  O   UNL     1      24.967   0.351  51.962  0.00  0.00    +0.000 OA
ATOM      6  C   UNL     1      23.829   1.096  51.669  0.00  0.00    +0.000 A 
ATOM      7  C   UNL     1      24.035   2.357  51.146  0.00  0.00    +0.000 A 
ATOM      8  C   UNL     1      23.015   2.921  50.417  0.00  0.00    +0.000 A 
ATOM      9  C   UNL     1      21.755   2.290  50.397  0.00  0.00    +0.000 A 
ATOM     10  C   UNL     1      21.483   1.253  51.322  0.00  0.00    +0.000 A 
ATOM     11  C   UNL     1      22.555   0.704  52.064  0.00  0.00    +0.000 A 
ATOM     12  O   UNL     1      20.207   0.758  51.500  0.00  0.00    +0.000 OA
ATOM     13  C   UNL     1      19.098   1.376  50.787  0.00  0.00    +0.000 C 
ATOM     14  C   UNL     1      18.217   0.252  50.213  0.00  0.00    +0.000 C 
ATOM     15  C   UNL     1      18.271   2.184  51.797  0.00  0.00    +0.000 C 
ATOM     16  C   UNL     1      19.479   2.298  49.657  0.00  0.00    +0.000 C 
ATOM     17  C   UNL     1      20.718   2.755  49.483  0.00  0.00    +0.000 C 
ATOM     18  O   UNL     1      23.206   4.085  49.717  0.00  0.00    +0.000 OA
ATOM     19  C   UNL     1      24.310   4.937  50.114  0.00  0.00    +0.000 C 
ATOM     20  C   UNL     1      23.793   5.874  51.229  0.00  0.00    +0.000 C 
ATOM     21  C   UNL     1      24.650   5.801  48.896  0.00  0.00    +0.000 C 
ATOM     22  C   UNL     1      25.579   4.160  50.564  0.00  0.00    +0.000 C 
ATOM     23  C   UNL     1      26.311   3.394  49.444  0.00  0.00    +0.000 C 
ATOM     24  C   UNL     1      25.173   3.198  51.654  0.00  0.00    +0.000 C 
ENDROOT
BRANCH  24  25
ATOM     25  O   UNL     1      26.323   2.531  52.160  0.00  0.00    +0.000 OA
ATOM     26  H   UNL     1      27.094   3.115  52.087  0.00  0.00    +0.000 HD
ENDBRANCH  24  25
BRANCH   1  27
ATOM     27  C   UNL     1      21.406   0.043  54.356  0.00  0.00    +0.000 C 
BRANCH  27  29
ATOM     28  C   UNL     1      19.498  -1.480  53.742  0.00  0.00    +0.000 C 
ATOM     29  C   UNL     1      20.868  -1.388  54.394  0.00  0.00    +0.000 C 
ENDBRANCH  27  29
ENDBRANCH   1  27
TORSDOF 3
ENDMDL
MODEL 4
REMARK VINA RESULT:    -8.091      2.115      5.611
REMARK INTER + INTRA:          -9.666
REMARK INTER:                  -9.439
REMARK INTRA:                  -0.227
REMARK UNBOUND:                -0.393
REMARK  Name = 
REMARK  9 active torsions:
REMARK  status: ('A' for Active; 'I' for Inactive)
REMARK    1  A    between atoms: C_1  and  C_2
REMARK    2  A    between atoms: C_2  and  C_3
REMARK    3  A    between atoms: C_3  and  C_4
REMARK    4  A    between atoms: C_16  and  C_17
REMARK    5  A    between atoms: C_16  and  C_18
REMARK    6  A    between atoms: C_22  and  C_23
REMARK    7  A    between atoms: C_22  and  C_24
REMARK    8  A    between atoms: C_25  and  C_26
REMARK    9  A    between atoms: C_27  and  O_28
REMARK                            x       y       z     vdW  Elec       q    Type
REMARK                         _______ _______ _______ _____ _____    ______ ____
ROOT
ATOM      1  C   UNL     1      25.765   3.961  50.398  0.00  0.00    +0.000 A 
ATOM      2  C   UNL     1      26.610   2.981  50.766  0.00  0.00    +0.000 A 
ATOM      3  C   UNL     1      26.509   2.315  52.056  0.00  0.00    +0.000 A 
ATOM      4  O   UNL     1      27.427   1.654  52.521  0.00  0.00    +0.000 OA
ATOM      5  O   UNL     1      25.337   2.502  52.738  0.00  0.00    +0.000 OA
ATOM      6  C   UNL     1      24.297   2.998  51.959  0.00  0.00    +0.000 A 
ATOM      7  C   UNL     1      23.140   2.245  51.922  0.00  0.00    +0.000 A 
ATOM      8  C   UNL     1      21.971   2.886  51.588  0.00  0.00    +0.000 A 
ATOM      9  C   UNL     1      22.025   4.213  51.115  0.00  0.00    +0.000 A 
ATOM     10  C   UNL     1      23.275   4.766  50.743  0.00  0.00    +0.000 A 
ATOM     11  C   UNL     1      24.458   4.073  51.092  0.00  0.00    +0.000 A 
ATOM     12  O   UNL     1      23.362   5.966  50.068  0.00  0.00    +0.000 OA
ATOM     13  C   UNL     1      22.141   6.637  49.648  0.00  0.00    +0.000 C 
ATOM     14  C   UNL     1      22.280   8.132  49.986  0.00  0.00    +0.000 C 
ATOM     15  C   UNL     1      22.011   6.486  48.125  0.00  0.00    +0.000 C 
ATOM     16  C   UNL     1      20.867   6.131  50.274  0.00  0.00    +0.000 C 
ATOM     17  C   UNL     1      20.798   4.979  50.940  0.00  0.00    +0.000 C 
ATOM     18  O   UNL     1      20.760   2.254  51.705  0.00  0.00    +0.000 OA
ATOM     19  C   UNL     1      20.756   0.804  51.733  0.00  0.00    +0.000 C 
ATOM     20  C   UNL     1      20.697   0.313  50.269  0.00  0.00    +0.000 C 
ATOM     21  C   UNL     1      19.452   0.387  52.420  0.00  0.00    +0.000 C 
ATOM     22  C   UNL     1      21.961   0.183  52.495  0.00  0.00    +0.000 C 
ATOM     23  C   UNL     1      21.961   0.412  54.020  0.00  0.00    +0.000 C 
ATOM     24  C   UNL     1      23.228   0.744  51.899  0.00  0.00    +0.000 C 
ENDROOT
BRANCH  24  25
ATOM     25  O   UNL     1      24.358   0.132  52.506  0.00  0.00    +0.000 OA
ATOM     26  H   UNL     1      24.995  -0.123  51.820  0.00  0.00    +0.000 HD
ENDBRANCH  24  25
BRANCH   1  27
ATOM     27  C   UNL     1      26.097   4.666  49.099  0.00  0.00    +0.000 C 
BRANCH  27  29
ATOM     28  C   UNL     1      28.129   5.938  48.329  0.00  0.00    +0.000 C 
ATOM     29  C   UNL     1      27.594   4.593  48.795  0.00  0.00    +0.000 C 
ENDBRANCH  27  29
ENDBRANCH   1  27
TORSDOF 3
ENDMDL
MODEL 5
REMARK VINA RESULT:    -7.807      1.607      4.906
REMARK INTER + INTRA:          -9.341
REMARK INTER:                  -9.057
REMARK INTRA:                  -0.284
REMARK UNBOUND:                -0.393
REMARK  Name = 
REMARK  9 active torsions:
REMARK  status: ('A' for Active; 'I' for Inactive)
REMARK    1  A    between atoms: C_1  and  C_2
REMARK    2  A    between atoms: C_2  and  C_3
REMARK    3  A    between atoms: C_3  and  C_4
REMARK    4  A    between atoms: C_16  and  C_17
REMARK    5  A    between atoms: C_16  and  C_18
REMARK    6  A    between atoms: C_22  and  C_23
REMARK    7  A    between atoms: C_22  and  C_24
REMARK    8  A    between atoms: C_25  and  C_26
REMARK    9  A    between atoms: C_27  and  O_28
REMARK                            x       y       z     vdW  Elec       q    Type
REMARK                         _______ _______ _______ _____ _____    ______ ____
ROOT
ATOM      1  C   UNL     1      25.954   2.952  51.052  0.00  0.00    +0.000 A 
ATOM      2  C   UNL     1      27.069   2.260  51.345  0.00  0.00    +0.000 A 
ATOM      3  C   UNL     1      27.371   1.812  52.696  0.00  0.00    +0.000 A 
ATOM      4  O   UNL     1      28.494   1.459  53.029  0.00  0.00    +0.000 OA
ATOM      5  O   UNL     1      26.331   1.845  53.586  0.00  0.00    +0.000 OA
ATOM      6  C   UNL     1      25.078   1.961  52.993  0.00  0.00    +0.000 A 
ATOM      7  C   UNL     1      24.160   0.973  53.293  0.00  0.00    +0.000 A 
ATOM      8  C   UNL     1      22.828   1.273  53.143  0.00  0.00    +0.000 A 
ATOM      9  C   UNL     1      22.461   2.481  52.516  0.00  0.00    +0.000 A 
ATOM     10  C   UNL     1      23.445   3.228  51.823  0.00  0.00    +0.000 A 
ATOM     11  C   UNL     1      24.806   2.884  51.990  0.00  0.00    +0.000 A 
ATOM     12  O   UNL     1      23.105   4.288  51.006  0.00  0.00    +0.000 OA
ATOM     13  C   UNL     1      21.700   4.591  50.780  0.00  0.00    +0.000 C 
ATOM     14  C   UNL     1      21.517   6.115  50.901  0.00  0.00    +0.000 C 
ATOM     15  C   UNL     1      21.342   4.164  49.349  0.00  0.00    +0.000 C 
ATOM     16  C   UNL     1      20.727   3.926  51.719  0.00  0.00    +0.000 C 
ATOM     17  C   UNL     1      21.069   2.915  52.517  0.00  0.00    +0.000 C 
ATOM     18  O   UNL     1      21.855   0.416  53.590  0.00  0.00    +0.000 OA
ATOM     19  C   UNL     1      22.221  -0.973  53.790  0.00  0.00    +0.000 C 
ATOM     20  C   UNL     1      22.026  -1.701  52.442  0.00  0.00    +0.000 C 
ATOM     21  C   UNL     1      21.208  -1.549  54.784  0.00  0.00    +0.000 C 
ATOM     22  C   UNL     1      23.659  -1.174  54.346  0.00  0.00    +0.000 C 
ATOM     23  C   UNL     1      23.874  -0.700  55.797  0.00  0.00    +0.000 C 
ATOM     24  C   UNL     1      24.617  -0.453  53.430  0.00  0.00    +0.000 C 
ENDROOT
BRANCH  24  25
ATOM     25  O   UNL     1      25.955  -0.688  53.851  0.00  0.00    +0.000 OA
ATOM     26  H   UNL     1      26.482   0.115  53.716  0.00  0.00    +0.000 HD
ENDBRANCH  24  25
BRANCH   1  27
ATOM     27  C   UNL     1      25.861   3.486  49.638  0.00  0.00    +0.000 C 
BRANCH  27  29
ATOM     28  C   UNL     1      27.385   5.222  48.636  0.00  0.00    +0.000 C 
ATOM     29  C   UNL     1      26.220   4.972  49.581  0.00  0.00    +0.000 C 
ENDBRANCH  27  29
ENDBRANCH   1  27
TORSDOF 3
ENDMDL
MODEL 6
REMARK VINA RESULT:    -7.793      1.714      5.480
REMARK INTER + INTRA:          -9.324
REMARK INTER:                  -9.068
REMARK INTRA:                  -0.256
REMARK UNBOUND:                -0.393
REMARK  Name = 
REMARK  9 active torsions:
REMARK  status: ('A' for Active; 'I' for Inactive)
REMARK    1  A    between atoms: C_1  and  C_2
REMARK    2  A    between atoms: C_2  and  C_3
REMARK    3  A    between atoms: C_3  and  C_4
REMARK    4  A    between atoms: C_16  and  C_17
REMARK    5  A    between atoms: C_16  and  C_18
REMARK    6  A    between atoms: C_22  and  C_23
REMARK    7  A    between atoms: C_22  and  C_24
REMARK    8  A    between atoms: C_25  and  C_26
REMARK    9  A    between atoms: C_27  and  O_28
REMARK                            x       y       z     vdW  Elec       q    Type
REMARK                         _______ _______ _______ _____ _____    ______ ____
ROOT
ATOM      1  C   UNL     1      21.644   0.423  52.658  0.00  0.00    +0.000 A 
ATOM      2  C   UNL     1      20.463   0.798  52.133  0.00  0.00    +0.000 A 
ATOM      3  C   UNL     1      19.968   2.163  52.236  0.00  0.00    +0.000 A 
ATOM      4  O   UNL     1      18.795   2.446  52.041  0.00  0.00    +0.000 OA
ATOM      5  O   UNL     1      20.887   3.109  52.603  0.00  0.00    +0.000 OA
ATOM      6  C   UNL     1      22.210   2.696  52.480  0.00  0.00    +0.000 A 
ATOM      7  C   UNL     1      23.026   3.471  51.680  0.00  0.00    +0.000 A 
ATOM      8  C   UNL     1      24.381   3.405  51.896  0.00  0.00    +0.000 A 
ATOM      9  C   UNL     1      24.891   2.424  52.771  0.00  0.00    +0.000 A 
ATOM     10  C   UNL     1      24.047   1.372  53.200  0.00  0.00    +0.000 A 
ATOM     11  C   UNL     1      22.658   1.466  52.950  0.00  0.00    +0.000 A 
ATOM     12  O   UNL     1      24.545   0.271  53.867  0.00  0.00    +0.000 OA
ATOM     13  C   UNL     1      25.982   0.144  54.057  0.00  0.00    +0.000 C 
ATOM     14  C   UNL     1      26.233  -0.296  55.510  0.00  0.00    +0.000 C 
ATOM     15  C   UNL     1      26.495  -0.955  53.114  0.00  0.00    +0.000 C 
ATOM     16  C   UNL     1      26.790   1.390  53.797  0.00  0.00    +0.000 C 
ATOM     17  C   UNL     1      26.293   2.454  53.168  0.00  0.00    +0.000 C 
ATOM     18  O   UNL     1      25.240   4.273  51.271  0.00  0.00    +0.000 OA
ATOM     19  C   UNL     1      24.775   4.930  50.065  0.00  0.00    +0.000 C 
ATOM     20  C   UNL     1      25.098   3.997  48.877  0.00  0.00    +0.000 C 
ATOM     21  C   UNL     1      25.620   6.198  49.909  0.00  0.00    +0.000 C 
ATOM     22  C   UNL     1      23.269   5.316  50.096  0.00  0.00    +0.000 C 
ATOM     23  C   UNL     1      22.899   6.435  51.089  0.00  0.00    +0.000 C 
ATOM     24  C   UNL     1      22.477   4.072  50.415  0.00  0.00    +0.000 C 
ENDROOT
BRANCH  24  25
ATOM     25  O   UNL     1      21.086   4.360  50.362  0.00  0.00    +0.000 OA
ATOM     26  H   UNL     1      20.631   3.894  51.082  0.00  0.00    +0.000 HD
ENDBRANCH  24  25
BRANCH   1  27
ATOM     27  C   UNL     1      21.945  -1.061  52.611  0.00  0.00    +0.000 C 
BRANCH  27  29
ATOM     28  C   UNL     1      22.215  -1.477  55.080  0.00  0.00    +0.000 C 
ATOM     29  C   UNL     1      21.388  -1.779  53.841  0.00  0.00    +0.000 C 
ENDBRANCH  27  29
ENDBRANCH   1  27
TORSDOF 3
ENDMDL
MODEL 7
REMARK VINA RESULT:    -7.772      2.058      5.862
REMARK INTER + INTRA:          -9.301
REMARK INTER:                  -8.938
REMARK INTRA:                  -0.363
REMARK UNBOUND:                -0.393
REMARK  Name = 
REMARK  9 active torsions:
REMARK  status: ('A' for Active; 'I' for Inactive)
REMARK    1  A    between atoms: C_1  and  C_2
REMARK    2  A    between atoms: C_2  and  C_3
REMARK    3  A    between atoms: C_3  and  C_4
REMARK    4  A    between atoms: C_16  and  C_17
REMARK    5  A    between atoms: C_16  and  C_18
REMARK    6  A    between atoms: C_22  and  C_23
REMARK    7  A    between atoms: C_22  and  C_24
REMARK    8  A    between atoms: C_25  and  C_26
REMARK    9  A    between atoms: C_27  and  O_28
REMARK                            x       y       z     vdW  Elec       q    Type
REMARK                         _______ _______ _______ _____ _____    ______ ____
ROOT
ATOM      1  C   UNL     1      21.426  -0.192  52.844  0.00  0.00    +0.000 A 
ATOM      2  C   UNL     1      20.110  -0.356  52.627  0.00  0.00    +0.000 A 
ATOM      3  C   UNL     1      19.209   0.770  52.431  0.00  0.00    +0.000 A 
ATOM      4  O   UNL     1      17.996   0.659  52.534  0.00  0.00    +0.000 OA
ATOM      5  O   UNL     1      19.803   1.974  52.161  0.00  0.00    +0.000 OA
ATOM      6  C   UNL     1      21.134   1.877  51.769  0.00  0.00    +0.000 A 
ATOM      7  C   UNL     1      21.459   2.431  50.546  0.00  0.00    +0.000 A 
ATOM      8  C   UNL     1      22.770   2.785  50.334  0.00  0.00    +0.000 A 
ATOM      9  C   UNL     1      23.747   2.398  51.272  0.00  0.00    +0.000 A 
ATOM     10  C   UNL     1      23.417   1.441  52.263  0.00  0.00    +0.000 A 
ATOM     11  C   UNL     1      22.059   1.091  52.446  0.00  0.00    +0.000 A 
ATOM     12  O   UNL     1      24.385   0.861  53.058  0.00  0.00    +0.000 OA
ATOM     13  C   UNL     1      25.786   1.170  52.816  0.00  0.00    +0.000 C 
ATOM     14  C   UNL     1      26.457   1.433  54.176  0.00  0.00    +0.000 C 
ATOM     15  C   UNL     1      26.443  -0.059  52.171  0.00  0.00    +0.000 C 
ATOM     16  C   UNL     1      26.050   2.357  51.925  0.00  0.00    +0.000 C 
ATOM     17  C   UNL     1      25.105   2.922  51.175  0.00  0.00    +0.000 C 
ATOM     18  O   UNL     1      23.137   3.503  49.224  0.00  0.00    +0.000 OA
ATOM     19  C   UNL     1      22.244   3.481  48.081  0.00  0.00    +0.000 C 
ATOM     20  C   UNL     1      22.622   2.253  47.223  0.00  0.00    +0.000 C 
ATOM     21  C   UNL     1      22.556   4.739  47.264  0.00  0.00    +0.000 C 
ATOM     22  C   UNL     1      20.735   3.473  48.458  0.00  0.00    +0.000 C 
ATOM     23  C   UNL     1      20.211   4.775  49.096  0.00  0.00    +0.000 C 
ATOM     24  C   UNL     1      20.497   2.316  49.396  0.00  0.00    +0.000 C 
ENDROOT
BRANCH  24  25
ATOM     25  O   UNL     1      19.110   2.215  49.694  0.00  0.00    +0.000 OA
ATOM     26  H   UNL     1      18.693   1.588  49.082  0.00  0.00    +0.000 HD
ENDBRANCH  24  25
BRANCH   1  27
ATOM     27  C   UNL     1      22.201  -1.446  53.190  0.00  0.00    +0.000 C 
BRANCH  27  29
ATOM     28  C   UNL     1      23.219  -1.374  55.492  0.00  0.00    +0.000 C 
ATOM     29  C   UNL     1      22.025  -1.819  54.663  0.00  0.00    +0.000 C 
ENDBRANCH  27  29
ENDBRANCH   1  27
TORSDOF 3
ENDMDL
MODEL 8
REMARK VINA RESULT:    -7.425      2.636      6.209
REMARK INTER + INTRA:          -8.903
REMARK INTER:                  -8.540
REMARK INTRA:                  -0.363
REMARK UNBOUND:                -0.393
REMARK  Name = 
REMARK  9 active torsions:
REMARK  status: ('A' for Active; 'I' for Inactive)
REMARK    1  A    between atoms: C_1  and  C_2
REMARK    2  A    between atoms: C_2  and  C_3
REMARK    3  A    between atoms: C_3  and  C_4
REMARK    4  A    between atoms: C_16  and  C_17
REMARK    5  A    between atoms: C_16  and  C_18
REMARK    6  A    between atoms: C_22  and  C_23
REMARK    7  A    between atoms: C_22  and  C_24
REMARK    8  A    between atoms: C_25  and  C_26
REMARK    9  A    between atoms: C_27  and  O_28
REMARK                            x       y       z     vdW  Elec       q    Type
REMARK                         _______ _______ _______ _____ _____    ______ ____
ROOT
ATOM      1  C   UNL     1      18.759   1.299  51.664  0.00  0.00    +0.000 A 
ATOM      2  C   UNL     1      17.893   2.087  51.003  0.00  0.00    +0.000 A 
ATOM      3  C   UNL     1      17.881   3.533  51.166  0.00  0.00    +0.000 A 
ATOM      4  O   UNL     1      16.930   4.219  50.819  0.00  0.00    +0.000 OA
ATOM      5  O   UNL     1      18.983   4.079  51.768  0.00  0.00    +0.000 OA
ATOM      6  C   UNL     1      20.086   3.233  51.812  0.00  0.00    +0.000 A 
ATOM      7  C   UNL     1      21.248   3.703  51.233  0.00  0.00    +0.000 A 
ATOM      8  C   UNL     1      22.437   3.155  51.651  0.00  0.00    +0.000 A 
ATOM      9  C   UNL     1      22.414   2.023  52.490  0.00  0.00    +0.000 A 
ATOM     10  C   UNL     1      21.199   1.318  52.671  0.00  0.00    +0.000 A 
ATOM     11  C   UNL     1      19.996   1.906  52.218  0.00  0.00    +0.000 A 
ATOM     12  O   UNL     1      21.164   0.085  53.292  0.00  0.00    +0.000 OA
ATOM     13  C   UNL     1      22.412  -0.547  53.690  0.00  0.00    +0.000 C 
ATOM     14  C   UNL     1      22.229  -1.107  55.113  0.00  0.00    +0.000 C 
ATOM     15  C   UNL     1      22.685  -1.716  52.732  0.00  0.00    +0.000 C 
ATOM     16  C   UNL     1      23.628   0.344  53.690  0.00  0.00    +0.000 C 
ATOM     17  C   UNL     1      23.646   1.540  53.104  0.00  0.00    +0.000 C 
ATOM     18  O   UNL     1      23.638   3.690  51.261  0.00  0.00    +0.000 OA
ATOM     19  C   UNL     1      23.652   4.517  50.070  0.00  0.00    +0.000 C 
ATOM     20  C   UNL     1      23.851   3.581  48.858  0.00  0.00    +0.000 C 
ATOM     21  C   UNL     1      24.891   5.412  50.180  0.00  0.00    +0.000 C 
ATOM     22  C   UNL     1      22.388   5.407  49.904  0.00  0.00    +0.000 C 
ATOM     23  C   UNL     1      22.245   6.544  50.936  0.00  0.00    +0.000 C 
ATOM     24  C   UNL     1      21.177   4.511  49.966  0.00  0.00    +0.000 C 
ENDROOT
BRANCH  24  25
ATOM     25  O   UNL     1      20.000   5.272  49.726  0.00  0.00    +0.000 OA
ATOM     26  H   UNL     1      19.795   5.259  48.777  0.00  0.00    +0.000 HD
ENDBRANCH  24  25
BRANCH   1  27
ATOM     27  C   UNL     1      18.543  -0.192  51.514  0.00  0.00    +0.000 C 
BRANCH  27  29
ATOM     28  C   UNL     1      18.190  -1.724  53.482  0.00  0.00    +0.000 C 
ATOM     29  C   UNL     1      17.542  -0.715  52.546  0.00  0.00    +0.000 C 
ENDBRANCH  27  29
ENDBRANCH   1  27
TORSDOF 3
ENDMDL
MODEL 9
REMARK VINA RESULT:    -7.363      1.884      7.019
REMARK INTER + INTRA:          -8.832
REMARK INTER:                  -8.463
REMARK INTRA:                  -0.369
REMARK UNBOUND:                -0.393
REMARK  Name = 
REMARK  9 active torsions:
REMARK  status: ('A' for Active; 'I' for Inactive)
REMARK    1  A    between atoms: C_1  and  C_2
REMARK    2  A    between atoms: C_2  and  C_3
REMARK    3  A    between atoms: C_3  and  C_4
REMARK    4  A    between atoms: C_16  and  C_17
REMARK    5  A    between atoms: C_16  and  C_18
REMARK    6  A    between atoms: C_22  and  C_23
REMARK    7  A    between atoms: C_22  and  C_24
REMARK    8  A    between atoms: C_25  and  C_26
REMARK    9  A    between atoms: C_27  and  O_28
REMARK                            x       y       z     vdW  Elec       q    Type
REMARK                         _______ _______ _______ _____ _____    ______ ____
ROOT
ATOM      1  C   UNL     1      24.866   2.426  52.115  0.00  0.00    +0.000 A 
ATOM      2  C   UNL     1      25.655   3.304  51.472  0.00  0.00    +0.000 A 
ATOM      3  C   UNL     1      25.723   3.369  50.020  0.00  0.00    +0.000 A 
ATOM      4  O   UNL     1      26.636   3.935  49.435  0.00  0.00    +0.000 OA
ATOM      5  O   UNL     1      24.722   2.724  49.343  0.00  0.00    +0.000 OA
ATOM      6  C   UNL     1      23.615   2.412  50.126  0.00  0.00    +0.000 A 
ATOM      7  C   UNL     1      22.399   2.906  49.698  0.00  0.00    +0.000 A 
ATOM      8  C   UNL     1      21.262   2.261  50.126  0.00  0.00    +0.000 A 
ATOM      9  C   UNL     1      21.368   1.267  51.119  0.00  0.00    +0.000 A 
ATOM     10  C   UNL     1      22.580   1.135  51.841  0.00  0.00    +0.000 A 
ATOM     11  C   UNL     1      23.727   1.821  51.379  0.00  0.00    +0.000 A 
ATOM     12  O   UNL     1      22.667   0.341  52.967  0.00  0.00    +0.000 OA
ATOM     13  C   UNL     1      21.468  -0.304  53.478  0.00  0.00    +0.000 C 
ATOM     14  C   UNL     1      21.823  -1.761  53.826  0.00  0.00    +0.000 C 
ATOM     15  C   UNL     1      21.045   0.421  54.765  0.00  0.00    +0.000 C 
ATOM     16  C   UNL     1      20.284  -0.319  52.545  0.00  0.00    +0.000 C 
ATOM     17  C   UNL     1      20.217   0.437  51.451  0.00  0.00    +0.000 C 
ATOM     18  O   UNL     1      20.033   2.575  49.604  0.00  0.00    +0.000 OA
ATOM     19  C   UNL     1      19.882   3.867  48.964  0.00  0.00    +0.000 C 
ATOM     20  C   UNL     1      19.505   4.886  50.062  0.00  0.00    +0.000 C 
ATOM     21  C   UNL     1      18.690   3.742  48.010  0.00  0.00    +0.000 C 
ATOM     22  C   UNL     1      21.134   4.327  48.164  0.00  0.00    +0.000 C 
ATOM     23  C   UNL     1      21.438   3.508  46.893  0.00  0.00    +0.000 C 
ATOM     24  C   UNL     1      22.322   4.280  49.093  0.00  0.00    +0.000 C 
ENDROOT
BRANCH  24  25
ATOM     25  O   UNL     1      23.474   4.781  48.427  0.00  0.00    +0.000 OA
ATOM     26  H   UNL     1      23.283   4.879  47.481  0.00  0.00    +0.000 HD
ENDBRANCH  24  25
BRANCH   1  27
ATOM     27  C   UNL     1      25.026   2.371  53.620  0.00  0.00    +0.000 C 
BRANCH  27  29
ATOM     28  C   UNL     1      25.929   0.076  54.127  0.00  0.00    +0.000 C 
ATOM     29  C   UNL     1      26.258   1.556  54.017  0.00  0.00    +0.000 C 
ENDBRANCH  27  29
ENDBRANCH   1  27
TORSDOF 3
ENDMDL
