MODEL 1
REMARK VINA RESULT:    -8.543      0.000      0.000
REMARK INTER + INTRA:         -14.181
REMARK INTER:                 -12.289
REMARK INTRA:                  -1.892
REMARK UNBOUND:                -1.892
REMARK  Name = 
REMARK  9 active torsions:
REMARK  status: ('A' for Active; 'I' for Inactive)
REMARK    1  A    between atoms: C_1  and  C_2
REMARK    2  A    between atoms: C_2  and  C_3
REMARK    3  A    between atoms: C_3  and  C_4
REMARK    4  A    between atoms: C_4  and  C_5
REMARK    5  A    between atoms: C_11  and  O_12
REMARK    6  A    between atoms: N_14  and  C_15
REMARK    7  A    between atoms: C_15  and  C_16
REMARK    8  A    between atoms: C_19  and  C_20
REMARK    9  A    between atoms: C_25  and  C_26
REMARK                            x       y       z     vdW  Elec       q    Type
REMARK                         _______ _______ _______ _____ _____    ______ ____
ROOT
ATOM      1  C   UNL     1      23.025   3.906  52.196  0.00  0.00    +0.000 C 
ENDROOT
BRANCH   1  10
ATOM      2  C   UNL     1      22.115   4.009  49.814  0.00  0.00    +0.000 A 
ATOM      3  N   UNL     1      22.322   4.720  48.720  0.00  0.00    +0.000 NA
ATOM      4  C   UNL     1      23.172   5.733  49.076  0.00  0.00    +0.000 A 
ATOM      5  C   UNL     1      23.693   6.771  48.305  0.00  0.00    +0.000 A 
ATOM      6  N   UNL     1      24.478   7.696  48.901  0.00  0.00    +0.000 NA
ATOM      7  N   UNL     1      24.744   7.633  50.250  0.00  0.00    +0.000 NA
ATOM      8  C   UNL     1      24.261   6.637  51.011  0.00  0.00    +0.000 A 
ATOM      9  C   UNL     1      23.491   5.652  50.426  0.00  0.00    +0.000 A 
ATOM     10  N   UNL     1      22.891   4.486  50.861  0.00  0.00    +0.000 N 
BRANCH   8  11
ATOM     11  O   UNL     1      24.548   6.711  52.343  0.00  0.00    +0.000 OA
ATOM     12  H   UNL     1      25.366   6.386  52.665  0.00  0.00    +0.000 HD
ENDBRANCH   8  11
BRANCH   2  13
ATOM     13  C   UNL     1      21.178   2.844  49.861  0.00  0.00    +0.000 C 
BRANCH  13  14
ATOM     14  C   UNL     1      21.847   1.496  49.552  0.00  0.00    +0.000 C 
BRANCH  14  16
ATOM     15  C   UNL     1      20.620   0.857  51.670  0.00  0.00    +0.000 C 
ATOM     16  C   UNL     1      21.646   0.425  50.631  0.00  0.00    +0.000 C 
ENDBRANCH  14  16
ENDBRANCH  13  14
ENDBRANCH   2  13
ENDBRANCH   1  10
BRANCH   1  17
ATOM     17  C   UNL     1      24.027   2.771  52.249  0.00  0.00    +0.000 A 
ATOM     18  C   UNL     1      23.959   1.788  53.241  0.00  0.00    +0.000 A 
ATOM     19  C   UNL     1      24.952   0.806  53.361  0.00  0.00    +0.000 A 
ATOM     20  C   UNL     1      26.039   0.732  52.472  0.00  0.00    +0.000 A 
ATOM     21  C   UNL     1      26.022   1.641  51.404  0.00  0.00    +0.000 A 
ATOM     22  C   UNL     1      25.059   2.664  51.313  0.00  0.00    +0.000 A 
BRANCH  20  23
ATOM     23  C   UNL     1      27.146  -0.240  52.712  0.00  0.00    +0.000 A 
ATOM     24  C   UNL     1      26.952  -1.600  52.360  0.00  0.00    +0.000 A 
ATOM     25  C   UNL     1      27.886  -2.599  52.661  0.00  0.00    +0.000 A 
ATOM     26  C   UNL     1      29.073  -2.270  53.295  0.00  0.00    +0.000 A 
ATOM     27  C   UNL     1      29.328  -0.940  53.616  0.00  0.00    +0.000 A 
ATOM     28  C   UNL     1      28.380   0.070  53.339  0.00  0.00    +0.000 A 
BRANCH  28  29
ATOM     29  C   UNL     1      28.735   1.424  53.830  0.00  0.00    +0.000 C 
ATOM     30  O   UNL     1      28.716   2.476  53.215  0.00  0.00    +0.000 OA
ATOM     31  O   UNL     1      29.119   1.385  55.121  0.00  0.00    +0.000 OA
ENDBRANCH  28  29
ENDBRANCH  20  23
ENDBRANCH   1  17
TORSDOF 8
ENDMDL
MODEL 2
REMARK VINA RESULT:    -8.324      1.642      2.250
REMARK INTER + INTRA:         -13.866
REMARK INTER:                 -12.358
REMARK INTRA:                  -1.508
REMARK UNBOUND:                -1.892
REMARK  Name = 
REMARK  9 active torsions:
REMARK  status: ('A' for Active; 'I' for Inactive)
REMARK    1  A    between atoms: C_1  and  C_2
REMARK    2  A    between atoms: C_2  and  C_3
REMARK    3  A    between atoms: C_3  and  C_4
REMARK    4  A    between atoms: C_4  and  C_5
REMARK    5  A    between atoms: C_11  and  O_12
REMARK    6  A    between atoms: N_14  and  C_15
REMARK    7  A    between atoms: C_15  and  C_16
REMARK    8  A    between atoms: C_19  and  C_20
REMARK    9  A    between atoms: C_25  and  C_26
REMARK                            x       y       z     vdW  Elec       q    Type
REMARK                         _______ _______ _______ _____ _____    ______ ____
ROOT
ATOM      1  C   UNL     1      23.024   4.075  51.421  0.00  0.00    +0.000 C 
ENDROOT
BRANCH   1  10
ATOM      2  C   UNL     1      22.697   4.474  48.921  0.00  0.00    +0.000 A 
ATOM      3  N   UNL     1      23.177   5.278  47.991  0.00  0.00    +0.000 NA
ATOM      4  C   UNL     1      23.958   6.197  48.642  0.00  0.00    +0.000 A 
ATOM      5  C   UNL     1      24.680   7.274  48.132  0.00  0.00    +0.000 A 
ATOM      6  N   UNL     1      25.337   8.084  48.991  0.00  0.00    +0.000 NA
ATOM      7  N   UNL     1      25.281   7.869  50.349  0.00  0.00    +0.000 NA
ATOM      8  C   UNL     1      24.599   6.832  50.864  0.00  0.00    +0.000 A 
ATOM      9  C   UNL     1      23.951   5.960  50.011  0.00  0.00    +0.000 A 
ATOM     10  N   UNL     1      23.225   4.794  50.164  0.00  0.00    +0.000 N 
BRANCH   8  11
ATOM     11  O   UNL     1      24.571   6.753  52.225  0.00  0.00    +0.000 OA
ATOM     12  H   UNL     1      24.055   7.360  52.719  0.00  0.00    +0.000 HD
ENDBRANCH   8  11
BRANCH   2  13
ATOM     13  C   UNL     1      21.734   3.369  48.623  0.00  0.00    +0.000 C 
BRANCH  13  14
ATOM     14  C   UNL     1      22.404   2.008  48.386  0.00  0.00    +0.000 C 
BRANCH  14  16
ATOM     15  C   UNL     1      21.639   0.844  50.497  0.00  0.00    +0.000 C 
ATOM     16  C   UNL     1      21.643   0.813  48.975  0.00  0.00    +0.000 C 
ENDBRANCH  14  16
ENDBRANCH  13  14
ENDBRANCH   2  13
ENDBRANCH   1  10
BRANCH   1  17
ATOM     17  C   UNL     1      24.264   3.334  51.882  0.00  0.00    +0.000 A 
ATOM     18  C   UNL     1      25.248   2.931  50.975  0.00  0.00    +0.000 A 
ATOM     19  C   UNL     1      26.334   2.146  51.382  0.00  0.00    +0.000 A 
ATOM     20  C   UNL     1      26.514   1.760  52.723  0.00  0.00    +0.000 A 
ATOM     21  C   UNL     1      25.593   2.283  53.642  0.00  0.00    +0.000 A 
ATOM     22  C   UNL     1      24.469   3.024  53.228  0.00  0.00    +0.000 A 
BRANCH  20  23
ATOM     23  C   UNL     1      27.605   0.812  53.095  0.00  0.00    +0.000 A 
ATOM     24  C   UNL     1      28.886   1.332  53.413  0.00  0.00    +0.000 A 
ATOM     25  C   UNL     1      29.996   0.512  53.653  0.00  0.00    +0.000 A 
ATOM     26  C   UNL     1      29.860  -0.866  53.623  0.00  0.00    +0.000 A 
ATOM     27  C   UNL     1      28.611  -1.421  53.363  0.00  0.00    +0.000 A 
ATOM     28  C   UNL     1      27.491  -0.603  53.094  0.00  0.00    +0.000 A 
BRANCH  28  29
ATOM     29  C   UNL     1      26.250  -1.326  52.730  0.00  0.00    +0.000 C 
ATOM     30  O   UNL     1      25.110  -1.100  53.100  0.00  0.00    +0.000 OA
ATOM     31  O   UNL     1      26.513  -2.345  51.888  0.00  0.00    +0.000 OA
ENDBRANCH  28  29
ENDBRANCH  20  23
ENDBRANCH   1  17
TORSDOF 8
ENDMDL
MODEL 3
REMARK VINA RESULT:    -8.109      3.236      7.350
REMARK INTER + INTRA:         -13.557
REMARK INTER:                 -11.997
REMARK INTRA:                  -1.560
REMARK UNBOUND:                -1.892
REMARK  Name = 
REMARK  9 active torsions:
REMARK  status: ('A' for Active; 'I' for Inactive)
REMARK    1  A    between atoms: C_1  and  C_2
REMARK    2  A    between atoms: C_2  and  C_3
REMARK    3  A    between atoms: C_3  and  C_4
REMARK    4  A    between atoms: C_4  and  C_5
REMARK    5  A    between atoms: C_11  and  O_12
REMARK    6  A    between atoms: N_14  and  C_15
REMARK    7  A    between atoms: C_15  and  C_16
REMARK    8  A    between atoms: C_19  and  C_20
REMARK    9  A    between atoms: C_25  and  C_26
REMARK                            x       y       z     vdW  Elec       q    Type
REMARK                         _______ _______ _______ _____ _____    ______ ____
ROOT
ATOM      1  C   UNL     1      25.619   1.961  53.899  0.00  0.00    +0.000 C 
ENDROOT
BRANCH   1  10
ATOM      2  C   UNL     1      25.747  -0.467  53.122  0.00  0.00    +0.000 A 
ATOM      3  N   UNL     1      26.661  -1.416  53.034  0.00  0.00    +0.000 NA
ATOM      4  C   UNL     1      27.859  -0.826  53.337  0.00  0.00    +0.000 A 
ATOM      5  C   UNL     1      29.139  -1.375  53.374  0.00  0.00    +0.000 A 
ATOM      6  N   UNL     1      30.188  -0.568  53.649  0.00  0.00    +0.000 NA
ATOM      7  N   UNL     1      30.005   0.779  53.868  0.00  0.00    +0.000 NA
ATOM      8  C   UNL     1      28.779   1.329  53.846  0.00  0.00    +0.000 A 
ATOM      9  C   UNL     1      27.682   0.525  53.611  0.00  0.00    +0.000 A 
ATOM     10  N   UNL     1      26.314   0.717  53.571  0.00  0.00    +0.000 N 
BRANCH   8  11
ATOM     11  O   UNL     1      28.730   2.681  54.023  0.00  0.00    +0.000 OA
ATOM     12  H   UNL     1      28.909   3.254  53.303  0.00  0.00    +0.000 HD
ENDBRANCH   8  11
BRANCH   2  13
ATOM     13  C   UNL     1      24.305  -0.694  52.794  0.00  0.00    +0.000 C 
BRANCH  13  14
ATOM     14  C   UNL     1      23.367  -0.574  54.003  0.00  0.00    +0.000 C 
BRANCH  14  16
ATOM     15  C   UNL     1      21.863   0.395  52.214  0.00  0.00    +0.000 C 
ATOM     16  C   UNL     1      21.971  -0.028  53.674  0.00  0.00    +0.000 C 
ENDBRANCH  14  16
ENDBRANCH  13  14
ENDBRANCH   2  13
ENDBRANCH   1  10
BRANCH   1  17
ATOM     17  C   UNL     1      25.056   2.662  52.678  0.00  0.00    +0.000 A 
ATOM     18  C   UNL     1      25.680   2.563  51.431  0.00  0.00    +0.000 A 
ATOM     19  C   UNL     1      25.228   3.303  50.331  0.00  0.00    +0.000 A 
ATOM     20  C   UNL     1      24.105   4.147  50.410  0.00  0.00    +0.000 A 
ATOM     21  C   UNL     1      23.411   4.132  51.629  0.00  0.00    +0.000 A 
ATOM     22  C   UNL     1      23.895   3.435  52.753  0.00  0.00    +0.000 A 
BRANCH  20  23
ATOM     23  C   UNL     1      23.736   5.022  49.259  0.00  0.00    +0.000 A 
ATOM     24  C   UNL     1      22.640   4.650  48.439  0.00  0.00    +0.000 A 
ATOM     25  C   UNL     1      22.302   5.343  47.271  0.00  0.00    +0.000 A 
ATOM     26  C   UNL     1      23.025   6.464  46.895  0.00  0.00    +0.000 A 
ATOM     27  C   UNL     1      24.078   6.894  47.696  0.00  0.00    +0.000 A 
ATOM     28  C   UNL     1      24.443   6.187  48.862  0.00  0.00    +0.000 A 
BRANCH  28  29
ATOM     29  C   UNL     1      25.648   6.694  49.560  0.00  0.00    +0.000 C 
ATOM     30  O   UNL     1      25.703   7.352  50.586  0.00  0.00    +0.000 OA
ATOM     31  O   UNL     1      26.772   6.341  48.906  0.00  0.00    +0.000 OA
ENDBRANCH  28  29
ENDBRANCH  20  23
ENDBRANCH   1  17
TORSDOF 8
ENDMDL
MODEL 4
REMARK VINA RESULT:    -7.999      3.611      7.666
REMARK INTER + INTRA:         -13.398
REMARK INTER:                 -11.697
REMARK INTRA:                  -1.701
REMARK UNBOUND:                -1.892
REMARK  Name = 
REMARK  9 active torsions:
REMARK  status: ('A' for Active; 'I' for Inactive)
REMARK    1  A    between atoms: C_1  and  C_2
REMARK    2  A    between atoms: C_2  and  C_3
REMARK    3  A    between atoms: C_3  and  C_4
REMARK    4  A    between atoms: C_4  and  C_5
REMARK    5  A    between atoms: C_11  and  O_12
REMARK    6  A    between atoms: N_14  and  C_15
REMARK    7  A    between atoms: C_15  and  C_16
REMARK    8  A    between atoms: C_19  and  C_20
REMARK    9  A    between atoms: C_25  and  C_26
REMARK                            x       y       z     vdW  Elec       q    Type
REMARK                         _______ _______ _______ _____ _____    ______ ____
ROOT
ATOM      1  C   UNL     1      25.701   2.024  53.777  0.00  0.00    +0.000 C 
ENDROOT
BRANCH   1  10
ATOM      2  C   UNL     1      25.743  -0.459  53.186  0.00  0.00    +0.000 A 
ATOM      3  N   UNL     1      26.625  -1.440  53.159  0.00  0.00    +0.000 NA
ATOM      4  C   UNL     1      27.845  -0.867  53.403  0.00  0.00    +0.000 A 
ATOM      5  C   UNL     1      29.108  -1.453  53.466  0.00  0.00    +0.000 A 
ATOM      6  N   UNL     1      30.185  -0.661  53.666  0.00  0.00    +0.000 NA
ATOM      7  N   UNL     1      30.047   0.703  53.784  0.00  0.00    +0.000 NA
ATOM      8  C   UNL     1      28.839   1.290  53.736  0.00  0.00    +0.000 A 
ATOM      9  C   UNL     1      27.714   0.506  53.575  0.00  0.00    +0.000 A 
ATOM     10  N   UNL     1      26.353   0.738  53.537  0.00  0.00    +0.000 N 
BRANCH   8  11
ATOM     11  O   UNL     1      28.834   2.651  53.810  0.00  0.00    +0.000 OA
ATOM     12  H   UNL     1      28.396   3.155  53.151  0.00  0.00    +0.000 HD
ENDBRANCH   8  11
BRANCH   2  13
ATOM     13  C   UNL     1      24.290  -0.663  52.893  0.00  0.00    +0.000 C 
BRANCH  13  14
ATOM     14  C   UNL     1      23.403  -0.704  54.146  0.00  0.00    +0.000 C 
BRANCH  14  16
ATOM     15  C   UNL     1      21.733   0.210  52.481  0.00  0.00    +0.000 C 
ATOM     16  C   UNL     1      21.965  -0.217  53.923  0.00  0.00    +0.000 C 
ENDBRANCH  14  16
ENDBRANCH  13  14
ENDBRANCH   2  13
ENDBRANCH   1  10
BRANCH   1  17
ATOM     17  C   UNL     1      25.105   2.628  52.522  0.00  0.00    +0.000 A 
ATOM     18  C   UNL     1      25.779   2.572  51.298  0.00  0.00    +0.000 A 
ATOM     19  C   UNL     1      25.283   3.230  50.165  0.00  0.00    +0.000 A 
ATOM     20  C   UNL     1      24.071   3.942  50.186  0.00  0.00    +0.000 A 
ATOM     21  C   UNL     1      23.341   3.877  51.382  0.00  0.00    +0.000 A 
ATOM     22  C   UNL     1      23.862   3.266  52.538  0.00  0.00    +0.000 A 
BRANCH  20  23
ATOM     23  C   UNL     1      23.645   4.743  49.001  0.00  0.00    +0.000 A 
ATOM     24  C   UNL     1      24.138   6.065  48.854  0.00  0.00    +0.000 A 
ATOM     25  C   UNL     1      23.697   6.927  47.842  0.00  0.00    +0.000 A 
ATOM     26  C   UNL     1      22.771   6.487  46.910  0.00  0.00    +0.000 A 
ATOM     27  C   UNL     1      22.297   5.182  46.987  0.00  0.00    +0.000 A 
ATOM     28  C   UNL     1      22.715   4.313  48.018  0.00  0.00    +0.000 A 
BRANCH  28  29
ATOM     29  C   UNL     1      22.050   2.989  48.041  0.00  0.00    +0.000 C 
ATOM     30  O   UNL     1      22.485   1.921  47.643  0.00  0.00    +0.000 OA
ATOM     31  O   UNL     1      20.818   3.075  48.579  0.00  0.00    +0.000 OA
ENDBRANCH  28  29
ENDBRANCH  20  23
ENDBRANCH   1  17
TORSDOF 8
ENDMDL
MODEL 5
REMARK VINA RESULT:    -7.873      1.880      2.762
REMARK INTER + INTRA:         -13.217
REMARK INTER:                 -11.415
REMARK INTRA:                  -1.802
REMARK UNBOUND:                -1.892
REMARK  Name = 
REMARK  9 active torsions:
REMARK  status: ('A' for Active; 'I' for Inactive)
REMARK    1  A    between atoms: C_1  and  C_2
REMARK    2  A    between atoms: C_2  and  C_3
REMARK    3  A    between atoms: C_3  and  C_4
REMARK    4  A    between atoms: C_4  and  C_5
REMARK    5  A    between atoms: C_11  and  O_12
REMARK    6  A    between atoms: N_14  and  C_15
REMARK    7  A    between atoms: C_15  and  C_16
REMARK    8  A    between atoms: C_19  and  C_20
REMARK    9  A    between atoms: C_25  and  C_26
REMARK                            x       y       z     vdW  Elec       q    Type
REMARK                         _______ _______ _______ _____ _____    ______ ____
ROOT
ATOM      1  C   UNL     1      22.731   3.843  52.074  0.00  0.00    +0.000 C 
ENDROOT
BRANCH   1  10
ATOM      2  C   UNL     1      20.741   2.362  51.471  0.00  0.00    +0.000 A 
ATOM      3  N   UNL     1      20.132   1.944  50.377  0.00  0.00    +0.000 NA
ATOM      4  C   UNL     1      20.697   2.633  49.336  0.00  0.00    +0.000 A 
ATOM      5  C   UNL     1      20.409   2.582  47.974  0.00  0.00    +0.000 A 
ATOM      6  N   UNL     1      21.072   3.411  47.136  0.00  0.00    +0.000 NA
ATOM      7  N   UNL     1      22.000   4.307  47.615  0.00  0.00    +0.000 NA
ATOM      8  C   UNL     1      22.301   4.367  48.923  0.00  0.00    +0.000 A 
ATOM      9  C   UNL     1      21.673   3.506  49.801  0.00  0.00    +0.000 A 
ATOM     10  N   UNL     1      21.762   3.247  51.156  0.00  0.00    +0.000 N 
BRANCH   8  11
ATOM     11  O   UNL     1      23.195   5.331  49.286  0.00  0.00    +0.000 OA
ATOM     12  H   UNL     1      23.382   5.480  50.192  0.00  0.00    +0.000 HD
ENDBRANCH   8  11
BRANCH   2  13
ATOM     13  C   UNL     1      20.359   1.898  52.842  0.00  0.00    +0.000 C 
BRANCH  13  14
ATOM     14  C   UNL     1      20.689   0.422  53.112  0.00  0.00    +0.000 C 
BRANCH  14  16
ATOM     15  C   UNL     1      22.655  -0.958  53.905  0.00  0.00    +0.000 C 
ATOM     16  C   UNL     1      22.156   0.045  52.873  0.00  0.00    +0.000 C 
ENDBRANCH  14  16
ENDBRANCH  13  14
ENDBRANCH   2  13
ENDBRANCH   1  10
BRANCH   1  17
ATOM     17  C   UNL     1      23.965   2.985  52.270  0.00  0.00    +0.000 A 
ATOM     18  C   UNL     1      24.599   2.368  51.187  0.00  0.00    +0.000 A 
ATOM     19  C   UNL     1      25.668   1.483  51.379  0.00  0.00    +0.000 A 
ATOM     20  C   UNL     1      26.183   1.200  52.657  0.00  0.00    +0.000 A 
ATOM     21  C   UNL     1      25.624   1.928  53.718  0.00  0.00    +0.000 A 
ATOM     22  C   UNL     1      24.514   2.774  53.537  0.00  0.00    +0.000 A 
BRANCH  20  23
ATOM     23  C   UNL     1      27.228   0.150  52.834  0.00  0.00    +0.000 A 
ATOM     24  C   UNL     1      26.931  -1.183  52.454  0.00  0.00    +0.000 A 
ATOM     25  C   UNL     1      27.805  -2.250  52.698  0.00  0.00    +0.000 A 
ATOM     26  C   UNL     1      29.032  -2.019  53.298  0.00  0.00    +0.000 A 
ATOM     27  C   UNL     1      29.386  -0.720  53.643  0.00  0.00    +0.000 A 
ATOM     28  C   UNL     1      28.501   0.360  53.426  0.00  0.00    +0.000 A 
BRANCH  28  29
ATOM     29  C   UNL     1      28.963   1.672  53.938  0.00  0.00    +0.000 C 
ATOM     30  O   UNL     1      28.966   2.746  53.361  0.00  0.00    +0.000 OA
ATOM     31  O   UNL     1      29.423   1.564  55.200  0.00  0.00    +0.000 OA
ENDBRANCH  28  29
ENDBRANCH  20  23
ENDBRANCH   1  17
TORSDOF 8
ENDMDL
MODEL 6
REMARK VINA RESULT:    -7.798      1.984      3.599
REMARK INTER + INTRA:         -13.109
REMARK INTER:                 -11.894
REMARK INTRA:                  -1.215
REMARK UNBOUND:                -1.892
REMARK  Name = 
REMARK  9 active torsions:
REMARK  status: ('A' for Active; 'I' for Inactive)
REMARK    1  A    between atoms: C_1  and  C_2
REMARK    2  A    between atoms: C_2  and  C_3
REMARK    3  A    between atoms: C_3  and  C_4
REMARK    4  A    between atoms: C_4  and  C_5
REMARK    5  A    between atoms: C_11  and  O_12
REMARK    6  A    between atoms: N_14  and  C_15
REMARK    7  A    between atoms: C_15  and  C_16
REMARK    8  A    between atoms: C_19  and  C_20
REMARK    9  A    between atoms: C_25  and  C_26
REMARK                            x       y       z     vdW  Elec       q    Type
REMARK                         _______ _______ _______ _____ _____    ______ ____
ROOT
ATOM      1  C   UNL     1      23.711   4.761  51.624  0.00  0.00    +0.000 C 
ENDROOT
BRANCH   1  10
ATOM      2  C   UNL     1      24.353   5.865  49.414  0.00  0.00    +0.000 A 
ATOM      3  N   UNL     1      23.809   6.062  48.227  0.00  0.00    +0.000 NA
ATOM      4  C   UNL     1      22.643   5.343  48.215  0.00  0.00    +0.000 A 
ATOM      5  C   UNL     1      21.699   5.193  47.201  0.00  0.00    +0.000 A 
ATOM      6  N   UNL     1      20.643   4.375  47.408  0.00  0.00    +0.000 NA
ATOM      7  N   UNL     1      20.508   3.681  48.589  0.00  0.00    +0.000 NA
ATOM      8  C   UNL     1      21.400   3.817  49.585  0.00  0.00    +0.000 A 
ATOM      9  C   UNL     1      22.467   4.677  49.422  0.00  0.00    +0.000 A 
ATOM     10  N   UNL     1      23.516   5.103  50.216  0.00  0.00    +0.000 N 
BRANCH   8  11
ATOM     11  O   UNL     1      21.189   3.038  50.684  0.00  0.00    +0.000 OA
ATOM     12  H   UNL     1      20.377   2.582  50.787  0.00  0.00    +0.000 HD
ENDBRANCH   8  11
BRANCH   2  13
ATOM     13  C   UNL     1      25.685   6.427  49.801  0.00  0.00    +0.000 C 
BRANCH  13  14
ATOM     14  C   UNL     1      26.718   6.417  48.665  0.00  0.00    +0.000 C 
BRANCH  14  16
ATOM     15  C   UNL     1      29.034   5.453  48.340  0.00  0.00    +0.000 C 
ATOM     16  C   UNL     1      27.564   5.140  48.587  0.00  0.00    +0.000 C 
ENDBRANCH  14  16
ENDBRANCH  13  14
ENDBRANCH   2  13
ENDBRANCH   1  10
BRANCH   1  17
ATOM     17  C   UNL     1      24.514   3.490  51.817  0.00  0.00    +0.000 A 
ATOM     18  C   UNL     1      24.416   2.742  52.994  0.00  0.00    +0.000 A 
ATOM     19  C   UNL     1      25.242   1.634  53.222  0.00  0.00    +0.000 A 
ATOM     20  C   UNL     1      26.178   1.193  52.269  0.00  0.00    +0.000 A 
ATOM     21  C   UNL     1      26.171   1.872  51.042  0.00  0.00    +0.000 A 
ATOM     22  C   UNL     1      25.383   3.020  50.831  0.00  0.00    +0.000 A 
BRANCH  20  23
ATOM     23  C   UNL     1      27.134   0.096  52.602  0.00  0.00    +0.000 A 
ATOM     24  C   UNL     1      26.788  -1.238  52.270  0.00  0.00    +0.000 A 
ATOM     25  C   UNL     1      27.565  -2.338  52.653  0.00  0.00    +0.000 A 
ATOM     26  C   UNL     1      28.746  -2.143  53.352  0.00  0.00    +0.000 A 
ATOM     27  C   UNL     1      29.150  -0.848  53.657  0.00  0.00    +0.000 A 
ATOM     28  C   UNL     1      28.359   0.266  53.297  0.00  0.00    +0.000 A 
BRANCH  28  29
ATOM     29  C   UNL     1      28.856   1.578  53.777  0.00  0.00    +0.000 C 
ATOM     30  O   UNL     1      28.769   2.663  53.227  0.00  0.00    +0.000 OA
ATOM     31  O   UNL     1      29.469   1.456  54.971  0.00  0.00    +0.000 OA
ENDBRANCH  28  29
ENDBRANCH  20  23
ENDBRANCH   1  17
TORSDOF 8
ENDMDL
MODEL 7
REMARK VINA RESULT:    -7.711      2.145      3.325
REMARK INTER + INTRA:         -12.984
REMARK INTER:                 -11.066
REMARK INTRA:                  -1.918
REMARK UNBOUND:                -1.892
REMARK  Name = 
REMARK  9 active torsions:
REMARK  status: ('A' for Active; 'I' for Inactive)
REMARK    1  A    between atoms: C_1  and  C_2
REMARK    2  A    between atoms: C_2  and  C_3
REMARK    3  A    between atoms: C_3  and  C_4
REMARK    4  A    between atoms: C_4  and  C_5
REMARK    5  A    between atoms: C_11  and  O_12
REMARK    6  A    between atoms: N_14  and  C_15
REMARK    7  A    between atoms: C_15  and  C_16
REMARK    8  A    between atoms: C_19  and  C_20
REMARK    9  A    between atoms: C_25  and  C_26
REMARK                            x       y       z     vdW  Elec       q    Type
REMARK                         _______ _______ _______ _____ _____    ______ ____
ROOT
ATOM      1  C   UNL     1      25.653   4.460  49.820  0.00  0.00    +0.000 C 
ENDROOT
BRANCH   1  10
ATOM      2  C   UNL     1      23.468   4.740  48.531  0.00  0.00    +0.000 A 
ATOM      3  N   UNL     1      22.740   5.729  48.048  0.00  0.00    +0.000 NA
ATOM      4  C   UNL     1      23.306   6.886  48.515  0.00  0.00    +0.000 A 
ATOM      5  C   UNL     1      22.919   8.210  48.317  0.00  0.00    +0.000 A 
ATOM      6  N   UNL     1      23.613   9.192  48.936  0.00  0.00    +0.000 NA
ATOM      7  N   UNL     1      24.670   8.895  49.766  0.00  0.00    +0.000 NA
ATOM      8  C   UNL     1      25.067   7.627  49.965  0.00  0.00    +0.000 A 
ATOM      9  C   UNL     1      24.407   6.603  49.314  0.00  0.00    +0.000 A 
ATOM     10  N   UNL     1      24.560   5.232  49.231  0.00  0.00    +0.000 N 
BRANCH   8  11
ATOM     11  O   UNL     1      26.089   7.453  50.850  0.00  0.00    +0.000 OA
ATOM     12  H   UNL     1      26.741   6.799  50.691  0.00  0.00    +0.000 HD
ENDBRANCH   8  11
BRANCH   2  13
ATOM     13  C   UNL     1      23.132   3.299  48.306  0.00  0.00    +0.000 C 
BRANCH  13  14
ATOM     14  C   UNL     1      21.905   2.817  49.094  0.00  0.00    +0.000 C 
BRANCH  14  16
ATOM     15  C   UNL     1      20.727   0.931  50.301  0.00  0.00    +0.000 C 
ATOM     16  C   UNL     1      22.020   1.386  49.636  0.00  0.00    +0.000 C 
ENDBRANCH  14  16
ENDBRANCH  13  14
ENDBRANCH   2  13
ENDBRANCH   1  10
BRANCH   1  17
ATOM     17  C   UNL     1      25.178   3.458  50.853  0.00  0.00    +0.000 A 
ATOM     18  C   UNL     1      25.673   2.150  50.876  0.00  0.00    +0.000 A 
ATOM     19  C   UNL     1      25.151   1.192  51.755  0.00  0.00    +0.000 A 
ATOM     20  C   UNL     1      24.138   1.501  52.680  0.00  0.00    +0.000 A 
ATOM     21  C   UNL     1      23.747   2.847  52.736  0.00  0.00    +0.000 A 
ATOM     22  C   UNL     1      24.228   3.799  51.818  0.00  0.00    +0.000 A 
BRANCH  20  23
ATOM     23  C   UNL     1      23.512   0.423  53.502  0.00  0.00    +0.000 A 
ATOM     24  C   UNL     1      22.098   0.323  53.539  0.00  0.00    +0.000 A 
ATOM     25  C   UNL     1      21.426  -0.575  54.376  0.00  0.00    +0.000 A 
ATOM     26  C   UNL     1      22.145  -1.441  55.185  0.00  0.00    +0.000 A 
ATOM     27  C   UNL     1      23.535  -1.411  55.145  0.00  0.00    +0.000 A 
ATOM     28  C   UNL     1      24.222  -0.491  54.324  0.00  0.00    +0.000 A 
BRANCH  28  29
ATOM     29  C   UNL     1      25.698  -0.498  54.460  0.00  0.00    +0.000 C 
ATOM     30  O   UNL     1      26.387   0.163  55.219  0.00  0.00    +0.000 OA
ATOM     31  O   UNL     1      26.260  -1.365  53.595  0.00  0.00    +0.000 OA
ENDBRANCH  28  29
ENDBRANCH  20  23
ENDBRANCH   1  17
TORSDOF 8
ENDMDL
MODEL 8
REMARK VINA RESULT:    -7.688      2.313      3.761
REMARK INTER + INTRA:         -12.951
REMARK INTER:                 -10.921
REMARK INTRA:                  -2.030
REMARK UNBOUND:                -1.892
REMARK  Name = 
REMARK  9 active torsions:
REMARK  status: ('A' for Active; 'I' for Inactive)
REMARK    1  A    between atoms: C_1  and  C_2
REMARK    2  A    between atoms: C_2  and  C_3
REMARK    3  A    between atoms: C_3  and  C_4
REMARK    4  A    between atoms: C_4  and  C_5
REMARK    5  A    between atoms: C_11  and  O_12
REMARK    6  A    between atoms: N_14  and  C_15
REMARK    7  A    between atoms: C_15  and  C_16
REMARK    8  A    between atoms: C_19  and  C_20
REMARK    9  A    between atoms: C_25  and  C_26
REMARK                            x       y       z     vdW  Elec       q    Type
REMARK                         _______ _______ _______ _____ _____    ______ ____
ROOT
ATOM      1  C   UNL     1      23.654   4.522  48.725  0.00  0.00    +0.000 C 
ENDROOT
BRANCH   1  10
ATOM      2  C   UNL     1      22.815   6.612  49.926  0.00  0.00    +0.000 A 
ATOM      3  N   UNL     1      23.272   7.813  50.230  0.00  0.00    +0.000 NA
ATOM      4  C   UNL     1      24.599   7.816  49.889  0.00  0.00    +0.000 A 
ATOM      5  C   UNL     1      25.549   8.827  50.017  0.00  0.00    +0.000 A 
ATOM      6  N   UNL     1      26.827   8.570  49.658  0.00  0.00    +0.000 NA
ATOM      7  N   UNL     1      27.195   7.328  49.194  0.00  0.00    +0.000 NA
ATOM      8  C   UNL     1      26.295   6.340  49.054  0.00  0.00    +0.000 A 
ATOM      9  C   UNL     1      24.973   6.582  49.371  0.00  0.00    +0.000 A 
ATOM     10  N   UNL     1      23.799   5.856  49.305  0.00  0.00    +0.000 N 
BRANCH   8  11
ATOM     11  O   UNL     1      26.788   5.139  48.638  0.00  0.00    +0.000 OA
ATOM     12  H   UNL     1      26.554   4.353  49.093  0.00  0.00    +0.000 HD
ENDBRANCH   8  11
BRANCH   2  13
ATOM     13  C   UNL     1      21.411   6.180  50.214  0.00  0.00    +0.000 C 
BRANCH  13  14
ATOM     14  C   UNL     1      21.280   5.282  51.453  0.00  0.00    +0.000 C 
BRANCH  14  16
ATOM     15  C   UNL     1      20.269   3.212  52.499  0.00  0.00    +0.000 C 
ATOM     16  C   UNL     1      20.203   4.195  51.338  0.00  0.00    +0.000 C 
ENDBRANCH  14  16
ENDBRANCH  13  14
ENDBRANCH   2  13
ENDBRANCH   1  10
BRANCH   1  17
ATOM     17  C   UNL     1      23.645   3.423  49.769  0.00  0.00    +0.000 A 
ATOM     18  C   UNL     1      22.813   2.306  49.641  0.00  0.00    +0.000 A 
ATOM     19  C   UNL     1      22.719   1.350  50.659  0.00  0.00    +0.000 A 
ATOM     20  C   UNL     1      23.480   1.438  51.839  0.00  0.00    +0.000 A 
ATOM     21  C   UNL     1      24.406   2.490  51.895  0.00  0.00    +0.000 A 
ATOM     22  C   UNL     1      24.463   3.484  50.900  0.00  0.00    +0.000 A 
BRANCH  20  23
ATOM     23  C   UNL     1      23.251   0.477  52.958  0.00  0.00    +0.000 A 
ATOM     24  C   UNL     1      21.930   0.284  53.437  0.00  0.00    +0.000 A 
ATOM     25  C   UNL     1      21.641  -0.502  54.559  0.00  0.00    +0.000 A 
ATOM     26  C   UNL     1      22.661  -1.161  55.226  0.00  0.00    +0.000 A 
ATOM     27  C   UNL     1      23.966  -1.040  54.762  0.00  0.00    +0.000 A 
ATOM     28  C   UNL     1      24.272  -0.228  53.647  0.00  0.00    +0.000 A 
BRANCH  28  29
ATOM     29  C   UNL     1      25.714  -0.106  53.328  0.00  0.00    +0.000 C 
ATOM     30  O   UNL     1      26.324  -0.606  52.397  0.00  0.00    +0.000 OA
ATOM     31  O   UNL     1      26.347   0.664  54.234  0.00  0.00    +0.000 OA
ENDBRANCH  28  29
ENDBRANCH  20  23
ENDBRANCH   1  17
TORSDOF 8
ENDMDL
MODEL 9
REMARK VINA RESULT:    -7.568      1.958      3.679
REMARK INTER + INTRA:         -12.778
REMARK INTER:                 -11.741
REMARK INTRA:                  -1.037
REMARK UNBOUND:                -1.892
REMARK  Name = 
REMARK  9 active torsions:
REMARK  status: ('A' for Active; 'I' for Inactive)
REMARK    1  A    between atoms: C_1  and  C_2
REMARK    2  A    between atoms: C_2  and  C_3
REMARK    3  A    between atoms: C_3  and  C_4
REMARK    4  A    between atoms: C_4  and  C_5
REMARK    5  A    between atoms: C_11  and  O_12
REMARK    6  A    between atoms: N_14  and  C_15
REMARK    7  A    between atoms: C_15  and  C_16
REMARK    8  A    between atoms: C_19  and  C_20
REMARK    9  A    between atoms: C_25  and  C_26
REMARK                            x       y       z     vdW  Elec       q    Type
REMARK                         _______ _______ _______ _____ _____    ______ ____
ROOT
ATOM      1  C   UNL     1      23.083   3.940  51.857  0.00  0.00    +0.000 C 
ENDROOT
BRANCH   1  10
ATOM      2  C   UNL     1      22.366   3.940  49.408  0.00  0.00    +0.000 A 
ATOM      3  N   UNL     1      21.246   3.820  48.719  0.00  0.00    +0.000 NA
ATOM      4  C   UNL     1      20.274   3.480  49.623  0.00  0.00    +0.000 A 
ATOM      5  C   UNL     1      18.921   3.219  49.419  0.00  0.00    +0.000 A 
ATOM      6  N   UNL     1      18.163   2.843  50.474  0.00  0.00    +0.000 NA
ATOM      7  N   UNL     1      18.717   2.696  51.725  0.00  0.00    +0.000 NA
ATOM      8  C   UNL     1      20.017   2.951  51.948  0.00  0.00    +0.000 A 
ATOM      9  C   UNL     1      20.810   3.378  50.901  0.00  0.00    +0.000 A 
ATOM     10  N   UNL     1      22.126   3.776  50.765  0.00  0.00    +0.000 N 
BRANCH   8  11
ATOM     11  O   UNL     1      20.462   2.718  53.215  0.00  0.00    +0.000 OA
ATOM     12  H   UNL     1      21.379   2.606  53.377  0.00  0.00    +0.000 HD
ENDBRANCH   8  11
BRANCH   2  13
ATOM     13  C   UNL     1      23.686   4.235  48.768  0.00  0.00    +0.000 C 
BRANCH  13  14
ATOM     14  C   UNL     1      24.056   5.726  48.768  0.00  0.00    +0.000 C 
BRANCH  14  16
ATOM     15  C   UNL     1      26.572   5.493  48.896  0.00  0.00    +0.000 C 
ATOM     16  C   UNL     1      25.326   6.065  49.559  0.00  0.00    +0.000 C 
ENDBRANCH  14  16
ENDBRANCH  13  14
ENDBRANCH   2  13
ENDBRANCH   1  10
BRANCH   1  17
ATOM     17  C   UNL     1      24.083   2.804  51.943  0.00  0.00    +0.000 A 
ATOM     18  C   UNL     1      23.828   1.670  52.719  0.00  0.00    +0.000 A 
ATOM     19  C   UNL     1      24.799   0.675  52.892  0.00  0.00    +0.000 A 
ATOM     20  C   UNL     1      26.056   0.742  52.265  0.00  0.00    +0.000 A 
ATOM     21  C   UNL     1      26.247   1.817  51.384  0.00  0.00    +0.000 A 
ATOM     22  C   UNL     1      25.297   2.848  51.253  0.00  0.00    +0.000 A 
BRANCH  20  23
ATOM     23  C   UNL     1      27.112  -0.265  52.581  0.00  0.00    +0.000 A 
ATOM     24  C   UNL     1      26.897  -1.619  52.218  0.00  0.00    +0.000 A 
ATOM     25  C   UNL     1      27.775  -2.647  52.583  0.00  0.00    +0.000 A 
ATOM     26  C   UNL     1      28.928  -2.355  53.294  0.00  0.00    +0.000 A 
ATOM     27  C   UNL     1      29.204  -1.034  53.629  0.00  0.00    +0.000 A 
ATOM     28  C   UNL     1      28.312   0.007  53.288  0.00  0.00    +0.000 A 
BRANCH  28  29
ATOM     29  C   UNL     1      28.678   1.349  53.799  0.00  0.00    +0.000 C 
ATOM     30  O   UNL     1      28.697   2.406  53.191  0.00  0.00    +0.000 OA
ATOM     31  O   UNL     1      29.021   1.295  55.101  0.00  0.00    +0.000 OA
ENDBRANCH  28  29
ENDBRANCH  20  23
ENDBRANCH   1  17
TORSDOF 8
ENDMDL
