MODEL 1
REMARK VINA RESULT:    -9.758      0.000      0.000
REMARK INTER + INTRA:         -12.398
REMARK INTER:                 -11.469
REMARK INTRA:                  -0.929
REMARK UNBOUND:                -0.929
REMARK  Name = 
REMARK  5 active torsions:
REMARK  status: ('A' for Active; 'I' for Inactive)
REMARK    1  A    between atoms: C_1  and  N_2
REMARK    2  A    between atoms: C_5  and  C_6
REMARK    3  A    between atoms: C_7  and  O_8
REMARK    4  A    between atoms: C_10  and  O_11
REMARK    5  A    between atoms: C_16  and  C_17
REMARK                            x       y       z     vdW  Elec       q    Type
REMARK                         _______ _______ _______ _____ _____    ______ ____
ROOT
ATOM      1  C   UNL     1      24.570  -0.373  53.976  0.00  0.00    +0.000 A 
ATOM      2  C   UNL     1      24.019  -1.074  55.059  0.00  0.00    +0.000 A 
ATOM      3  C   UNL     1      22.645  -1.064  55.296  0.00  0.00    +0.000 A 
ATOM      4  C   UNL     1      21.801  -0.340  54.448  0.00  0.00    +0.000 A 
ATOM      5  C   UNL     1      22.323   0.379  53.366  0.00  0.00    +0.000 A 
ATOM      6  C   UNL     1      21.477   1.177  52.447  0.00  0.00    +0.000 A 
ATOM      7  O   UNL     1      20.254   1.236  52.501  0.00  0.00    +0.000 OA
ATOM      8  C   UNL     1      22.177   1.950  51.410  0.00  0.00    +0.000 A 
ATOM      9  C   UNL     1      23.508   1.856  51.293  0.00  0.00    +0.000 A 
ATOM     10  O   UNL     1      24.286   1.046  52.095  0.00  0.00    +0.000 OA
ATOM     11  C   UNL     1      23.704   0.359  53.136  0.00  0.00    +0.000 A 
ENDROOT
BRANCH   1  16
ATOM     12  C   UNL     1      30.092  -1.136  54.015  0.00  0.00    +0.000 C 
ATOM     13  N   UNL     1      28.920  -0.534  53.406  0.00  0.00    +0.000 N 
ATOM     14  C   UNL     1      28.038  -1.459  52.719  0.00  0.00    +0.000 C 
ATOM     15  C   UNL     1      26.573  -1.325  52.955  0.00  0.00    +0.000 C 
ATOM     16  C   UNL     1      26.023  -0.375  53.721  0.00  0.00    +0.000 C 
ATOM     17  C   UNL     1      26.845   0.675  54.395  0.00  0.00    +0.000 C 
ATOM     18  C   UNL     1      28.365   0.589  54.156  0.00  0.00    +0.000 C 
ATOM     19  H   UNL     1      29.242  -0.024  52.583  0.00  0.00    +0.000 HD
ENDBRANCH   1  16
BRANCH   9  20
ATOM     20  C   UNL     1      24.285   2.652  50.270  0.00  0.00    +0.000 C 
ATOM     21  C   UNL     1      25.776   2.738  50.639  0.00  0.00    +0.000 C 
ATOM     22  C   UNL     1      26.551   3.598  49.643  0.00  0.00    +0.000 C 
ATOM     23  C   UNL     1      25.935   4.987  49.511  0.00  0.00    +0.000 C 
ATOM     24  C   UNL     1      24.463   4.907  49.119  0.00  0.00    +0.000 C 
ATOM     25  C   UNL     1      23.669   4.052  50.101  0.00  0.00    +0.000 C 
ENDBRANCH   9  20
BRANCH   2  26
ATOM     26  O   UNL     1      24.845  -1.780  55.893  0.00  0.00    +0.000 OA
ATOM     27  H   UNL     1      25.569  -2.259  55.540  0.00  0.00    +0.000 HD
ENDBRANCH   2  26
BRANCH   4  28
ATOM     28  O   UNL     1      20.460  -0.343  54.702  0.00  0.00    +0.000 OA
ATOM     29  H   UNL     1      20.141  -0.063  55.539  0.00  0.00    +0.000 HD
ENDBRANCH   4  28
TORSDOF 4
ENDMDL
MODEL 2
REMARK VINA RESULT:    -9.250      1.435      1.765
REMARK INTER + INTRA:         -11.801
REMARK INTER:                 -11.111
REMARK INTRA:                  -0.691
REMARK UNBOUND:                -0.929
REMARK  Name = 
REMARK  5 active torsions:
REMARK  status: ('A' for Active; 'I' for Inactive)
REMARK    1  A    between atoms: C_1  and  N_2
REMARK    2  A    between atoms: C_5  and  C_6
REMARK    3  A    between atoms: C_7  and  O_8
REMARK    4  A    between atoms: C_10  and  O_11
REMARK    5  A    between atoms: C_16  and  C_17
REMARK                            x       y       z     vdW  Elec       q    Type
REMARK                         _______ _______ _______ _____ _____    ______ ____
ROOT
ATOM      1  C   UNL     1      24.254  -0.366  53.922  0.00  0.00    +0.000 A 
ATOM      2  C   UNL     1      23.964  -1.102  55.080  0.00  0.00    +0.000 A 
ATOM      3  C   UNL     1      22.659  -1.502  55.367  0.00  0.00    +0.000 A 
ATOM      4  C   UNL     1      21.622  -1.163  54.493  0.00  0.00    +0.000 A 
ATOM      5  C   UNL     1      21.880  -0.419  53.335  0.00  0.00    +0.000 A 
ATOM      6  C   UNL     1      20.817  -0.016  52.384  0.00  0.00    +0.000 A 
ATOM      7  O   UNL     1      19.638  -0.340  52.479  0.00  0.00    +0.000 OA
ATOM      8  C   UNL     1      21.226   0.838  51.260  0.00  0.00    +0.000 A 
ATOM      9  C   UNL     1      22.517   1.158  51.101  0.00  0.00    +0.000 A 
ATOM     10  O   UNL     1      23.520   0.712  51.939  0.00  0.00    +0.000 OA
ATOM     11  C   UNL     1      23.194  -0.025  53.056  0.00  0.00    +0.000 A 
ENDROOT
BRANCH   1  16
ATOM     12  C   UNL     1      29.688   0.878  53.928  0.00  0.00    +0.000 C 
ATOM     13  N   UNL     1      28.418   0.841  53.227  0.00  0.00    +0.000 N 
ATOM     14  C   UNL     1      27.951  -0.485  52.866  0.00  0.00    +0.000 C 
ATOM     15  C   UNL     1      26.518  -0.808  53.121  0.00  0.00    +0.000 C 
ATOM     16  C   UNL     1      25.631   0.065  53.613  0.00  0.00    +0.000 C 
ATOM     17  C   UNL     1      26.000   1.479  53.928  0.00  0.00    +0.000 C 
ATOM     18  C   UNL     1      27.467   1.863  53.656  0.00  0.00    +0.000 C 
ATOM     19  H   UNL     1      28.591   1.180  52.281  0.00  0.00    +0.000 HD
ENDBRANCH   1  16
BRANCH   9  20
ATOM     20  C   UNL     1      22.993   2.059  49.985  0.00  0.00    +0.000 C 
ATOM     21  C   UNL     1      22.972   3.538  50.410  0.00  0.00    +0.000 C 
ATOM     22  C   UNL     1      23.387   4.456  49.262  0.00  0.00    +0.000 C 
ATOM     23  C   UNL     1      22.525   4.226  48.026  0.00  0.00    +0.000 C 
ATOM     24  C   UNL     1      22.564   2.765  47.585  0.00  0.00    +0.000 C 
ATOM     25  C   UNL     1      22.152   1.830  48.717  0.00  0.00    +0.000 C 
ENDBRANCH   9  20
BRANCH   2  26
ATOM     26  O   UNL     1      24.978  -1.431  55.939  0.00  0.00    +0.000 OA
ATOM     27  H   UNL     1      25.685  -1.970  55.644  0.00  0.00    +0.000 HD
ENDBRANCH   2  26
BRANCH   4  28
ATOM     28  O   UNL     1      20.353  -1.563  54.797  0.00  0.00    +0.000 OA
ATOM     29  H   UNL     1      20.073  -1.595  55.692  0.00  0.00    +0.000 HD
ENDBRANCH   4  28
TORSDOF 4
ENDMDL
MODEL 3
REMARK VINA RESULT:    -9.079      2.001      5.288
REMARK INTER + INTRA:         -11.600
REMARK INTER:                 -10.727
REMARK INTRA:                  -0.873
REMARK UNBOUND:                -0.929
REMARK  Name = 
REMARK  5 active torsions:
REMARK  status: ('A' for Active; 'I' for Inactive)
REMARK    1  A    between atoms: C_1  and  N_2
REMARK    2  A    between atoms: C_5  and  C_6
REMARK    3  A    between atoms: C_7  and  O_8
REMARK    4  A    between atoms: C_10  and  O_11
REMARK    5  A    between atoms: C_16  and  C_17
REMARK                            x       y       z     vdW  Elec       q    Type
REMARK                         _______ _______ _______ _____ _____    ______ ____
ROOT
ATOM      1  C   UNL     1      22.169   1.598  52.400  0.00  0.00    +0.000 A 
ATOM      2  C   UNL     1      20.791   1.344  52.429  0.00  0.00    +0.000 A 
ATOM      3  C   UNL     1      20.265   0.327  53.226  0.00  0.00    +0.000 A 
ATOM      4  C   UNL     1      21.122  -0.456  54.005  0.00  0.00    +0.000 A 
ATOM      5  C   UNL     1      22.504  -0.234  53.987  0.00  0.00    +0.000 A 
ATOM      6  C   UNL     1      23.460  -1.045  54.778  0.00  0.00    +0.000 A 
ATOM      7  O   UNL     1      23.140  -1.933  55.560  0.00  0.00    +0.000 OA
ATOM      8  C   UNL     1      24.888  -0.752  54.589  0.00  0.00    +0.000 A 
ATOM      9  C   UNL     1      25.262   0.252  53.785  0.00  0.00    +0.000 A 
ATOM     10  O   UNL     1      24.368   1.063  53.115  0.00  0.00    +0.000 OA
ATOM     11  C   UNL     1      23.020   0.792  53.186  0.00  0.00    +0.000 A 
ENDROOT
BRANCH   1  16
ATOM     12  C   UNL     1      25.396   5.231  49.668  0.00  0.00    +0.000 C 
ATOM     13  N   UNL     1      24.072   4.714  49.962  0.00  0.00    +0.000 N 
ATOM     14  C   UNL     1      23.787   3.401  49.413  0.00  0.00    +0.000 C 
ATOM     15  C   UNL     1      23.125   2.407  50.304  0.00  0.00    +0.000 C 
ATOM     16  C   UNL     1      22.734   2.669  51.556  0.00  0.00    +0.000 C 
ATOM     17  C   UNL     1      22.903   4.019  52.175  0.00  0.00    +0.000 C 
ATOM     18  C   UNL     1      23.562   5.085  51.278  0.00  0.00    +0.000 C 
ATOM     19  H   UNL     1      23.414   5.241  49.388  0.00  0.00    +0.000 HD
ENDBRANCH   1  16
BRANCH   9  20
ATOM     20  C   UNL     1      26.715   0.579  53.526  0.00  0.00    +0.000 C 
ATOM     21  C   UNL     1      27.645  -0.230  54.446  0.00  0.00    +0.000 C 
ATOM     22  C   UNL     1      29.110   0.148  54.234  0.00  0.00    +0.000 C 
ATOM     23  C   UNL     1      29.329   1.647  54.411  0.00  0.00    +0.000 C 
ATOM     24  C   UNL     1      28.427   2.453  53.482  0.00  0.00    +0.000 C 
ATOM     25  C   UNL     1      26.958   2.091  53.677  0.00  0.00    +0.000 C 
ENDBRANCH   9  20
BRANCH   2  26
ATOM     26  O   UNL     1      19.950   2.107  51.664  0.00  0.00    +0.000 OA
ATOM     27  H   UNL     1      19.060   2.234  51.929  0.00  0.00    +0.000 HD
ENDBRANCH   2  26
BRANCH   4  28
ATOM     28  O   UNL     1      20.585  -1.447  54.774  0.00  0.00    +0.000 OA
ATOM     29  H   UNL     1      21.133  -2.133  55.105  0.00  0.00    +0.000 HD
ENDBRANCH   4  28
TORSDOF 4
ENDMDL
MODEL 4
REMARK VINA RESULT:    -9.060      2.556      5.208
REMARK INTER + INTRA:         -11.579
REMARK INTER:                 -10.671
REMARK INTRA:                  -0.908
REMARK UNBOUND:                -0.929
REMARK  Name = 
REMARK  5 active torsions:
REMARK  status: ('A' for Active; 'I' for Inactive)
REMARK    1  A    between atoms: C_1  and  N_2
REMARK    2  A    between atoms: C_5  and  C_6
REMARK    3  A    between atoms: C_7  and  O_8
REMARK    4  A    between atoms: C_10  and  O_11
REMARK    5  A    between atoms: C_16  and  C_17
REMARK                            x       y       z     vdW  Elec       q    Type
REMARK                         _______ _______ _______ _____ _____    ______ ____
ROOT
ATOM      1  C   UNL     1      22.082   0.067  53.358  0.00  0.00    +0.000 A 
ATOM      2  C   UNL     1      21.735  -0.821  54.385  0.00  0.00    +0.000 A 
ATOM      3  C   UNL     1      22.712  -1.395  55.198  0.00  0.00    +0.000 A 
ATOM      4  C   UNL     1      24.059  -1.087  54.986  0.00  0.00    +0.000 A 
ATOM      5  C   UNL     1      24.437  -0.212  53.961  0.00  0.00    +0.000 A 
ATOM      6  C   UNL     1      25.850   0.136  53.680  0.00  0.00    +0.000 A 
ATOM      7  O   UNL     1      26.807  -0.249  54.342  0.00  0.00    +0.000 OA
ATOM      8  C   UNL     1      26.099   0.998  52.515  0.00  0.00    +0.000 A 
ATOM      9  C   UNL     1      25.067   1.479  51.810  0.00  0.00    +0.000 A 
ATOM     10  O   UNL     1      23.746   1.225  52.123  0.00  0.00    +0.000 OA
ATOM     11  C   UNL     1      23.447   0.361  53.152  0.00  0.00    +0.000 A 
ENDROOT
BRANCH   1  16
ATOM     12  C   UNL     1      19.189   2.929  49.548  0.00  0.00    +0.000 C 
ATOM     13  N   UNL     1      19.206   1.991  50.656  0.00  0.00    +0.000 N 
ATOM     14  C   UNL     1      19.767   0.687  50.350  0.00  0.00    +0.000 C 
ATOM     15  C   UNL     1      20.724   0.098  51.329  0.00  0.00    +0.000 C 
ATOM     16  C   UNL     1      21.055   0.675  52.490  0.00  0.00    +0.000 C 
ATOM     17  C   UNL     1      20.459   1.973  52.931  0.00  0.00    +0.000 C 
ATOM     18  C   UNL     1      19.444   2.605  51.958  0.00  0.00    +0.000 C 
ATOM     19  H   UNL     1      18.244   1.688  50.803  0.00  0.00    +0.000 HD
ENDBRANCH   1  16
BRANCH   9  20
ATOM     20  C   UNL     1      25.260   2.342  50.584  0.00  0.00    +0.000 C 
ATOM     21  C   UNL     1      26.620   3.062  50.613  0.00  0.00    +0.000 C 
ATOM     22  C   UNL     1      26.790   3.987  49.409  0.00  0.00    +0.000 C 
ATOM     23  C   UNL     1      25.640   4.984  49.308  0.00  0.00    +0.000 C 
ATOM     24  C   UNL     1      24.291   4.273  49.251  0.00  0.00    +0.000 C 
ATOM     25  C   UNL     1      24.100   3.343  50.446  0.00  0.00    +0.000 C 
ENDBRANCH   9  20
BRANCH   2  26
ATOM     26  O   UNL     1      20.416  -1.128  54.592  0.00  0.00    +0.000 OA
ATOM     27  H   UNL     1      19.882  -1.407  53.874  0.00  0.00    +0.000 HD
ENDBRANCH   2  26
BRANCH   4  28
ATOM     28  O   UNL     1      24.997  -1.663  55.793  0.00  0.00    +0.000 OA
ATOM     29  H   UNL     1      25.104  -1.364  56.675  0.00  0.00    +0.000 HD
ENDBRANCH   4  28
TORSDOF 4
ENDMDL
MODEL 5
REMARK VINA RESULT:    -8.560      2.541      6.291
REMARK INTER + INTRA:         -10.990
REMARK INTER:                 -10.087
REMARK INTRA:                  -0.903
REMARK UNBOUND:                -0.929
REMARK  Name = 
REMARK  5 active torsions:
REMARK  status: ('A' for Active; 'I' for Inactive)
REMARK    1  A    between atoms: C_1  and  N_2
REMARK    2  A    between atoms: C_5  and  C_6
REMARK    3  A    between atoms: C_7  and  O_8
REMARK    4  A    between atoms: C_10  and  O_11
REMARK    5  A    between atoms: C_16  and  C_17
REMARK                            x       y       z     vdW  Elec       q    Type
REMARK                         _______ _______ _______ _____ _____    ______ ____
ROOT
ATOM      1  C   UNL     1      25.141   2.094  51.997  0.00  0.00    +0.000 A 
ATOM      2  C   UNL     1      26.533   2.206  52.122  0.00  0.00    +0.000 A 
ATOM      3  C   UNL     1      27.245   1.377  52.988  0.00  0.00    +0.000 A 
ATOM      4  C   UNL     1      26.563   0.423  53.750  0.00  0.00    +0.000 A 
ATOM      5  C   UNL     1      25.173   0.295  53.656  0.00  0.00    +0.000 A 
ATOM      6  C   UNL     1      24.398  -0.685  54.452  0.00  0.00    +0.000 A 
ATOM      7  O   UNL     1      24.892  -1.511  55.212  0.00  0.00    +0.000 OA
ATOM      8  C   UNL     1      22.935  -0.642  54.312  0.00  0.00    +0.000 A 
ATOM      9  C   UNL     1      22.374   0.211  53.445  0.00  0.00    +0.000 A 
ATOM     10  O   UNL     1      23.101   1.065  52.640  0.00  0.00    +0.000 OA
ATOM     11  C   UNL     1      24.469   1.131  52.780  0.00  0.00    +0.000 A 
ENDROOT
BRANCH   1  16
ATOM     12  C   UNL     1      23.393   5.906  48.324  0.00  0.00    +0.000 C 
ATOM     13  N   UNL     1      23.088   4.807  49.223  0.00  0.00    +0.000 N 
ATOM     14  C   UNL     1      23.562   3.506  48.787  0.00  0.00    +0.000 C 
ATOM     15  C   UNL     1      24.233   2.640  49.797  0.00  0.00    +0.000 C 
ATOM     16  C   UNL     1      24.380   2.970  51.086  0.00  0.00    +0.000 C 
ATOM     17  C   UNL     1      23.843   4.248  51.644  0.00  0.00    +0.000 C 
ATOM     18  C   UNL     1      23.118   5.163  50.638  0.00  0.00    +0.000 C 
ATOM     19  H   UNL     1      22.090   4.619  49.133  0.00  0.00    +0.000 HD
ENDBRANCH   1  16
BRANCH   9  20
ATOM     20  C   UNL     1      20.876   0.324  53.282  0.00  0.00    +0.000 C 
ATOM     21  C   UNL     1      20.180  -1.025  53.529  0.00  0.00    +0.000 C 
ATOM     22  C   UNL     1      18.673  -0.929  53.298  0.00  0.00    +0.000 C 
ATOM     23  C   UNL     1      18.357  -0.394  51.905  0.00  0.00    +0.000 C 
ATOM     24  C   UNL     1      19.024   0.957  51.665  0.00  0.00    +0.000 C 
ATOM     25  C   UNL     1      20.531   0.884  51.890  0.00  0.00    +0.000 C 
ENDBRANCH   9  20
BRANCH   2  26
ATOM     26  O   UNL     1      27.201   3.143  51.379  0.00  0.00    +0.000 OA
ATOM     27  H   UNL     1      27.311   4.012  51.712  0.00  0.00    +0.000 HD
ENDBRANCH   2  26
BRANCH   4  28
ATOM     28  O   UNL     1      27.281  -0.375  54.594  0.00  0.00    +0.000 OA
ATOM     29  H   UNL     1      27.264  -1.306  54.486  0.00  0.00    +0.000 HD
ENDBRANCH   4  28
TORSDOF 4
ENDMDL
MODEL 6
REMARK VINA RESULT:    -8.441      2.245      5.780
REMARK INTER + INTRA:         -10.851
REMARK INTER:                  -9.981
REMARK INTRA:                  -0.869
REMARK UNBOUND:                -0.929
REMARK  Name = 
REMARK  5 active torsions:
REMARK  status: ('A' for Active; 'I' for Inactive)
REMARK    1  A    between atoms: C_1  and  N_2
REMARK    2  A    between atoms: C_5  and  C_6
REMARK    3  A    between atoms: C_7  and  O_8
REMARK    4  A    between atoms: C_10  and  O_11
REMARK    5  A    between atoms: C_16  and  C_17
REMARK                            x       y       z     vdW  Elec       q    Type
REMARK                         _______ _______ _______ _____ _____    ______ ____
ROOT
ATOM      1  C   UNL     1      23.116   2.805  51.047  0.00  0.00    +0.000 A 
ATOM      2  C   UNL     1      21.898   2.716  50.357  0.00  0.00    +0.000 A 
ATOM      3  C   UNL     1      21.018   1.659  50.589  0.00  0.00    +0.000 A 
ATOM      4  C   UNL     1      21.353   0.669  51.517  0.00  0.00    +0.000 A 
ATOM      5  C   UNL     1      22.567   0.725  52.213  0.00  0.00    +0.000 A 
ATOM      6  C   UNL     1      22.981  -0.306  53.194  0.00  0.00    +0.000 A 
ATOM      7  O   UNL     1      22.290  -1.259  53.536  0.00  0.00    +0.000 OA
ATOM      8  C   UNL     1      24.322  -0.160  53.779  0.00  0.00    +0.000 A 
ATOM      9  C   UNL     1      25.073   0.904  53.466  0.00  0.00    +0.000 A 
ATOM     10  O   UNL     1      24.653   1.908  52.618  0.00  0.00    +0.000 OA
ATOM     11  C   UNL     1      23.442   1.792  51.974  0.00  0.00    +0.000 A 
ENDROOT
BRANCH   1  16
ATOM     12  C   UNL     1      25.874   7.280  49.193  0.00  0.00    +0.000 C 
ATOM     13  N   UNL     1      25.763   6.188  50.142  0.00  0.00    +0.000 N 
ATOM     14  C   UNL     1      24.686   6.315  51.106  0.00  0.00    +0.000 C 
ATOM     15  C   UNL     1      23.844   5.113  51.366  0.00  0.00    +0.000 C 
ATOM     16  C   UNL     1      24.055   3.917  50.805  0.00  0.00    +0.000 C 
ATOM     17  C   UNL     1      25.195   3.668  49.871  0.00  0.00    +0.000 C 
ATOM     18  C   UNL     1      26.106   4.880  49.593  0.00  0.00    +0.000 C 
ATOM     19  H   UNL     1      26.538   6.286  50.799  0.00  0.00    +0.000 HD
ENDBRANCH   1  16
BRANCH   9  20
ATOM     20  C   UNL     1      26.471   1.091  54.009  0.00  0.00    +0.000 C 
ATOM     21  C   UNL     1      27.255   2.134  53.194  0.00  0.00    +0.000 C 
ATOM     22  C   UNL     1      28.690   2.276  53.699  0.00  0.00    +0.000 C 
ATOM     23  C   UNL     1      29.411   0.931  53.710  0.00  0.00    +0.000 C 
ATOM     24  C   UNL     1      28.650  -0.099  54.540  0.00  0.00    +0.000 C 
ATOM     25  C   UNL     1      27.213  -0.257  54.052  0.00  0.00    +0.000 C 
ENDBRANCH   9  20
BRANCH   2  26
ATOM     26  O   UNL     1      21.571   3.682  49.444  0.00  0.00    +0.000 OA
ATOM     27  H   UNL     1      22.038   3.739  48.634  0.00  0.00    +0.000 HD
ENDBRANCH   2  26
BRANCH   4  28
ATOM     28  O   UNL     1      20.477  -0.357  51.724  0.00  0.00    +0.000 OA
ATOM     29  H   UNL     1      20.785  -1.174  52.067  0.00  0.00    +0.000 HD
ENDBRANCH   4  28
TORSDOF 4
ENDMDL
MODEL 7
REMARK VINA RESULT:    -7.973      3.355      7.737
REMARK INTER + INTRA:         -10.301
REMARK INTER:                  -9.378
REMARK INTRA:                  -0.923
REMARK UNBOUND:                -0.929
REMARK  Name = 
REMARK  5 active torsions:
REMARK  status: ('A' for Active; 'I' for Inactive)
REMARK    1  A    between atoms: C_1  and  N_2
REMARK    2  A    between atoms: C_5  and  C_6
REMARK    3  A    between atoms: C_7  and  O_8
REMARK    4  A    between atoms: C_10  and  O_11
REMARK    5  A    between atoms: C_16  and  C_17
REMARK                            x       y       z     vdW  Elec       q    Type
REMARK                         _______ _______ _______ _____ _____    ______ ____
ROOT
ATOM      1  C   UNL     1      23.134   3.635  49.968  0.00  0.00    +0.000 A 
ATOM      2  C   UNL     1      23.842   4.486  49.107  0.00  0.00    +0.000 A 
ATOM      3  C   UNL     1      25.234   4.554  49.150  0.00  0.00    +0.000 A 
ATOM      4  C   UNL     1      25.938   3.770  50.069  0.00  0.00    +0.000 A 
ATOM      5  C   UNL     1      25.259   2.920  50.949  0.00  0.00    +0.000 A 
ATOM      6  C   UNL     1      25.952   2.080  51.954  0.00  0.00    +0.000 A 
ATOM      7  O   UNL     1      27.170   1.998  52.072  0.00  0.00    +0.000 OA
ATOM      8  C   UNL     1      25.101   1.305  52.869  0.00  0.00    +0.000 A 
ATOM      9  C   UNL     1      23.769   1.332  52.723  0.00  0.00    +0.000 A 
ATOM     10  O   UNL     1      23.127   2.048  51.732  0.00  0.00    +0.000 OA
ATOM     11  C   UNL     1      23.861   2.857  50.894  0.00  0.00    +0.000 A 
ENDROOT
BRANCH   1  16
ATOM     12  C   UNL     1      17.729   2.532  50.767  0.00  0.00    +0.000 C 
ATOM     13  N   UNL     1      18.762   3.254  50.046  0.00  0.00    +0.000 N 
ATOM     14  C   UNL     1      19.438   4.286  50.808  0.00  0.00    +0.000 C 
ATOM     15  C   UNL     1      20.924   4.356  50.713  0.00  0.00    +0.000 C 
ATOM     16  C   UNL     1      21.661   3.560  49.931  0.00  0.00    +0.000 C 
ATOM     17  C   UNL     1      21.044   2.528  49.042  0.00  0.00    +0.000 C 
ATOM     18  C   UNL     1      19.506   2.439  49.091  0.00  0.00    +0.000 C 
ATOM     19  H   UNL     1      18.287   3.869  49.385  0.00  0.00    +0.000 HD
ENDBRANCH   1  16
BRANCH   9  20
ATOM     20  C   UNL     1      22.842   0.584  53.653  0.00  0.00    +0.000 C 
ATOM     21  C   UNL     1      23.488  -0.714  54.165  0.00  0.00    +0.000 C 
ATOM     22  C   UNL     1      22.527  -1.506  55.051  0.00  0.00    +0.000 C 
ATOM     23  C   UNL     1      21.214  -1.792  54.330  0.00  0.00    +0.000 C 
ATOM     24  C   UNL     1      20.556  -0.504  53.843  0.00  0.00    +0.000 C 
ATOM     25  C   UNL     1      21.499   0.303  52.955  0.00  0.00    +0.000 C 
ENDBRANCH   9  20
BRANCH   2  26
ATOM     26  O   UNL     1      23.154   5.258  48.209  0.00  0.00    +0.000 OA
ATOM     27  H   UNL     1      22.806   6.087  48.475  0.00  0.00    +0.000 HD
ENDBRANCH   2  26
BRANCH   4  28
ATOM     28  O   UNL     1      27.300   3.857  50.095  0.00  0.00    +0.000 OA
ATOM     29  H   UNL     1      27.714   4.627  50.434  0.00  0.00    +0.000 HD
ENDBRANCH   4  28
TORSDOF 4
ENDMDL
MODEL 8
REMARK VINA RESULT:    -7.796      3.087      6.962
REMARK INTER + INTRA:         -10.092
REMARK INTER:                  -9.214
REMARK INTRA:                  -0.878
REMARK UNBOUND:                -0.929
REMARK  Name = 
REMARK  5 active torsions:
REMARK  status: ('A' for Active; 'I' for Inactive)
REMARK    1  A    between atoms: C_1  and  N_2
REMARK    2  A    between atoms: C_5  and  C_6
REMARK    3  A    between atoms: C_7  and  O_8
REMARK    4  A    between atoms: C_10  and  O_11
REMARK    5  A    between atoms: C_16  and  C_17
REMARK                            x       y       z     vdW  Elec       q    Type
REMARK                         _______ _______ _______ _____ _____    ______ ____
ROOT
ATOM      1  C   UNL     1      22.625   3.423  50.158  0.00  0.00    +0.000 A 
ATOM      2  C   UNL     1      21.890   4.419  49.498  0.00  0.00    +0.000 A 
ATOM      3  C   UNL     1      22.533   5.426  48.778  0.00  0.00    +0.000 A 
ATOM      4  C   UNL     1      23.929   5.450  48.716  0.00  0.00    +0.000 A 
ATOM      5  C   UNL     1      24.689   4.476  49.374  0.00  0.00    +0.000 A 
ATOM      6  C   UNL     1      26.171   4.464  49.356  0.00  0.00    +0.000 A 
ATOM      7  O   UNL     1      26.867   5.252  48.724  0.00  0.00    +0.000 OA
ATOM      8  C   UNL     1      26.833   3.431  50.167  0.00  0.00    +0.000 A 
ATOM      9  C   UNL     1      26.096   2.523  50.819  0.00  0.00    +0.000 A 
ATOM     10  O   UNL     1      24.717   2.482  50.767  0.00  0.00    +0.000 OA
ATOM     11  C   UNL     1      24.034   3.468  50.091  0.00  0.00    +0.000 A 
ENDROOT
BRANCH   1  16
ATOM     12  C   UNL     1      19.050  -0.142  52.521  0.00  0.00    +0.000 C 
ATOM     13  N   UNL     1      20.414   0.323  52.342  0.00  0.00    +0.000 N 
ATOM     14  C   UNL     1      20.989   0.055  51.037  0.00  0.00    +0.000 C 
ATOM     15  C   UNL     1      21.738   1.158  50.371  0.00  0.00    +0.000 C 
ATOM     16  C   UNL     1      21.953   2.357  50.926  0.00  0.00    +0.000 C 
ATOM     17  C   UNL     1      21.477   2.692  52.302  0.00  0.00    +0.000 C 
ATOM     18  C   UNL     1      20.718   1.569  53.037  0.00  0.00    +0.000 C 
ATOM     19  H   UNL     1      21.013  -0.303  52.880  0.00  0.00    +0.000 HD
ENDBRANCH   1  16
BRANCH   9  20
ATOM     20  C   UNL     1      26.717   1.459  51.694  0.00  0.00    +0.000 C 
ATOM     21  C   UNL     1      25.645   0.551  52.322  0.00  0.00    +0.000 C 
ATOM     22  C   UNL     1      26.266  -0.483  53.260  0.00  0.00    +0.000 C 
ATOM     23  C   UNL     1      27.120   0.183  54.334  0.00  0.00    +0.000 C 
ATOM     24  C   UNL     1      28.202   1.064  53.715  0.00  0.00    +0.000 C 
ATOM     25  C   UNL     1      27.604   2.105  52.773  0.00  0.00    +0.000 C 
ENDBRANCH   9  20
BRANCH   2  26
ATOM     26  O   UNL     1      20.522   4.400  49.562  0.00  0.00    +0.000 OA
ATOM     27  H   UNL     1      20.024   4.084  48.835  0.00  0.00    +0.000 HD
ENDBRANCH   2  26
BRANCH   4  28
ATOM     28  O   UNL     1      24.535   6.447  48.007  0.00  0.00    +0.000 OA
ATOM     29  H   UNL     1      24.438   7.340  48.279  0.00  0.00    +0.000 HD
ENDBRANCH   4  28
TORSDOF 4
ENDMDL
MODEL 9
REMARK VINA RESULT:    -7.341      2.703      6.412
REMARK INTER + INTRA:          -9.558
REMARK INTER:                  -8.649
REMARK INTRA:                  -0.909
REMARK UNBOUND:                -0.929
REMARK  Name = 
REMARK  5 active torsions:
REMARK  status: ('A' for Active; 'I' for Inactive)
REMARK    1  A    between atoms: C_1  and  N_2
REMARK    2  A    between atoms: C_5  and  C_6
REMARK    3  A    between atoms: C_7  and  O_8
REMARK    4  A    between atoms: C_10  and  O_11
REMARK    5  A    between atoms: C_16  and  C_17
REMARK                            x       y       z     vdW  Elec       q    Type
REMARK                         _______ _______ _______ _____ _____    ______ ____
ROOT
ATOM      1  C   UNL     1      21.828   3.418  49.809  0.00  0.00    +0.000 A 
ATOM      2  C   UNL     1      20.971   3.730  48.744  0.00  0.00    +0.000 A 
ATOM      3  C   UNL     1      19.789   3.019  48.541  0.00  0.00    +0.000 A 
ATOM      4  C   UNL     1      19.452   1.974  49.408  0.00  0.00    +0.000 A 
ATOM      5  C   UNL     1      20.293   1.632  50.473  0.00  0.00    +0.000 A 
ATOM      6  C   UNL     1      19.994   0.524  51.410  0.00  0.00    +0.000 A 
ATOM      7  O   UNL     1      18.971  -0.151  51.387  0.00  0.00    +0.000 OA
ATOM      8  C   UNL     1      21.014   0.225  52.426  0.00  0.00    +0.000 A 
ATOM      9  C   UNL     1      22.114   0.984  52.509  0.00  0.00    +0.000 A 
ATOM     10  O   UNL     1      22.352   2.070  51.691  0.00  0.00    +0.000 OA
ATOM     11  C   UNL     1      21.476   2.355  50.668  0.00  0.00    +0.000 A 
ENDROOT
BRANCH   1  16
ATOM     12  C   UNL     1      26.184   6.892  49.637  0.00  0.00    +0.000 C 
ATOM     13  N   UNL     1      25.500   5.779  50.269  0.00  0.00    +0.000 N 
ATOM     14  C   UNL     1      24.289   6.127  50.989  0.00  0.00    +0.000 C 
ATOM     15  C   UNL     1      23.092   5.263  50.788  0.00  0.00    +0.000 C 
ATOM     16  C   UNL     1      23.083   4.163  50.027  0.00  0.00    +0.000 C 
ATOM     17  C   UNL     1      24.307   3.676  49.322  0.00  0.00    +0.000 C 
ATOM     18  C   UNL     1      25.576   4.527  49.523  0.00  0.00    +0.000 C 
ATOM     19  H   UNL     1      26.059   5.509  51.078  0.00  0.00    +0.000 HD
ENDBRANCH   1  16
BRANCH   9  20
ATOM     20  C   UNL     1      23.213   0.705  53.510  0.00  0.00    +0.000 C 
ATOM     21  C   UNL     1      24.598   1.036  52.929  0.00  0.00    +0.000 C 
ATOM     22  C   UNL     1      25.715   0.691  53.913  0.00  0.00    +0.000 C 
ATOM     23  C   UNL     1      25.636  -0.767  54.354  0.00  0.00    +0.000 C 
ATOM     24  C   UNL     1      24.272  -1.092  54.955  0.00  0.00    +0.000 C 
ATOM     25  C   UNL     1      23.141  -0.755  53.988  0.00  0.00    +0.000 C 
ENDBRANCH   9  20
BRANCH   2  26
ATOM     26  O   UNL     1      21.302   4.750  47.891  0.00  0.00    +0.000 OA
ATOM     27  H   UNL     1      22.021   4.650  47.298  0.00  0.00    +0.000 HD
ENDBRANCH   2  26
BRANCH   4  28
ATOM     28  O   UNL     1      18.291   1.291  49.188  0.00  0.00    +0.000 OA
ATOM     29  H   UNL     1      18.191   0.418  49.518  0.00  0.00    +0.000 HD
ENDBRANCH   4  28
TORSDOF 4
ENDMDL
