MODEL 1
REMARK VINA RESULT:    -8.644      0.000      0.000
REMARK INTER + INTRA:         -14.349
REMARK INTER:                 -13.192
REMARK INTRA:                  -1.157
REMARK UNBOUND:                -1.157
REMARK  Name = 
REMARK  13 active torsions:
REMARK  status: ('A' for Active; 'I' for Inactive)
REMARK    1  A    between atoms: C_1  and  C_2
REMARK    2  A    between atoms: C_2  and  C_3
REMARK    3  A    between atoms: C_3  and  C_4
REMARK    4  A    between atoms: C_5  and  C_6
REMARK    5  A    between atoms: C_6  and  O_8
REMARK    6  A    between atoms: O_8  and  C_9
REMARK    7  A    between atoms: C_9  and  C_10
REMARK    8  A    between atoms: C_9  and  C_15
REMARK    9  A    between atoms: C_10  and  C_11
REMARK   10  A    between atoms: C_12  and  C_13
REMARK   11  A    between atoms: C_12  and  C_14
REMARK   12  A    between atoms: C_20  and  O_21
REMARK   13  A    between atoms: C_24  and  O_25
REMARK                            x       y       z     vdW  Elec       q    Type
REMARK                         _______ _______ _______ _____ _____    ______ ____
ROOT
ATOM      1  C   UNL     1      25.529   1.193  52.439  0.00  0.00    +0.000 C 
ATOM      2  C   UNL     1      26.466   2.116  52.704  0.00  0.00    +0.000 C 
ATOM      3  C   UNL     1      27.823   1.795  53.184  0.00  0.00    +0.000 C 
ATOM      4  O   UNL     1      28.600   2.685  53.525  0.00  0.00    +0.000 OA
ATOM      5  C   UNL     1      28.230   0.386  53.224  0.00  0.00    +0.000 A 
ATOM      6  C   UNL     1      29.530   0.032  53.618  0.00  0.00    +0.000 A 
ATOM      7  C   UNL     1      29.932  -1.301  53.610  0.00  0.00    +0.000 A 
ATOM      8  C   UNL     1      29.052  -2.284  53.167  0.00  0.00    +0.000 A 
ATOM      9  C   UNL     1      27.757  -1.931  52.780  0.00  0.00    +0.000 A 
ATOM     10  C   UNL     1      27.319  -0.601  52.854  0.00  0.00    +0.000 A 
ATOM     11  C   UNL     1      25.892  -0.244  52.648  0.00  0.00    +0.000 C 
ATOM     12  O   UNL     1      25.021  -1.096  52.740  0.00  0.00    +0.000 OA
ENDROOT
BRANCH   6  13
ATOM     13  O   UNL     1      30.465   0.939  54.038  0.00  0.00    +0.000 OA
ATOM     14  H   UNL     1      30.208   1.662  54.575  0.00  0.00    +0.000 HD
ENDBRANCH   6  13
BRANCH   9  15
ATOM     15  O   UNL     1      26.938  -2.904  52.281  0.00  0.00    +0.000 OA
ATOM     16  H   UNL     1      27.164  -3.807  52.388  0.00  0.00    +0.000 HD
ENDBRANCH   9  15
BRANCH   1  17
ATOM     17  C   UNL     1      24.061   1.484  52.101  0.00  0.00    +0.000 C 
BRANCH  17  18
ATOM     18  O   UNL     1      23.917   2.815  51.499  0.00  0.00    +0.000 OA
BRANCH  18  19
ATOM     19  C   UNL     1      23.846   2.828  50.139  0.00  0.00    +0.000 C 
ATOM     20  O   UNL     1      23.064   2.168  49.464  0.00  0.00    +0.000 OA
BRANCH  19  22
ATOM     21  C   UNL     1      26.057   4.020  49.574  0.00  0.00    +0.000 C 
ATOM     22  C   UNL     1      24.734   3.814  49.465  0.00  0.00    +0.000 C 
BRANCH  21  23
ATOM     23  C   UNL     1      26.742   5.187  48.893  0.00  0.00    +0.000 C 
BRANCH  23  25
ATOM     24  C   UNL     1      28.984   6.258  48.252  0.00  0.00    +0.000 C 
ATOM     25  C   UNL     1      28.190   4.973  48.427  0.00  0.00    +0.000 C 
ENDBRANCH  23  25
ENDBRANCH  21  23
ENDBRANCH  19  22
ENDBRANCH  18  19
ENDBRANCH  17  18
BRANCH  17  26
ATOM     26  C   UNL     1      23.037   1.442  53.274  0.00  0.00    +0.000 C 
BRANCH  26  27
ATOM     27  C   UNL     1      21.677   0.835  52.999  0.00  0.00    +0.000 C 
ATOM     28  C   UNL     1      21.090  -0.188  53.658  0.00  0.00    +0.000 C 
ATOM     29  C   UNL     1      19.708  -0.672  53.287  0.00  0.00    +0.000 C 
ATOM     30  C   UNL     1      21.693  -0.928  54.822  0.00  0.00    +0.000 C 
ENDBRANCH  26  27
ENDBRANCH  17  26
ENDBRANCH   1  17
TORSDOF 10
ENDMDL
MODEL 2
REMARK VINA RESULT:    -8.434      1.342      2.725
REMARK INTER + INTRA:         -14.028
REMARK INTER:                 -12.953
REMARK INTRA:                  -1.075
REMARK UNBOUND:                -1.157
REMARK  Name = 
REMARK  13 active torsions:
REMARK  status: ('A' for Active; 'I' for Inactive)
REMARK    1  A    between atoms: C_1  and  C_2
REMARK    2  A    between atoms: C_2  and  C_3
REMARK    3  A    between atoms: C_3  and  C_4
REMARK    4  A    between atoms: C_5  and  C_6
REMARK    5  A    between atoms: C_6  and  O_8
REMARK    6  A    between atoms: O_8  and  C_9
REMARK    7  A    between atoms: C_9  and  C_10
REMARK    8  A    between atoms: C_9  and  C_15
REMARK    9  A    between atoms: C_10  and  C_11
REMARK   10  A    between atoms: C_12  and  C_13
REMARK   11  A    between atoms: C_12  and  C_14
REMARK   12  A    between atoms: C_20  and  O_21
REMARK   13  A    between atoms: C_24  and  O_25
REMARK                            x       y       z     vdW  Elec       q    Type
REMARK                         _______ _______ _______ _____ _____    ______ ____
ROOT
ATOM      1  C   UNL     1      25.582   0.882  52.210  0.00  0.00    +0.000 C 
ATOM      2  C   UNL     1      25.532  -0.459  52.208  0.00  0.00    +0.000 C 
ATOM      3  C   UNL     1      26.686  -1.325  52.510  0.00  0.00    +0.000 C 
ATOM      4  O   UNL     1      26.615  -2.545  52.375  0.00  0.00    +0.000 OA
ATOM      5  C   UNL     1      27.919  -0.695  52.996  0.00  0.00    +0.000 A 
ATOM      6  C   UNL     1      29.027  -1.479  53.352  0.00  0.00    +0.000 A 
ATOM      7  C   UNL     1      30.180  -0.886  53.859  0.00  0.00    +0.000 A 
ATOM      8  C   UNL     1      30.217   0.492  54.054  0.00  0.00    +0.000 A 
ATOM      9  C   UNL     1      29.116   1.272  53.694  0.00  0.00    +0.000 A 
ATOM     10  C   UNL     1      27.979   0.692  53.115  0.00  0.00    +0.000 A 
ATOM     11  C   UNL     1      26.892   1.526  52.538  0.00  0.00    +0.000 C 
ATOM     12  O   UNL     1      27.097   2.696  52.251  0.00  0.00    +0.000 OA
ENDROOT
BRANCH   6  13
ATOM     13  O   UNL     1      29.061  -2.841  53.220  0.00  0.00    +0.000 OA
ATOM     14  H   UNL     1      28.329  -3.357  53.496  0.00  0.00    +0.000 HD
ENDBRANCH   6  13
BRANCH   9  15
ATOM     15  O   UNL     1      29.151   2.612  53.963  0.00  0.00    +0.000 OA
ATOM     16  H   UNL     1      28.353   3.084  54.095  0.00  0.00    +0.000 HD
ENDBRANCH   9  15
BRANCH   1  17
ATOM     17  C   UNL     1      24.460   1.817  51.743  0.00  0.00    +0.000 C 
BRANCH  17  18
ATOM     18  O   UNL     1      24.287   2.935  52.679  0.00  0.00    +0.000 OA
BRANCH  18  19
ATOM     19  C   UNL     1      23.864   4.099  52.114  0.00  0.00    +0.000 C 
ATOM     20  O   UNL     1      23.144   4.930  52.658  0.00  0.00    +0.000 OA
BRANCH  19  22
ATOM     21  C   UNL     1      25.225   5.396  50.356  0.00  0.00    +0.000 C 
ATOM     22  C   UNL     1      24.428   4.397  50.770  0.00  0.00    +0.000 C 
BRANCH  21  23
ATOM     23  C   UNL     1      25.567   5.589  48.893  0.00  0.00    +0.000 C 
BRANCH  23  25
ATOM     24  C   UNL     1      28.072   5.197  48.490  0.00  0.00    +0.000 C 
ATOM     25  C   UNL     1      26.937   6.206  48.571  0.00  0.00    +0.000 C 
ENDBRANCH  23  25
ENDBRANCH  21  23
ENDBRANCH  19  22
ENDBRANCH  18  19
ENDBRANCH  17  18
BRANCH  17  26
ATOM     26  C   UNL     1      23.042   1.196  51.567  0.00  0.00    +0.000 C 
BRANCH  26  27
ATOM     27  C   UNL     1      22.147   1.129  52.788  0.00  0.00    +0.000 C 
ATOM     28  C   UNL     1      21.820   0.030  53.502  0.00  0.00    +0.000 C 
ATOM     29  C   UNL     1      20.933   0.120  54.722  0.00  0.00    +0.000 C 
ATOM     30  C   UNL     1      22.304  -1.366  53.214  0.00  0.00    +0.000 C 
ENDBRANCH  26  27
ENDBRANCH  17  26
ENDBRANCH   1  17
TORSDOF 10
ENDMDL
MODEL 3
REMARK VINA RESULT:    -8.053      2.199      3.815
REMARK INTER + INTRA:         -13.446
REMARK INTER:                 -11.910
REMARK INTRA:                  -1.536
REMARK UNBOUND:                -1.157
REMARK  Name = 
REMARK  13 active torsions:
REMARK  status: ('A' for Active; 'I' for Inactive)
REMARK    1  A    between atoms: C_1  and  C_2
REMARK    2  A    between atoms: C_2  and  C_3
REMARK    3  A    between atoms: C_3  and  C_4
REMARK    4  A    between atoms: C_5  and  C_6
REMARK    5  A    between atoms: C_6  and  O_8
REMARK    6  A    between atoms: O_8  and  C_9
REMARK    7  A    between atoms: C_9  and  C_10
REMARK    8  A    between atoms: C_9  and  C_15
REMARK    9  A    between atoms: C_10  and  C_11
REMARK   10  A    between atoms: C_12  and  C_13
REMARK   11  A    between atoms: C_12  and  C_14
REMARK   12  A    between atoms: C_20  and  O_21
REMARK   13  A    between atoms: C_24  and  O_25
REMARK                            x       y       z     vdW  Elec       q    Type
REMARK                         _______ _______ _______ _____ _____    ______ ____
ROOT
ATOM      1  C   UNL     1      24.803   2.536  51.275  0.00  0.00    +0.000 C 
ATOM      2  C   UNL     1      24.026   1.659  51.928  0.00  0.00    +0.000 C 
ATOM      3  C   UNL     1      24.528   0.705  52.935  0.00  0.00    +0.000 C 
ATOM      4  O   UNL     1      23.793  -0.156  53.413  0.00  0.00    +0.000 OA
ATOM      5  C   UNL     1      25.925   0.824  53.367  0.00  0.00    +0.000 A 
ATOM      6  C   UNL     1      26.436  -0.022  54.364  0.00  0.00    +0.000 A 
ATOM      7  C   UNL     1      27.748   0.122  54.809  0.00  0.00    +0.000 A 
ATOM      8  C   UNL     1      28.543   1.140  54.292  0.00  0.00    +0.000 A 
ATOM      9  C   UNL     1      28.035   1.978  53.296  0.00  0.00    +0.000 A 
ATOM     10  C   UNL     1      26.741   1.795  52.789  0.00  0.00    +0.000 A 
ATOM     11  C   UNL     1      26.265   2.537  51.593  0.00  0.00    +0.000 C 
ATOM     12  O   UNL     1      27.065   3.061  50.832  0.00  0.00    +0.000 OA
ENDROOT
BRANCH   6  13
ATOM     13  O   UNL     1      25.712  -1.027  54.946  0.00  0.00    +0.000 OA
ATOM     14  H   UNL     1      24.976  -1.393  54.497  0.00  0.00    +0.000 HD
ENDBRANCH   6  13
BRANCH   9  15
ATOM     15  O   UNL     1      28.812   3.014  52.857  0.00  0.00    +0.000 OA
ATOM     16  H   UNL     1      29.634   3.190  53.270  0.00  0.00    +0.000 HD
ENDBRANCH   9  15
BRANCH   1  17
ATOM     17  C   UNL     1      24.358   3.426  50.108  0.00  0.00    +0.000 C 
BRANCH  17  18
ATOM     18  O   UNL     1      23.422   4.460  50.567  0.00  0.00    +0.000 OA
BRANCH  18  19
ATOM     19  C   UNL     1      23.952   5.709  50.677  0.00  0.00    +0.000 C 
ATOM     20  O   UNL     1      23.480   6.623  51.346  0.00  0.00    +0.000 OA
BRANCH  19  22
ATOM     21  C   UNL     1      25.633   6.775  49.045  0.00  0.00    +0.000 C 
ATOM     22  C   UNL     1      25.262   5.907  50.000  0.00  0.00    +0.000 C 
BRANCH  21  23
ATOM     23  C   UNL     1      26.997   6.706  48.390  0.00  0.00    +0.000 C 
BRANCH  23  25
ATOM     24  C   UNL     1      29.206   5.433  48.092  0.00  0.00    +0.000 C 
ATOM     25  C   UNL     1      27.728   5.355  48.437  0.00  0.00    +0.000 C 
ENDBRANCH  23  25
ENDBRANCH  21  23
ENDBRANCH  19  22
ENDBRANCH  18  19
ENDBRANCH  17  18
BRANCH  17  26
ATOM     26  C   UNL     1      23.654   2.727  48.907  0.00  0.00    +0.000 C 
BRANCH  26  27
ATOM     27  C   UNL     1      22.174   2.990  48.710  0.00  0.00    +0.000 C 
ATOM     28  C   UNL     1      21.153   2.141  48.960  0.00  0.00    +0.000 C 
ATOM     29  C   UNL     1      19.717   2.554  48.740  0.00  0.00    +0.000 C 
ATOM     30  C   UNL     1      21.301   0.744  49.502  0.00  0.00    +0.000 C 
ENDBRANCH  26  27
ENDBRANCH  17  26
ENDBRANCH   1  17
TORSDOF 10
ENDMDL
MODEL 4
REMARK VINA RESULT:    -7.843      1.798      3.637
REMARK INTER + INTRA:         -13.125
REMARK INTER:                 -12.308
REMARK INTRA:                  -0.817
REMARK UNBOUND:                -1.157
REMARK  Name = 
REMARK  13 active torsions:
REMARK  status: ('A' for Active; 'I' for Inactive)
REMARK    1  A    between atoms: C_1  and  C_2
REMARK    2  A    between atoms: C_2  and  C_3
REMARK    3  A    between atoms: C_3  and  C_4
REMARK    4  A    between atoms: C_5  and  C_6
REMARK    5  A    between atoms: C_6  and  O_8
REMARK    6  A    between atoms: O_8  and  C_9
REMARK    7  A    between atoms: C_9  and  C_10
REMARK    8  A    between atoms: C_9  and  C_15
REMARK    9  A    between atoms: C_10  and  C_11
REMARK   10  A    between atoms: C_12  and  C_13
REMARK   11  A    between atoms: C_12  and  C_14
REMARK   12  A    between atoms: C_20  and  O_21
REMARK   13  A    between atoms: C_24  and  O_25
REMARK                            x       y       z     vdW  Elec       q    Type
REMARK                         _______ _______ _______ _____ _____    ______ ____
ROOT
ATOM      1  C   UNL     1      25.806   0.931  52.269  0.00  0.00    +0.000 C 
ATOM      2  C   UNL     1      25.574  -0.388  52.188  0.00  0.00    +0.000 C 
ATOM      3  C   UNL     1      26.601  -1.420  52.424  0.00  0.00    +0.000 C 
ATOM      4  O   UNL     1      26.363  -2.608  52.218  0.00  0.00    +0.000 OA
ATOM      5  C   UNL     1      27.909  -0.993  52.932  0.00  0.00    +0.000 A 
ATOM      6  C   UNL     1      28.902  -1.940  53.228  0.00  0.00    +0.000 A 
ATOM      7  C   UNL     1      30.127  -1.540  53.755  0.00  0.00    +0.000 A 
ATOM      8  C   UNL     1      30.352  -0.194  54.030  0.00  0.00    +0.000 A 
ATOM      9  C   UNL     1      29.365   0.748  53.731  0.00  0.00    +0.000 A 
ATOM     10  C   UNL     1      28.158   0.364  53.132  0.00  0.00    +0.000 A 
ATOM     11  C   UNL     1      27.193   1.370  52.619  0.00  0.00    +0.000 C 
ATOM     12  O   UNL     1      27.554   2.517  52.398  0.00  0.00    +0.000 OA
ENDROOT
BRANCH   6  13
ATOM     13  O   UNL     1      28.750  -3.284  53.015  0.00  0.00    +0.000 OA
ATOM     14  H   UNL     1      27.900  -3.636  52.838  0.00  0.00    +0.000 HD
ENDBRANCH   6  13
BRANCH   9  15
ATOM     15  O   UNL     1      29.584   2.052  54.077  0.00  0.00    +0.000 OA
ATOM     16  H   UNL     1      29.333   2.740  53.493  0.00  0.00    +0.000 HD
ENDBRANCH   9  15
BRANCH   1  17
ATOM     17  C   UNL     1      24.819   2.036  51.871  0.00  0.00    +0.000 C 
BRANCH  17  18
ATOM     18  O   UNL     1      25.533   3.260  51.486  0.00  0.00    +0.000 OA
BRANCH  18  19
ATOM     19  C   UNL     1      24.868   4.063  50.610  0.00  0.00    +0.000 C 
ATOM     20  O   UNL     1      24.819   5.287  50.668  0.00  0.00    +0.000 OA
BRANCH  19  22
ATOM     21  C   UNL     1      23.020   3.454  48.924  0.00  0.00    +0.000 C 
ATOM     22  C   UNL     1      24.254   3.366  49.447  0.00  0.00    +0.000 C 
BRANCH  21  23
ATOM     23  C   UNL     1      22.558   2.535  47.812  0.00  0.00    +0.000 C 
BRANCH  23  25
ATOM     24  C   UNL     1      21.549   0.897  49.511  0.00  0.00    +0.000 C 
ATOM     25  C   UNL     1      21.426   1.551  48.144  0.00  0.00    +0.000 C 
ENDBRANCH  23  25
ENDBRANCH  21  23
ENDBRANCH  19  22
ENDBRANCH  18  19
ENDBRANCH  17  18
BRANCH  17  26
ATOM     26  C   UNL     1      23.776   2.479  52.941  0.00  0.00    +0.000 C 
BRANCH  26  27
ATOM     27  C   UNL     1      22.343   2.024  52.755  0.00  0.00    +0.000 C 
ATOM     28  C   UNL     1      21.783   0.881  53.210  0.00  0.00    +0.000 C 
ATOM     29  C   UNL     1      20.324   0.571  52.970  0.00  0.00    +0.000 C 
ATOM     30  C   UNL     1      22.497  -0.174  54.011  0.00  0.00    +0.000 C 
ENDBRANCH  26  27
ENDBRANCH  17  26
ENDBRANCH   1  17
TORSDOF 10
ENDMDL
MODEL 5
REMARK VINA RESULT:    -7.841      1.857      5.137
REMARK INTER + INTRA:         -13.123
REMARK INTER:                 -12.391
REMARK INTRA:                  -0.732
REMARK UNBOUND:                -1.157
REMARK  Name = 
REMARK  13 active torsions:
REMARK  status: ('A' for Active; 'I' for Inactive)
REMARK    1  A    between atoms: C_1  and  C_2
REMARK    2  A    between atoms: C_2  and  C_3
REMARK    3  A    between atoms: C_3  and  C_4
REMARK    4  A    between atoms: C_5  and  C_6
REMARK    5  A    between atoms: C_6  and  O_8
REMARK    6  A    between atoms: O_8  and  C_9
REMARK    7  A    between atoms: C_9  and  C_10
REMARK    8  A    between atoms: C_9  and  C_15
REMARK    9  A    between atoms: C_10  and  C_11
REMARK   10  A    between atoms: C_12  and  C_13
REMARK   11  A    between atoms: C_12  and  C_14
REMARK   12  A    between atoms: C_20  and  O_21
REMARK   13  A    between atoms: C_24  and  O_25
REMARK                            x       y       z     vdW  Elec       q    Type
REMARK                         _______ _______ _______ _____ _____    ______ ____
ROOT
ATOM      1  C   UNL     1      25.342   0.833  52.669  0.00  0.00    +0.000 C 
ATOM      2  C   UNL     1      25.325  -0.508  52.621  0.00  0.00    +0.000 C 
ATOM      3  C   UNL     1      26.527  -1.350  52.762  0.00  0.00    +0.000 C 
ATOM      4  O   UNL     1      26.471  -2.566  52.589  0.00  0.00    +0.000 OA
ATOM      5  C   UNL     1      27.789  -0.702  53.134  0.00  0.00    +0.000 A 
ATOM      6  C   UNL     1      28.950  -1.466  53.336  0.00  0.00    +0.000 A 
ATOM      7  C   UNL     1      30.136  -0.857  53.737  0.00  0.00    +0.000 A 
ATOM      8  C   UNL     1      30.160   0.513  53.979  0.00  0.00    +0.000 A 
ATOM      9  C   UNL     1      29.006   1.273  53.772  0.00  0.00    +0.000 A 
ATOM     10  C   UNL     1      27.827   0.682  53.299  0.00  0.00    +0.000 A 
ATOM     11  C   UNL     1      26.663   1.503  52.877  0.00  0.00    +0.000 C 
ATOM     12  O   UNL     1      26.806   2.688  52.613  0.00  0.00    +0.000 OA
ENDROOT
BRANCH   6  13
ATOM     13  O   UNL     1      29.003  -2.821  53.150  0.00  0.00    +0.000 OA
ATOM     14  H   UNL     1      28.732  -3.399  53.836  0.00  0.00    +0.000 HD
ENDBRANCH   6  13
BRANCH   9  15
ATOM     15  O   UNL     1      29.038   2.603  54.086  0.00  0.00    +0.000 OA
ATOM     16  H   UNL     1      29.304   3.230  53.443  0.00  0.00    +0.000 HD
ENDBRANCH   9  15
BRANCH   1  17
ATOM     17  C   UNL     1      24.152   1.751  52.364  0.00  0.00    +0.000 C 
BRANCH  17  18
ATOM     18  O   UNL     1      23.982   1.924  50.916  0.00  0.00    +0.000 OA
BRANCH  18  19
ATOM     19  C   UNL     1      22.752   1.591  50.436  0.00  0.00    +0.000 C 
ATOM     20  O   UNL     1      22.335   1.853  49.313  0.00  0.00    +0.000 OA
BRANCH  19  22
ATOM     21  C   UNL     1      20.831   1.058  52.065  0.00  0.00    +0.000 C 
ATOM     22  C   UNL     1      21.921   0.752  51.341  0.00  0.00    +0.000 C 
BRANCH  21  23
ATOM     23  C   UNL     1      20.220   0.075  53.041  0.00  0.00    +0.000 C 
BRANCH  23  25
ATOM     24  C   UNL     1      21.996  -0.820  54.664  0.00  0.00    +0.000 C 
ATOM     25  C   UNL     1      20.780   0.072  54.472  0.00  0.00    +0.000 C 
ENDBRANCH  23  25
ENDBRANCH  21  23
ENDBRANCH  19  22
ENDBRANCH  18  19
ENDBRANCH  17  18
BRANCH  17  26
ATOM     26  C   UNL     1      24.193   3.193  52.955  0.00  0.00    +0.000 C 
BRANCH  26  27
ATOM     27  C   UNL     1      23.082   4.145  52.562  0.00  0.00    +0.000 C 
ATOM     28  C   UNL     1      23.136   5.126  51.634  0.00  0.00    +0.000 C 
ATOM     29  C   UNL     1      21.933   5.985  51.327  0.00  0.00    +0.000 C 
ATOM     30  C   UNL     1      24.340   5.456  50.792  0.00  0.00    +0.000 C 
ENDBRANCH  26  27
ENDBRANCH  17  26
ENDBRANCH   1  17
TORSDOF 10
ENDMDL
MODEL 6
REMARK VINA RESULT:    -7.798      2.800      6.998
REMARK INTER + INTRA:         -13.058
REMARK INTER:                 -11.595
REMARK INTRA:                  -1.463
REMARK UNBOUND:                -1.157
REMARK  Name = 
REMARK  13 active torsions:
REMARK  status: ('A' for Active; 'I' for Inactive)
REMARK    1  A    between atoms: C_1  and  C_2
REMARK    2  A    between atoms: C_2  and  C_3
REMARK    3  A    between atoms: C_3  and  C_4
REMARK    4  A    between atoms: C_5  and  C_6
REMARK    5  A    between atoms: C_6  and  O_8
REMARK    6  A    between atoms: O_8  and  C_9
REMARK    7  A    between atoms: C_9  and  C_10
REMARK    8  A    between atoms: C_9  and  C_15
REMARK    9  A    between atoms: C_10  and  C_11
REMARK   10  A    between atoms: C_12  and  C_13
REMARK   11  A    between atoms: C_12  and  C_14
REMARK   12  A    between atoms: C_20  and  O_21
REMARK   13  A    between atoms: C_24  and  O_25
REMARK                            x       y       z     vdW  Elec       q    Type
REMARK                         _______ _______ _______ _____ _____    ______ ____
ROOT
ATOM      1  C   UNL     1      21.553   0.924  52.306  0.00  0.00    +0.000 C 
ATOM      2  C   UNL     1      21.657  -0.130  53.128  0.00  0.00    +0.000 C 
ATOM      3  C   UNL     1      20.510  -0.942  53.575  0.00  0.00    +0.000 C 
ATOM      4  O   UNL     1      20.647  -1.821  54.423  0.00  0.00    +0.000 OA
ATOM      5  C   UNL     1      19.200  -0.686  52.964  0.00  0.00    +0.000 A 
ATOM      6  C   UNL     1      18.087  -1.468  53.313  0.00  0.00    +0.000 A 
ATOM      7  C   UNL     1      16.856  -1.258  52.699  0.00  0.00    +0.000 A 
ATOM      8  C   UNL     1      16.738  -0.294  51.702  0.00  0.00    +0.000 A 
ATOM      9  C   UNL     1      17.844   0.488  51.360  0.00  0.00    +0.000 A 
ATOM     10  C   UNL     1      19.069   0.334  52.024  0.00  0.00    +0.000 A 
ATOM     11  C   UNL     1      20.186   1.292  51.820  0.00  0.00    +0.000 C 
ATOM     12  O   UNL     1      19.973   2.399  51.347  0.00  0.00    +0.000 OA
ENDROOT
BRANCH   6  13
ATOM     13  O   UNL     1      18.126  -2.456  54.259  0.00  0.00    +0.000 OA
ATOM     14  H   UNL     1      18.915  -2.943  54.396  0.00  0.00    +0.000 HD
ENDBRANCH   6  13
BRANCH   9  15
ATOM     15  O   UNL     1      17.720   1.377  50.330  0.00  0.00    +0.000 OA
ATOM     16  H   UNL     1      16.954   1.365  49.791  0.00  0.00    +0.000 HD
ENDBRANCH   9  15
BRANCH   1  17
ATOM     17  C   UNL     1      22.687   1.893  51.949  0.00  0.00    +0.000 C 
BRANCH  17  18
ATOM     18  O   UNL     1      23.195   1.629  50.597  0.00  0.00    +0.000 OA
BRANCH  18  19
ATOM     19  C   UNL     1      23.118   2.682  49.737  0.00  0.00    +0.000 C 
ATOM     20  O   UNL     1      22.101   3.053  49.160  0.00  0.00    +0.000 OA
BRANCH  19  22
ATOM     21  C   UNL     1      25.648   3.093  49.489  0.00  0.00    +0.000 C 
ATOM     22  C   UNL     1      24.366   3.481  49.596  0.00  0.00    +0.000 C 
BRANCH  21  23
ATOM     23  C   UNL     1      26.786   4.092  49.500  0.00  0.00    +0.000 C 
BRANCH  23  25
ATOM     24  C   UNL     1      27.554   6.223  48.294  0.00  0.00    +0.000 C 
ATOM     25  C   UNL     1      26.455   5.534  49.088  0.00  0.00    +0.000 C 
ENDBRANCH  23  25
ENDBRANCH  21  23
ENDBRANCH  19  22
ENDBRANCH  18  19
ENDBRANCH  17  18
BRANCH  17  26
ATOM     26  C   UNL     1      23.941   1.894  52.874  0.00  0.00    +0.000 C 
BRANCH  26  27
ATOM     27  C   UNL     1      25.135   1.068  52.440  0.00  0.00    +0.000 C 
ATOM     28  C   UNL     1      25.640  -0.024  53.054  0.00  0.00    +0.000 C 
ATOM     29  C   UNL     1      26.827  -0.767  52.486  0.00  0.00    +0.000 C 
ATOM     30  C   UNL     1      25.090  -0.643  54.311  0.00  0.00    +0.000 C 
ENDBRANCH  26  27
ENDBRANCH  17  26
ENDBRANCH   1  17
TORSDOF 10
ENDMDL
MODEL 7
REMARK VINA RESULT:    -7.777      1.830      6.450
REMARK INTER + INTRA:         -13.026
REMARK INTER:                 -12.551
REMARK INTRA:                  -0.475
REMARK UNBOUND:                -1.157
REMARK  Name = 
REMARK  13 active torsions:
REMARK  status: ('A' for Active; 'I' for Inactive)
REMARK    1  A    between atoms: C_1  and  C_2
REMARK    2  A    between atoms: C_2  and  C_3
REMARK    3  A    between atoms: C_3  and  C_4
REMARK    4  A    between atoms: C_5  and  C_6
REMARK    5  A    between atoms: C_6  and  O_8
REMARK    6  A    between atoms: O_8  and  C_9
REMARK    7  A    between atoms: C_9  and  C_10
REMARK    8  A    between atoms: C_9  and  C_15
REMARK    9  A    between atoms: C_10  and  C_11
REMARK   10  A    between atoms: C_12  and  C_13
REMARK   11  A    between atoms: C_12  and  C_14
REMARK   12  A    between atoms: C_20  and  O_21
REMARK   13  A    between atoms: C_24  and  O_25
REMARK                            x       y       z     vdW  Elec       q    Type
REMARK                         _______ _______ _______ _____ _____    ______ ____
ROOT
ATOM      1  C   UNL     1      23.848   0.673  52.345  0.00  0.00    +0.000 C 
ATOM      2  C   UNL     1      23.366   1.294  51.257  0.00  0.00    +0.000 C 
ATOM      3  C   UNL     1      21.971   1.175  50.794  0.00  0.00    +0.000 C 
ATOM      4  O   UNL     1      21.615   1.667  49.725  0.00  0.00    +0.000 OA
ATOM      5  C   UNL     1      21.012   0.470  51.652  0.00  0.00    +0.000 A 
ATOM      6  C   UNL     1      19.660   0.379  51.284  0.00  0.00    +0.000 A 
ATOM      7  C   UNL     1      18.741  -0.247  52.121  0.00  0.00    +0.000 A 
ATOM      8  C   UNL     1      19.158  -0.749  53.351  0.00  0.00    +0.000 A 
ATOM      9  C   UNL     1      20.504  -0.662  53.714  0.00  0.00    +0.000 A 
ATOM     10  C   UNL     1      21.450  -0.099  52.846  0.00  0.00    +0.000 A 
ATOM     11  C   UNL     1      22.907  -0.189  53.126  0.00  0.00    +0.000 C 
ATOM     12  O   UNL     1      23.335  -1.019  53.913  0.00  0.00    +0.000 OA
ENDROOT
BRANCH   6  13
ATOM     13  O   UNL     1      19.164   0.872  50.108  0.00  0.00    +0.000 OA
ATOM     14  H   UNL     1      18.780   0.291  49.482  0.00  0.00    +0.000 HD
ENDBRANCH   6  13
BRANCH   9  15
ATOM     15  O   UNL     1      20.873  -1.097  54.956  0.00  0.00    +0.000 OA
ATOM     16  H   UNL     1      21.779  -1.130  55.190  0.00  0.00    +0.000 HD
ENDBRANCH   9  15
BRANCH   1  17
ATOM     17  C   UNL     1      25.322   0.633  52.769  0.00  0.00    +0.000 C 
BRANCH  17  18
ATOM     18  O   UNL     1      26.197   1.020  51.655  0.00  0.00    +0.000 OA
BRANCH  18  19
ATOM     19  C   UNL     1      26.773   2.248  51.775  0.00  0.00    +0.000 C 
ATOM     20  O   UNL     1      27.811   2.488  52.383  0.00  0.00    +0.000 OA
BRANCH  19  22
ATOM     21  C   UNL     1      26.263   3.718  49.724  0.00  0.00    +0.000 C 
ATOM     22  C   UNL     1      26.115   3.337  51.004  0.00  0.00    +0.000 C 
BRANCH  21  23
ATOM     23  C   UNL     1      25.590   4.961  49.178  0.00  0.00    +0.000 C 
BRANCH  23  25
ATOM     24  C   UNL     1      23.169   5.193  49.999  0.00  0.00    +0.000 C 
ATOM     25  C   UNL     1      24.095   4.855  48.841  0.00  0.00    +0.000 C 
ENDBRANCH  23  25
ENDBRANCH  21  23
ENDBRANCH  19  22
ENDBRANCH  18  19
ENDBRANCH  17  18
BRANCH  17  26
ATOM     26  C   UNL     1      25.878  -0.728  53.285  0.00  0.00    +0.000 C 
BRANCH  26  27
ATOM     27  C   UNL     1      27.335  -1.041  53.010  0.00  0.00    +0.000 C 
ATOM     28  C   UNL     1      28.406  -0.648  53.734  0.00  0.00    +0.000 C 
ATOM     29  C   UNL     1      29.807  -1.063  53.352  0.00  0.00    +0.000 C 
ATOM     30  C   UNL     1      28.347   0.190  54.983  0.00  0.00    +0.000 C 
ENDBRANCH  26  27
ENDBRANCH  17  26
ENDBRANCH   1  17
TORSDOF 10
ENDMDL
MODEL 8
REMARK VINA RESULT:    -7.619      2.515      7.496
REMARK INTER + INTRA:         -12.785
REMARK INTER:                 -11.814
REMARK INTRA:                  -0.970
REMARK UNBOUND:                -1.157
REMARK  Name = 
REMARK  13 active torsions:
REMARK  status: ('A' for Active; 'I' for Inactive)
REMARK    1  A    between atoms: C_1  and  C_2
REMARK    2  A    between atoms: C_2  and  C_3
REMARK    3  A    between atoms: C_3  and  C_4
REMARK    4  A    between atoms: C_5  and  C_6
REMARK    5  A    between atoms: C_6  and  O_8
REMARK    6  A    between atoms: O_8  and  C_9
REMARK    7  A    between atoms: C_9  and  C_10
REMARK    8  A    between atoms: C_9  and  C_15
REMARK    9  A    between atoms: C_10  and  C_11
REMARK   10  A    between atoms: C_12  and  C_13
REMARK   11  A    between atoms: C_12  and  C_14
REMARK   12  A    between atoms: C_20  and  O_21
REMARK   13  A    between atoms: C_24  and  O_25
REMARK                            x       y       z     vdW  Elec       q    Type
REMARK                         _______ _______ _______ _____ _____    ______ ____
ROOT
ATOM      1  C   UNL     1      22.592   1.225  52.454  0.00  0.00    +0.000 C 
ATOM      2  C   UNL     1      22.230   0.503  53.526  0.00  0.00    +0.000 C 
ATOM      3  C   UNL     1      20.879  -0.055  53.722  0.00  0.00    +0.000 C 
ATOM      4  O   UNL     1      20.568  -0.605  54.777  0.00  0.00    +0.000 OA
ATOM      5  C   UNL     1      19.919   0.044  52.617  0.00  0.00    +0.000 A 
ATOM      6  C   UNL     1      18.639  -0.521  52.732  0.00  0.00    +0.000 A 
ATOM      7  C   UNL     1      17.745  -0.469  51.666  0.00  0.00    +0.000 A 
ATOM      8  C   UNL     1      18.139   0.110  50.464  0.00  0.00    +0.000 A 
ATOM      9  C   UNL     1      19.411   0.677  50.352  0.00  0.00    +0.000 A 
ATOM     10  C   UNL     1      20.291   0.695  51.442  0.00  0.00    +0.000 A 
ATOM     11  C   UNL     1      21.556   1.474  51.404  0.00  0.00    +0.000 C 
ATOM     12  O   UNL     1      21.707   2.367  50.584  0.00  0.00    +0.000 OA
ENDROOT
BRANCH   6  13
ATOM     13  O   UNL     1      18.185  -1.135  53.868  0.00  0.00    +0.000 OA
ATOM     14  H   UNL     1      18.213  -2.069  53.938  0.00  0.00    +0.000 HD
ENDBRANCH   6  13
BRANCH   9  15
ATOM     15  O   UNL     1      19.798   1.175  49.139  0.00  0.00    +0.000 OA
ATOM     16  H   UNL     1      19.949   2.093  49.037  0.00  0.00    +0.000 HD
ENDBRANCH   9  15
BRANCH   1  17
ATOM     17  C   UNL     1      23.926   1.961  52.285  0.00  0.00    +0.000 C 
BRANCH  17  18
ATOM     18  O   UNL     1      25.044   1.132  52.753  0.00  0.00    +0.000 OA
BRANCH  18  19
ATOM     19  C   UNL     1      26.058   0.973  51.858  0.00  0.00    +0.000 C 
ATOM     20  O   UNL     1      26.472   1.840  51.095  0.00  0.00    +0.000 OA
BRANCH  19  22
ATOM     21  C   UNL     1      27.045  -1.132  52.962  0.00  0.00    +0.000 C 
ATOM     22  C   UNL     1      26.759  -0.338  51.917  0.00  0.00    +0.000 C 
BRANCH  21  23
ATOM     23  C   UNL     1      27.904  -2.371  52.810  0.00  0.00    +0.000 C 
BRANCH  23  25
ATOM     24  C   UNL     1      29.774  -0.881  53.746  0.00  0.00    +0.000 C 
ATOM     25  C   UNL     1      29.369  -2.265  53.262  0.00  0.00    +0.000 C 
ENDBRANCH  23  25
ENDBRANCH  21  23
ENDBRANCH  19  22
ENDBRANCH  18  19
ENDBRANCH  17  18
BRANCH  17  26
ATOM     26  C   UNL     1      24.084   3.328  53.017  0.00  0.00    +0.000 C 
BRANCH  26  27
ATOM     27  C   UNL     1      23.318   4.513  52.466  0.00  0.00    +0.000 C 
ATOM     28  C   UNL     1      23.616   5.238  51.365  0.00  0.00    +0.000 C 
ATOM     29  C   UNL     1      22.738   6.383  50.917  0.00  0.00    +0.000 C 
ATOM     30  C   UNL     1      24.790   4.990  50.456  0.00  0.00    +0.000 C 
ENDBRANCH  26  27
ENDBRANCH  17  26
ENDBRANCH   1  17
TORSDOF 10
ENDMDL
MODEL 9
REMARK VINA RESULT:    -7.496      2.437      7.102
REMARK INTER + INTRA:         -12.597
REMARK INTER:                 -11.134
REMARK INTRA:                  -1.463
REMARK UNBOUND:                -1.157
REMARK  Name = 
REMARK  13 active torsions:
REMARK  status: ('A' for Active; 'I' for Inactive)
REMARK    1  A    between atoms: C_1  and  C_2
REMARK    2  A    between atoms: C_2  and  C_3
REMARK    3  A    between atoms: C_3  and  C_4
REMARK    4  A    between atoms: C_5  and  C_6
REMARK    5  A    between atoms: C_6  and  O_8
REMARK    6  A    between atoms: O_8  and  C_9
REMARK    7  A    between atoms: C_9  and  C_10
REMARK    8  A    between atoms: C_9  and  C_15
REMARK    9  A    between atoms: C_10  and  C_11
REMARK   10  A    between atoms: C_12  and  C_13
REMARK   11  A    between atoms: C_12  and  C_14
REMARK   12  A    between atoms: C_20  and  O_21
REMARK   13  A    between atoms: C_24  and  O_25
REMARK                            x       y       z     vdW  Elec       q    Type
REMARK                         _______ _______ _______ _____ _____    ______ ____
ROOT
ATOM      1  C   UNL     1      24.336   3.989  50.824  0.00  0.00    +0.000 C 
ATOM      2  C   UNL     1      23.676   5.134  51.054  0.00  0.00    +0.000 C 
ATOM      3  C   UNL     1      24.218   6.471  50.748  0.00  0.00    +0.000 C 
ATOM      4  O   UNL     1      23.622   7.490  51.091  0.00  0.00    +0.000 OA
ATOM      5  C   UNL     1      25.481   6.555  50.005  0.00  0.00    +0.000 A 
ATOM      6  C   UNL     1      26.010   7.803  49.639  0.00  0.00    +0.000 A 
ATOM      7  C   UNL     1      27.183   7.881  48.893  0.00  0.00    +0.000 A 
ATOM      8  C   UNL     1      27.810   6.713  48.470  0.00  0.00    +0.000 A 
ATOM      9  C   UNL     1      27.286   5.472  48.839  0.00  0.00    +0.000 A 
ATOM     10  C   UNL     1      26.147   5.383  49.652  0.00  0.00    +0.000 A 
ATOM     11  C   UNL     1      25.703   4.085  50.223  0.00  0.00    +0.000 C 
ATOM     12  O   UNL     1      26.475   3.140  50.283  0.00  0.00    +0.000 OA
ENDROOT
BRANCH   6  13
ATOM     13  O   UNL     1      25.439   8.997  49.988  0.00  0.00    +0.000 OA
ATOM     14  H   UNL     1      25.209   9.617  49.325  0.00  0.00    +0.000 HD
ENDBRANCH   6  13
BRANCH   9  15
ATOM     15  O   UNL     1      27.880   4.343  48.351  0.00  0.00    +0.000 OA
ATOM     16  H   UNL     1      28.302   3.745  48.937  0.00  0.00    +0.000 HD
ENDBRANCH   9  15
BRANCH   1  17
ATOM     17  C   UNL     1      23.886   2.594  51.275  0.00  0.00    +0.000 C 
BRANCH  17  18
ATOM     18  O   UNL     1      22.424   2.530  51.394  0.00  0.00    +0.000 OA
BRANCH  18  19
ATOM     19  C   UNL     1      21.848   1.432  50.831  0.00  0.00    +0.000 C 
ATOM     20  O   UNL     1      21.863   1.158  49.636  0.00  0.00    +0.000 OA
BRANCH  19  22
ATOM     21  C   UNL     1      21.045   0.555  53.115  0.00  0.00    +0.000 C 
ATOM     22  C   UNL     1      21.255   0.461  51.791  0.00  0.00    +0.000 C 
BRANCH  21  23
ATOM     23  C   UNL     1      20.553  -0.624  53.929  0.00  0.00    +0.000 C 
BRANCH  23  25
ATOM     24  C   UNL     1      22.755  -1.238  55.096  0.00  0.00    +0.000 C 
ATOM     25  C   UNL     1      21.578  -1.719  54.263  0.00  0.00    +0.000 C 
ENDBRANCH  23  25
ENDBRANCH  21  23
ENDBRANCH  19  22
ENDBRANCH  18  19
ENDBRANCH  17  18
BRANCH  17  26
ATOM     26  C   UNL     1      24.439   2.072  52.635  0.00  0.00    +0.000 C 
BRANCH  26  27
ATOM     27  C   UNL     1      24.875   0.622  52.706  0.00  0.00    +0.000 C 
ATOM     28  C   UNL     1      26.139   0.151  52.774  0.00  0.00    +0.000 C 
ATOM     29  C   UNL     1      26.423  -1.330  52.868  0.00  0.00    +0.000 C 
ATOM     30  C   UNL     1      27.381   1.003  52.799  0.00  0.00    +0.000 C 
ENDBRANCH  26  27
ENDBRANCH  17  26
ENDBRANCH   1  17
TORSDOF 10
ENDMDL
