MODEL 1
REMARK VINA RESULT:    -6.927      0.000      0.000
REMARK INTER + INTRA:         -12.796
REMARK INTER:                 -11.179
REMARK INTRA:                  -1.616
REMARK UNBOUND:                -1.616
REMARK  Name = 
REMARK  13 active torsions:
REMARK  status: ('A' for Active; 'I' for Inactive)
REMARK    1  A    between atoms: C_1  and  C_2
REMARK    2  A    between atoms: C_2  and  C_3
REMARK    3  A    between atoms: C_3  and  C_4
REMARK    4  A    between atoms: C_4  and  C_5
REMARK    5  A    between atoms: C_5  and  C_6
REMARK    6  A    between atoms: C_6  and  O_7
REMARK    7  A    between atoms: C_6  and  C_8
REMARK    8  A    between atoms: C_12  and  O_13
REMARK    9  A    between atoms: O_13  and  C_14
REMARK   10  A    between atoms: C_14  and  C_15
REMARK   11  A    between atoms: C_19  and  C_20
REMARK   12  A    between atoms: C_20  and  O_22
REMARK   13  A    between atoms: O_22  and  C_23
REMARK                            x       y       z     vdW  Elec       q    Type
REMARK                         _______ _______ _______ _____ _____    ______ ____
ROOT
ATOM      1  C   UNL     1      23.808  -0.301  53.999  0.00  0.00    +0.000 A 
ATOM      2  C   UNL     1      22.791  -0.950  54.712  0.00  0.00    +0.000 A 
ATOM      3  C   UNL     1      21.452  -0.628  54.490  0.00  0.00    +0.000 A 
ATOM      4  C   UNL     1      21.103   0.323  53.529  0.00  0.00    +0.000 A 
ATOM      5  C   UNL     1      22.095   0.922  52.754  0.00  0.00    +0.000 A 
ATOM      6  C   UNL     1      23.440   0.614  52.999  0.00  0.00    +0.000 A 
ENDROOT
BRANCH   1   7
ATOM      7  C   UNL     1      25.257  -0.569  54.345  0.00  0.00    +0.000 C 
BRANCH   7   8
ATOM      8  O   UNL     1      25.305  -1.433  55.481  0.00  0.00    +0.000 OA
ATOM      9  H   UNL     1      26.153  -1.902  55.495  0.00  0.00    +0.000 HD
ENDBRANCH   7   8
BRANCH   7  10
ATOM     10  C   UNL     1      26.077  -1.173  53.188  0.00  0.00    +0.000 C 
BRANCH  10  11
ATOM     11  C   UNL     1      27.274  -0.313  52.764  0.00  0.00    +0.000 C 
BRANCH  11  12
ATOM     12  C   UNL     1      26.837   0.827  51.837  0.00  0.00    +0.000 C 
BRANCH  12  14
ATOM     13  C   UNL     1      28.250   2.267  53.347  0.00  0.00    +0.000 C 
ATOM     14  C   UNL     1      26.979   2.188  52.516  0.00  0.00    +0.000 C 
ENDBRANCH  12  14
ENDBRANCH  11  12
ENDBRANCH  10  11
ENDBRANCH   7  10
ENDBRANCH   1   7
BRANCH   5  15
ATOM     15  O   UNL     1      21.870   1.758  51.695  0.00  0.00    +0.000 OA
BRANCH  15  16
ATOM     16  C   UNL     1      22.163   3.147  51.872  0.00  0.00    +0.000 C 
BRANCH  16  17
ATOM     17  C   UNL     1      23.291   3.699  51.021  0.00  0.00    +0.000 A 
ATOM     18  C   UNL     1      24.050   2.882  50.184  0.00  0.00    +0.000 A 
ATOM     19  C   UNL     1      25.153   3.426  49.526  0.00  0.00    +0.000 A 
ATOM     20  C   UNL     1      25.466   4.771  49.701  0.00  0.00    +0.000 A 
ATOM     21  C   UNL     1      24.642   5.535  50.516  0.00  0.00    +0.000 A 
ATOM     22  N   UNL     1      23.574   5.017  51.187  0.00  0.00    +0.000 NA
BRANCH  21  23
ATOM     23  C   UNL     1      24.905   6.999  50.641  0.00  0.00    +0.000 C 
ATOM     24  O   UNL     1      25.994   7.520  50.442  0.00  0.00    +0.000 OA
BRANCH  23  25
ATOM     25  O   UNL     1      23.762   7.661  50.979  0.00  0.00    +0.000 OA
ATOM     26  C   UNL     1      23.111   8.315  49.894  0.00  0.00    +0.000 C 
ENDBRANCH  23  25
ENDBRANCH  21  23
ENDBRANCH  16  17
ENDBRANCH  15  16
ENDBRANCH   5  15
TORSDOF 11
ENDMDL
MODEL 2
REMARK VINA RESULT:    -6.923      1.316      1.733
REMARK INTER + INTRA:         -12.789
REMARK INTER:                 -11.508
REMARK INTRA:                  -1.281
REMARK UNBOUND:                -1.616
REMARK  Name = 
REMARK  13 active torsions:
REMARK  status: ('A' for Active; 'I' for Inactive)
REMARK    1  A    between atoms: C_1  and  C_2
REMARK    2  A    between atoms: C_2  and  C_3
REMARK    3  A    between atoms: C_3  and  C_4
REMARK    4  A    between atoms: C_4  and  C_5
REMARK    5  A    between atoms: C_5  and  C_6
REMARK    6  A    between atoms: C_6  and  O_7
REMARK    7  A    between atoms: C_6  and  C_8
REMARK    8  A    between atoms: C_12  and  O_13
REMARK    9  A    between atoms: O_13  and  C_14
REMARK   10  A    between atoms: C_14  and  C_15
REMARK   11  A    between atoms: C_19  and  C_20
REMARK   12  A    between atoms: C_20  and  O_22
REMARK   13  A    between atoms: O_22  and  C_23
REMARK                            x       y       z     vdW  Elec       q    Type
REMARK                         _______ _______ _______ _____ _____    ______ ____
ROOT
ATOM      1  C   UNL     1      24.199  -0.045  53.650  0.00  0.00    +0.000 A 
ATOM      2  C   UNL     1      23.012  -0.681  54.038  0.00  0.00    +0.000 A 
ATOM      3  C   UNL     1      21.775  -0.191  53.621  0.00  0.00    +0.000 A 
ATOM      4  C   UNL     1      21.701   0.923  52.782  0.00  0.00    +0.000 A 
ATOM      5  C   UNL     1      22.872   1.521  52.321  0.00  0.00    +0.000 A 
ATOM      6  C   UNL     1      24.112   1.041  52.763  0.00  0.00    +0.000 A 
ENDROOT
BRANCH   1   7
ATOM      7  C   UNL     1      25.523  -0.512  54.216  0.00  0.00    +0.000 C 
BRANCH   7   8
ATOM      8  O   UNL     1      25.267  -1.374  55.326  0.00  0.00    +0.000 OA
ATOM      9  H   UNL     1      26.109  -1.678  55.698  0.00  0.00    +0.000 HD
ENDBRANCH   7   8
BRANCH   7  10
ATOM     10  C   UNL     1      26.428  -1.223  53.192  0.00  0.00    +0.000 C 
BRANCH  10  11
ATOM     11  C   UNL     1      27.750  -0.494  52.924  0.00  0.00    +0.000 C 
BRANCH  11  12
ATOM     12  C   UNL     1      28.446  -0.109  54.234  0.00  0.00    +0.000 C 
BRANCH  12  14
ATOM     13  C   UNL     1      28.229   2.265  53.415  0.00  0.00    +0.000 C 
ATOM     14  C   UNL     1      29.118   1.259  54.131  0.00  0.00    +0.000 C 
ENDBRANCH  12  14
ENDBRANCH  11  12
ENDBRANCH  10  11
ENDBRANCH   7  10
ENDBRANCH   1   7
BRANCH   5  15
ATOM     15  O   UNL     1      22.930   2.524  51.391  0.00  0.00    +0.000 OA
BRANCH  15  16
ATOM     16  C   UNL     1      23.695   3.688  51.718  0.00  0.00    +0.000 C 
BRANCH  16  17
ATOM     17  C   UNL     1      24.765   4.080  50.717  0.00  0.00    +0.000 A 
ATOM     18  C   UNL     1      25.682   3.155  50.220  0.00  0.00    +0.000 A 
ATOM     19  C   UNL     1      26.719   3.603  49.402  0.00  0.00    +0.000 A 
ATOM     20  C   UNL     1      26.812   4.955  49.084  0.00  0.00    +0.000 A 
ATOM     21  C   UNL     1      25.840   5.813  49.580  0.00  0.00    +0.000 A 
ATOM     22  N   UNL     1      24.832   5.399  50.401  0.00  0.00    +0.000 NA
BRANCH  21  23
ATOM     23  C   UNL     1      25.867   7.249  49.173  0.00  0.00    +0.000 C 
ATOM     24  O   UNL     1      25.634   7.646  48.039  0.00  0.00    +0.000 OA
BRANCH  23  25
ATOM     25  O   UNL     1      26.161   8.041  50.243  0.00  0.00    +0.000 OA
ATOM     26  C   UNL     1      27.267   8.916  50.049  0.00  0.00    +0.000 C 
ENDBRANCH  23  25
ENDBRANCH  21  23
ENDBRANCH  16  17
ENDBRANCH  15  16
ENDBRANCH   5  15
TORSDOF 11
ENDMDL
MODEL 3
REMARK VINA RESULT:    -6.846      3.325      4.721
REMARK INTER + INTRA:         -12.664
REMARK INTER:                 -11.263
REMARK INTRA:                  -1.401
REMARK UNBOUND:                -1.616
REMARK  Name = 
REMARK  13 active torsions:
REMARK  status: ('A' for Active; 'I' for Inactive)
REMARK    1  A    between atoms: C_1  and  C_2
REMARK    2  A    between atoms: C_2  and  C_3
REMARK    3  A    between atoms: C_3  and  C_4
REMARK    4  A    between atoms: C_4  and  C_5
REMARK    5  A    between atoms: C_5  and  C_6
REMARK    6  A    between atoms: C_6  and  O_7
REMARK    7  A    between atoms: C_6  and  C_8
REMARK    8  A    between atoms: C_12  and  O_13
REMARK    9  A    between atoms: O_13  and  C_14
REMARK   10  A    between atoms: C_14  and  C_15
REMARK   11  A    between atoms: C_19  and  C_20
REMARK   12  A    between atoms: C_20  and  O_22
REMARK   13  A    between atoms: O_22  and  C_23
REMARK                            x       y       z     vdW  Elec       q    Type
REMARK                         _______ _______ _______ _____ _____    ______ ____
ROOT
ATOM      1  C   UNL     1      27.002   1.596  53.060  0.00  0.00    +0.000 A 
ATOM      2  C   UNL     1      25.895   1.073  53.741  0.00  0.00    +0.000 A 
ATOM      3  C   UNL     1      24.603   1.277  53.257  0.00  0.00    +0.000 A 
ATOM      4  C   UNL     1      24.396   1.978  52.067  0.00  0.00    +0.000 A 
ATOM      5  C   UNL     1      25.488   2.437  51.334  0.00  0.00    +0.000 A 
ATOM      6  C   UNL     1      26.782   2.252  51.838  0.00  0.00    +0.000 A 
ENDROOT
BRANCH   1   7
ATOM      7  C   UNL     1      28.384   1.476  53.667  0.00  0.00    +0.000 C 
BRANCH   7   8
ATOM      8  O   UNL     1      28.666   2.669  54.401  0.00  0.00    +0.000 OA
ATOM      9  H   UNL     1      28.209   2.638  55.255  0.00  0.00    +0.000 HD
ENDBRANCH   7   8
BRANCH   7  10
ATOM     10  C   UNL     1      28.568   0.243  54.572  0.00  0.00    +0.000 C 
BRANCH  10  11
ATOM     11  C   UNL     1      29.690  -0.697  54.115  0.00  0.00    +0.000 C 
BRANCH  11  12
ATOM     12  C   UNL     1      29.265  -1.512  52.889  0.00  0.00    +0.000 C 
BRANCH  12  14
ATOM     13  C   UNL     1      26.892  -2.079  52.258  0.00  0.00    +0.000 C 
ATOM     14  C   UNL     1      28.051  -2.390  53.192  0.00  0.00    +0.000 C 
ENDBRANCH  12  14
ENDBRANCH  11  12
ENDBRANCH  10  11
ENDBRANCH   7  10
ENDBRANCH   1   7
BRANCH   5  15
ATOM     15  O   UNL     1      25.419   3.010  50.093  0.00  0.00    +0.000 OA
BRANCH  15  16
ATOM     16  C   UNL     1      26.650   3.265  49.410  0.00  0.00    +0.000 C 
BRANCH  16  17
ATOM     17  C   UNL     1      26.885   4.701  48.983  0.00  0.00    +0.000 A 
ATOM     18  C   UNL     1      25.854   5.638  48.951  0.00  0.00    +0.000 A 
ATOM     19  C   UNL     1      26.107   6.906  48.428  0.00  0.00    +0.000 A 
ATOM     20  C   UNL     1      27.382   7.219  47.965  0.00  0.00    +0.000 A 
ATOM     21  C   UNL     1      28.372   6.251  48.067  0.00  0.00    +0.000 A 
ATOM     22  N   UNL     1      28.139   4.998  48.552  0.00  0.00    +0.000 NA
BRANCH  21  23
ATOM     23  C   UNL     1      29.767   6.599  47.666  0.00  0.00    +0.000 C 
ATOM     24  O   UNL     1      30.094   7.672  47.178  0.00  0.00    +0.000 OA
BRANCH  23  25
ATOM     25  O   UNL     1      30.614   5.566  47.943  0.00  0.00    +0.000 OA
ATOM     26  C   UNL     1      31.554   5.831  48.979  0.00  0.00    +0.000 C 
ENDBRANCH  23  25
ENDBRANCH  21  23
ENDBRANCH  16  17
ENDBRANCH  15  16
ENDBRANCH   5  15
TORSDOF 11
ENDMDL
MODEL 4
REMARK VINA RESULT:    -6.759      2.893      6.602
REMARK INTER + INTRA:         -12.524
REMARK INTER:                 -11.376
REMARK INTRA:                  -1.148
REMARK UNBOUND:                -1.616
REMARK  Name = 
REMARK  13 active torsions:
REMARK  status: ('A' for Active; 'I' for Inactive)
REMARK    1  A    between atoms: C_1  and  C_2
REMARK    2  A    between atoms: C_2  and  C_3
REMARK    3  A    between atoms: C_3  and  C_4
REMARK    4  A    between atoms: C_4  and  C_5
REMARK    5  A    between atoms: C_5  and  C_6
REMARK    6  A    between atoms: C_6  and  O_7
REMARK    7  A    between atoms: C_6  and  C_8
REMARK    8  A    between atoms: C_12  and  O_13
REMARK    9  A    between atoms: O_13  and  C_14
REMARK   10  A    between atoms: C_14  and  C_15
REMARK   11  A    between atoms: C_19  and  C_20
REMARK   12  A    between atoms: C_20  and  O_22
REMARK   13  A    between atoms: O_22  and  C_23
REMARK                            x       y       z     vdW  Elec       q    Type
REMARK                         _______ _______ _______ _____ _____    ______ ____
ROOT
ATOM      1  C   UNL     1      26.171   2.400  51.545  0.00  0.00    +0.000 A 
ATOM      2  C   UNL     1      26.522   3.130  50.402  0.00  0.00    +0.000 A 
ATOM      3  C   UNL     1      25.546   3.546  49.497  0.00  0.00    +0.000 A 
ATOM      4  C   UNL     1      24.197   3.268  49.734  0.00  0.00    +0.000 A 
ATOM      5  C   UNL     1      23.820   2.613  50.905  0.00  0.00    +0.000 A 
ATOM      6  C   UNL     1      24.808   2.175  51.798  0.00  0.00    +0.000 A 
ENDROOT
BRANCH   1   7
ATOM      7  C   UNL     1      27.254   1.847  52.447  0.00  0.00    +0.000 C 
BRANCH   7   8
ATOM      8  O   UNL     1      28.312   2.802  52.529  0.00  0.00    +0.000 OA
ATOM      9  H   UNL     1      28.372   3.292  51.695  0.00  0.00    +0.000 HD
ENDBRANCH   7   8
BRANCH   7  10
ATOM     10  C   UNL     1      26.765   1.476  53.860  0.00  0.00    +0.000 C 
BRANCH  10  11
ATOM     11  C   UNL     1      27.339   0.154  54.385  0.00  0.00    +0.000 C 
BRANCH  11  12
ATOM     12  C   UNL     1      27.406  -0.901  53.275  0.00  0.00    +0.000 C 
BRANCH  12  14
ATOM     13  C   UNL     1      29.875  -0.566  53.652  0.00  0.00    +0.000 C 
ATOM     14  C   UNL     1      28.796  -1.528  53.181  0.00  0.00    +0.000 C 
ENDBRANCH  12  14
ENDBRANCH  11  12
ENDBRANCH  10  11
ENDBRANCH   7  10
ENDBRANCH   1   7
BRANCH   5  15
ATOM     15  O   UNL     1      22.530   2.410  51.313  0.00  0.00    +0.000 OA
BRANCH  15  16
ATOM     16  C   UNL     1      21.948   1.128  51.058  0.00  0.00    +0.000 C 
BRANCH  16  17
ATOM     17  C   UNL     1      21.505   0.347  52.281  0.00  0.00    +0.000 A 
ATOM     18  C   UNL     1      22.387   0.033  53.314  0.00  0.00    +0.000 A 
ATOM     19  C   UNL     1      21.951  -0.795  54.348  0.00  0.00    +0.000 A 
ATOM     20  C   UNL     1      20.646  -1.278  54.341  0.00  0.00    +0.000 A 
ATOM     21  C   UNL     1      19.809  -0.890  53.304  0.00  0.00    +0.000 A 
ATOM     22  N   UNL     1      20.223  -0.102  52.271  0.00  0.00    +0.000 NA
BRANCH  21  23
ATOM     23  C   UNL     1      18.380  -1.319  53.329  0.00  0.00    +0.000 C 
ATOM     24  O   UNL     1      17.981  -2.349  53.855  0.00  0.00    +0.000 OA
BRANCH  23  25
ATOM     25  O   UNL     1      17.594  -0.393  52.709  0.00  0.00    +0.000 OA
ATOM     26  C   UNL     1      16.276  -0.839  52.405  0.00  0.00    +0.000 C 
ENDBRANCH  23  25
ENDBRANCH  21  23
ENDBRANCH  16  17
ENDBRANCH  15  16
ENDBRANCH   5  15
TORSDOF 11
ENDMDL
MODEL 5
REMARK VINA RESULT:    -6.659      1.347      1.966
REMARK INTER + INTRA:         -12.363
REMARK INTER:                 -10.987
REMARK INTRA:                  -1.376
REMARK UNBOUND:                -1.616
REMARK  Name = 
REMARK  13 active torsions:
REMARK  status: ('A' for Active; 'I' for Inactive)
REMARK    1  A    between atoms: C_1  and  C_2
REMARK    2  A    between atoms: C_2  and  C_3
REMARK    3  A    between atoms: C_3  and  C_4
REMARK    4  A    between atoms: C_4  and  C_5
REMARK    5  A    between atoms: C_5  and  C_6
REMARK    6  A    between atoms: C_6  and  O_7
REMARK    7  A    between atoms: C_6  and  C_8
REMARK    8  A    between atoms: C_12  and  O_13
REMARK    9  A    between atoms: O_13  and  C_14
REMARK   10  A    between atoms: C_14  and  C_15
REMARK   11  A    between atoms: C_19  and  C_20
REMARK   12  A    between atoms: C_20  and  O_22
REMARK   13  A    between atoms: O_22  and  C_23
REMARK                            x       y       z     vdW  Elec       q    Type
REMARK                         _______ _______ _______ _____ _____    ______ ____
ROOT
ATOM      1  C   UNL     1      23.811  -0.353  54.004  0.00  0.00    +0.000 A 
ATOM      2  C   UNL     1      22.923  -1.074  54.814  0.00  0.00    +0.000 A 
ATOM      3  C   UNL     1      21.544  -0.926  54.662  0.00  0.00    +0.000 A 
ATOM      4  C   UNL     1      21.028  -0.080  53.676  0.00  0.00    +0.000 A 
ATOM      5  C   UNL     1      21.894   0.584  52.810  0.00  0.00    +0.000 A 
ATOM      6  C   UNL     1      23.278   0.451  52.984  0.00  0.00    +0.000 A 
ENDROOT
BRANCH   1   7
ATOM      7  C   UNL     1      25.299  -0.428  54.269  0.00  0.00    +0.000 C 
BRANCH   7   8
ATOM      8  O   UNL     1      25.509  -1.084  55.521  0.00  0.00    +0.000 OA
ATOM      9  H   UNL     1      24.653  -1.264  55.938  0.00  0.00    +0.000 HD
ENDBRANCH   7   8
BRANCH   7  10
ATOM     10  C   UNL     1      26.100  -1.137  53.161  0.00  0.00    +0.000 C 
BRANCH  10  11
ATOM     11  C   UNL     1      27.192  -0.264  52.532  0.00  0.00    +0.000 C 
BRANCH  11  12
ATOM     12  C   UNL     1      26.589   0.950  51.817  0.00  0.00    +0.000 C 
BRANCH  12  14
ATOM     13  C   UNL     1      28.130   2.021  53.500  0.00  0.00    +0.000 C 
ATOM     14  C   UNL     1      27.202   2.257  52.318  0.00  0.00    +0.000 C 
ENDBRANCH  12  14
ENDBRANCH  11  12
ENDBRANCH  10  11
ENDBRANCH   7  10
ENDBRANCH   1   7
BRANCH   5  15
ATOM     15  O   UNL     1      21.508   1.323  51.725  0.00  0.00    +0.000 OA
BRANCH  15  16
ATOM     16  C   UNL     1      22.505   1.641  50.749  0.00  0.00    +0.000 C 
BRANCH  16  17
ATOM     17  C   UNL     1      23.178   2.991  50.905  0.00  0.00    +0.000 A 
ATOM     18  C   UNL     1      22.640   3.994  51.710  0.00  0.00    +0.000 A 
ATOM     19  C   UNL     1      23.236   5.254  51.710  0.00  0.00    +0.000 A 
ATOM     20  C   UNL     1      24.362   5.485  50.925  0.00  0.00    +0.000 A 
ATOM     21  C   UNL     1      24.870   4.428  50.182  0.00  0.00    +0.000 A 
ATOM     22  N   UNL     1      24.287   3.196  50.148  0.00  0.00    +0.000 NA
BRANCH  21  23
ATOM     23  C   UNL     1      26.131   4.628  49.409  0.00  0.00    +0.000 C 
ATOM     24  O   UNL     1      26.931   3.737  49.158  0.00  0.00    +0.000 OA
BRANCH  23  25
ATOM     25  O   UNL     1      26.244   5.927  49.009  0.00  0.00    +0.000 OA
ATOM     26  C   UNL     1      27.496   6.261  48.419  0.00  0.00    +0.000 C 
ENDBRANCH  23  25
ENDBRANCH  21  23
ENDBRANCH  16  17
ENDBRANCH  15  16
ENDBRANCH   5  15
TORSDOF 11
ENDMDL
MODEL 6
REMARK VINA RESULT:    -6.658      1.815      2.516
REMARK INTER + INTRA:         -12.361
REMARK INTER:                 -11.239
REMARK INTRA:                  -1.122
REMARK UNBOUND:                -1.616
REMARK  Name = 
REMARK  13 active torsions:
REMARK  status: ('A' for Active; 'I' for Inactive)
REMARK    1  A    between atoms: C_1  and  C_2
REMARK    2  A    between atoms: C_2  and  C_3
REMARK    3  A    between atoms: C_3  and  C_4
REMARK    4  A    between atoms: C_4  and  C_5
REMARK    5  A    between atoms: C_5  and  C_6
REMARK    6  A    between atoms: C_6  and  O_7
REMARK    7  A    between atoms: C_6  and  C_8
REMARK    8  A    between atoms: C_12  and  O_13
REMARK    9  A    between atoms: O_13  and  C_14
REMARK   10  A    between atoms: C_14  and  C_15
REMARK   11  A    between atoms: C_19  and  C_20
REMARK   12  A    between atoms: C_20  and  O_22
REMARK   13  A    between atoms: O_22  and  C_23
REMARK                            x       y       z     vdW  Elec       q    Type
REMARK                         _______ _______ _______ _____ _____    ______ ____
ROOT
ATOM      1  C   UNL     1      23.753  -0.559  54.085  0.00  0.00    +0.000 A 
ATOM      2  C   UNL     1      23.029  -1.387  54.952  0.00  0.00    +0.000 A 
ATOM      3  C   UNL     1      21.634  -1.398  54.924  0.00  0.00    +0.000 A 
ATOM      4  C   UNL     1      20.940  -0.606  54.006  0.00  0.00    +0.000 A 
ATOM      5  C   UNL     1      21.644   0.164  53.082  0.00  0.00    +0.000 A 
ATOM      6  C   UNL     1      23.043   0.190  53.133  0.00  0.00    +0.000 A 
ENDROOT
BRANCH   1   7
ATOM      7  C   UNL     1      25.258  -0.464  54.218  0.00  0.00    +0.000 C 
BRANCH   7   8
ATOM      8  O   UNL     1      25.646  -1.054  55.460  0.00  0.00    +0.000 OA
ATOM      9  H   UNL     1      25.644  -0.376  56.153  0.00  0.00    +0.000 HD
ENDBRANCH   7   8
BRANCH   7  10
ATOM     10  C   UNL     1      26.034  -1.118  53.058  0.00  0.00    +0.000 C 
BRANCH  10  11
ATOM     11  C   UNL     1      27.248  -0.306  52.591  0.00  0.00    +0.000 C 
BRANCH  11  12
ATOM     12  C   UNL     1      28.505  -0.685  53.381  0.00  0.00    +0.000 C 
BRANCH  12  14
ATOM     13  C   UNL     1      28.501   1.829  53.574  0.00  0.00    +0.000 C 
ATOM     14  C   UNL     1      29.297   0.553  53.801  0.00  0.00    +0.000 C 
ENDBRANCH  12  14
ENDBRANCH  11  12
ENDBRANCH  10  11
ENDBRANCH   7  10
ENDBRANCH   1   7
BRANCH   5  15
ATOM     15  O   UNL     1      21.081   0.867  52.052  0.00  0.00    +0.000 OA
BRANCH  15  16
ATOM     16  C   UNL     1      21.348   0.420  50.720  0.00  0.00    +0.000 C 
BRANCH  16  17
ATOM     17  C   UNL     1      21.925   1.458  49.776  0.00  0.00    +0.000 A 
ATOM     18  C   UNL     1      21.620   1.466  48.416  0.00  0.00    +0.000 A 
ATOM     19  C   UNL     1      22.280   2.366  47.579  0.00  0.00    +0.000 A 
ATOM     20  C   UNL     1      23.214   3.248  48.116  0.00  0.00    +0.000 A 
ATOM     21  C   UNL     1      23.437   3.213  49.486  0.00  0.00    +0.000 A 
ATOM     22  N   UNL     1      22.820   2.324  50.316  0.00  0.00    +0.000 NA
BRANCH  21  23
ATOM     23  C   UNL     1      24.363   4.214  50.094  0.00  0.00    +0.000 C 
ATOM     24  O   UNL     1      24.260   4.639  51.236  0.00  0.00    +0.000 OA
BRANCH  23  25
ATOM     25  O   UNL     1      25.340   4.558  49.207  0.00  0.00    +0.000 OA
ATOM     26  C   UNL     1      26.610   3.968  49.463  0.00  0.00    +0.000 C 
ENDBRANCH  23  25
ENDBRANCH  21  23
ENDBRANCH  16  17
ENDBRANCH  15  16
ENDBRANCH   5  15
TORSDOF 11
ENDMDL
MODEL 7
REMARK VINA RESULT:    -6.626      1.342      1.579
REMARK INTER + INTRA:         -12.310
REMARK INTER:                 -10.372
REMARK INTRA:                  -1.938
REMARK UNBOUND:                -1.616
REMARK  Name = 
REMARK  13 active torsions:
REMARK  status: ('A' for Active; 'I' for Inactive)
REMARK    1  A    between atoms: C_1  and  C_2
REMARK    2  A    between atoms: C_2  and  C_3
REMARK    3  A    between atoms: C_3  and  C_4
REMARK    4  A    between atoms: C_4  and  C_5
REMARK    5  A    between atoms: C_5  and  C_6
REMARK    6  A    between atoms: C_6  and  O_7
REMARK    7  A    between atoms: C_6  and  C_8
REMARK    8  A    between atoms: C_12  and  O_13
REMARK    9  A    between atoms: O_13  and  C_14
REMARK   10  A    between atoms: C_14  and  C_15
REMARK   11  A    between atoms: C_19  and  C_20
REMARK   12  A    between atoms: C_20  and  O_22
REMARK   13  A    between atoms: O_22  and  C_23
REMARK                            x       y       z     vdW  Elec       q    Type
REMARK                         _______ _______ _______ _____ _____    ______ ____
ROOT
ATOM      1  C   UNL     1      23.522  -0.680  54.017  0.00  0.00    +0.000 A 
ATOM      2  C   UNL     1      22.674  -1.345  54.913  0.00  0.00    +0.000 A 
ATOM      3  C   UNL     1      21.291  -1.326  54.729  0.00  0.00    +0.000 A 
ATOM      4  C   UNL     1      20.733  -0.670  53.629  0.00  0.00    +0.000 A 
ATOM      5  C   UNL     1      21.564  -0.071  52.684  0.00  0.00    +0.000 A 
ATOM      6  C   UNL     1      22.950  -0.071  52.888  0.00  0.00    +0.000 A 
ENDROOT
BRANCH   1   7
ATOM      7  C   UNL     1      25.006  -0.602  54.303  0.00  0.00    +0.000 C 
BRANCH   7   8
ATOM      8  O   UNL     1      25.278  -1.318  55.509  0.00  0.00    +0.000 OA
ATOM      9  H   UNL     1      25.861  -0.788  56.074  0.00  0.00    +0.000 HD
ENDBRANCH   7   8
BRANCH   7  10
ATOM     10  C   UNL     1      25.894  -1.133  53.161  0.00  0.00    +0.000 C 
BRANCH  10  11
ATOM     11  C   UNL     1      26.533  -0.030  52.310  0.00  0.00    +0.000 C 
BRANCH  11  12
ATOM     12  C   UNL     1      26.552   1.307  53.058  0.00  0.00    +0.000 C 
BRANCH  12  14
ATOM     13  C   UNL     1      24.698   3.000  53.286  0.00  0.00    +0.000 C 
ATOM     14  C   UNL     1      25.707   2.362  52.344  0.00  0.00    +0.000 C 
ENDBRANCH  12  14
ENDBRANCH  11  12
ENDBRANCH  10  11
ENDBRANCH   7  10
ENDBRANCH   1   7
BRANCH   5  15
ATOM     15  O   UNL     1      21.145   0.477  51.503  0.00  0.00    +0.000 OA
BRANCH  15  16
ATOM     16  C   UNL     1      20.869   1.880  51.483  0.00  0.00    +0.000 C 
BRANCH  16  17
ATOM     17  C   UNL     1      21.886   2.745  50.762  0.00  0.00    +0.000 A 
ATOM     18  C   UNL     1      22.730   2.227  49.782  0.00  0.00    +0.000 A 
ATOM     19  C   UNL     1      23.729   3.042  49.249  0.00  0.00    +0.000 A 
ATOM     20  C   UNL     1      23.854   4.356  49.689  0.00  0.00    +0.000 A 
ATOM     21  C   UNL     1      22.951   4.819  50.636  0.00  0.00    +0.000 A 
ATOM     22  N   UNL     1      21.984   4.031  51.188  0.00  0.00    +0.000 NA
BRANCH  21  23
ATOM     23  C   UNL     1      23.008   6.252  51.051  0.00  0.00    +0.000 C 
ATOM     24  O   UNL     1      24.046   6.873  51.236  0.00  0.00    +0.000 OA
BRANCH  23  25
ATOM     25  O   UNL     1      21.749   6.765  51.165  0.00  0.00    +0.000 OA
ATOM     26  C   UNL     1      21.339   7.580  50.072  0.00  0.00    +0.000 C 
ENDBRANCH  23  25
ENDBRANCH  21  23
ENDBRANCH  16  17
ENDBRANCH  15  16
ENDBRANCH   5  15
TORSDOF 11
ENDMDL
MODEL 8
REMARK VINA RESULT:    -6.502      2.019      4.184
REMARK INTER + INTRA:         -12.110
REMARK INTER:                 -10.442
REMARK INTRA:                  -1.668
REMARK UNBOUND:                -1.616
REMARK  Name = 
REMARK  13 active torsions:
REMARK  status: ('A' for Active; 'I' for Inactive)
REMARK    1  A    between atoms: C_1  and  C_2
REMARK    2  A    between atoms: C_2  and  C_3
REMARK    3  A    between atoms: C_3  and  C_4
REMARK    4  A    between atoms: C_4  and  C_5
REMARK    5  A    between atoms: C_5  and  C_6
REMARK    6  A    between atoms: C_6  and  O_7
REMARK    7  A    between atoms: C_6  and  C_8
REMARK    8  A    between atoms: C_12  and  O_13
REMARK    9  A    between atoms: O_13  and  C_14
REMARK   10  A    between atoms: C_14  and  C_15
REMARK   11  A    between atoms: C_19  and  C_20
REMARK   12  A    between atoms: C_20  and  O_22
REMARK   13  A    between atoms: O_22  and  C_23
REMARK                            x       y       z     vdW  Elec       q    Type
REMARK                         _______ _______ _______ _____ _____    ______ ____
ROOT
ATOM      1  C   UNL     1      22.774  -0.751  54.208  0.00  0.00    +0.000 A 
ATOM      2  C   UNL     1      23.273  -1.131  55.461  0.00  0.00    +0.000 A 
ATOM      3  C   UNL     1      24.648  -1.188  55.690  0.00  0.00    +0.000 A 
ATOM      4  C   UNL     1      25.548  -0.835  54.681  0.00  0.00    +0.000 A 
ATOM      5  C   UNL     1      25.070  -0.378  53.454  0.00  0.00    +0.000 A 
ATOM      6  C   UNL     1      23.689  -0.348  53.222  0.00  0.00    +0.000 A 
ENDROOT
BRANCH   1   7
ATOM      7  C   UNL     1      21.286  -0.821  53.939  0.00  0.00    +0.000 C 
BRANCH   7   8
ATOM      8  O   UNL     1      20.714  -1.822  54.782  0.00  0.00    +0.000 OA
ATOM      9  H   UNL     1      19.769  -1.910  54.584  0.00  0.00    +0.000 HD
ENDBRANCH   7   8
BRANCH   7  10
ATOM     10  C   UNL     1      20.549   0.518  54.134  0.00  0.00    +0.000 C 
BRANCH  10  11
ATOM     11  C   UNL     1      20.398   1.335  52.845  0.00  0.00    +0.000 C 
BRANCH  11  12
ATOM     12  C   UNL     1      19.971   0.446  51.672  0.00  0.00    +0.000 C 
BRANCH  12  14
ATOM     13  C   UNL     1      21.965   1.204  50.329  0.00  0.00    +0.000 C 
ATOM     14  C   UNL     1      20.456   1.009  50.337  0.00  0.00    +0.000 C 
ENDBRANCH  12  14
ENDBRANCH  11  12
ENDBRANCH  10  11
ENDBRANCH   7  10
ENDBRANCH   1   7
BRANCH   5  15
ATOM     15  O   UNL     1      25.845   0.125  52.446  0.00  0.00    +0.000 OA
BRANCH  15  16
ATOM     16  C   UNL     1      26.327   1.465  52.585  0.00  0.00    +0.000 C 
BRANCH  16  17
ATOM     17  C   UNL     1      25.782   2.472  51.589  0.00  0.00    +0.000 A 
ATOM     18  C   UNL     1      26.461   2.786  50.413  0.00  0.00    +0.000 A 
ATOM     19  C   UNL     1      25.974   3.811  49.603  0.00  0.00    +0.000 A 
ATOM     20  C   UNL     1      24.814   4.488  49.970  0.00  0.00    +0.000 A 
ATOM     21  C   UNL     1      24.165   4.093  51.132  0.00  0.00    +0.000 A 
ATOM     22  N   UNL     1      24.640   3.111  51.951  0.00  0.00    +0.000 NA
BRANCH  21  23
ATOM     23  C   UNL     1      22.870   4.741  51.493  0.00  0.00    +0.000 C 
ATOM     24  O   UNL     1      22.350   4.668  52.598  0.00  0.00    +0.000 OA
BRANCH  23  25
ATOM     25  O   UNL     1      22.373   5.437  50.430  0.00  0.00    +0.000 OA
ATOM     26  C   UNL     1      21.101   4.993  49.972  0.00  0.00    +0.000 C 
ENDBRANCH  23  25
ENDBRANCH  21  23
ENDBRANCH  16  17
ENDBRANCH  15  16
ENDBRANCH   5  15
TORSDOF 11
ENDMDL
MODEL 9
REMARK VINA RESULT:    -6.445      2.215      7.147
REMARK INTER + INTRA:         -12.018
REMARK INTER:                 -10.465
REMARK INTRA:                  -1.553
REMARK UNBOUND:                -1.616
REMARK  Name = 
REMARK  13 active torsions:
REMARK  status: ('A' for Active; 'I' for Inactive)
REMARK    1  A    between atoms: C_1  and  C_2
REMARK    2  A    between atoms: C_2  and  C_3
REMARK    3  A    between atoms: C_3  and  C_4
REMARK    4  A    between atoms: C_4  and  C_5
REMARK    5  A    between atoms: C_5  and  C_6
REMARK    6  A    between atoms: C_6  and  O_7
REMARK    7  A    between atoms: C_6  and  C_8
REMARK    8  A    between atoms: C_12  and  O_13
REMARK    9  A    between atoms: O_13  and  C_14
REMARK   10  A    between atoms: C_14  and  C_15
REMARK   11  A    between atoms: C_19  and  C_20
REMARK   12  A    between atoms: C_20  and  O_22
REMARK   13  A    between atoms: O_22  and  C_23
REMARK                            x       y       z     vdW  Elec       q    Type
REMARK                         _______ _______ _______ _____ _____    ______ ____
ROOT
ATOM      1  C   UNL     1      23.572   6.091  49.865  0.00  0.00    +0.000 A 
ATOM      2  C   UNL     1      23.393   5.551  48.585  0.00  0.00    +0.000 A 
ATOM      3  C   UNL     1      23.174   4.184  48.415  0.00  0.00    +0.000 A 
ATOM      4  C   UNL     1      23.096   3.338  49.523  0.00  0.00    +0.000 A 
ATOM      5  C   UNL     1      23.192   3.867  50.809  0.00  0.00    +0.000 A 
ATOM      6  C   UNL     1      23.439   5.237  50.972  0.00  0.00    +0.000 A 
ENDROOT
BRANCH   1   7
ATOM      7  C   UNL     1      23.938   7.552  50.021  0.00  0.00    +0.000 C 
BRANCH   7   8
ATOM      8  O   UNL     1      24.209   7.811  51.399  0.00  0.00    +0.000 OA
ATOM      9  H   UNL     1      23.540   7.374  51.948  0.00  0.00    +0.000 HD
ENDBRANCH   7   8
BRANCH   7  10
ATOM     10  C   UNL     1      25.132   7.996  49.155  0.00  0.00    +0.000 C 
BRANCH  10  11
ATOM     11  C   UNL     1      26.444   7.279  49.496  0.00  0.00    +0.000 C 
BRANCH  11  12
ATOM     12  C   UNL     1      27.078   6.659  48.246  0.00  0.00    +0.000 C 
BRANCH  12  14
ATOM     13  C   UNL     1      26.825   4.343  49.210  0.00  0.00    +0.000 C 
ATOM     14  C   UNL     1      27.779   5.340  48.569  0.00  0.00    +0.000 C 
ENDBRANCH  12  14
ENDBRANCH  11  12
ENDBRANCH  10  11
ENDBRANCH   7  10
ENDBRANCH   1   7
BRANCH   5  15
ATOM     15  O   UNL     1      22.994   3.166  51.966  0.00  0.00    +0.000 OA
BRANCH  15  16
ATOM     16  C   UNL     1      24.080   3.099  52.896  0.00  0.00    +0.000 C 
BRANCH  16  17
ATOM     17  C   UNL     1      24.645   1.715  53.156  0.00  0.00    +0.000 A 
ATOM     18  C   UNL     1      23.827   0.590  53.240  0.00  0.00    +0.000 A 
ATOM     19  C   UNL     1      24.391  -0.631  53.608  0.00  0.00    +0.000 A 
ATOM     20  C   UNL     1      25.757  -0.710  53.866  0.00  0.00    +0.000 A 
ATOM     21  C   UNL     1      26.518   0.442  53.721  0.00  0.00    +0.000 A 
ATOM     22  N   UNL     1      25.981   1.650  53.387  0.00  0.00    +0.000 NA
BRANCH  21  23
ATOM     23  C   UNL     1      27.998   0.358  53.900  0.00  0.00    +0.000 C 
ATOM     24  O   UNL     1      28.671   1.212  54.460  0.00  0.00    +0.000 OA
BRANCH  23  25
ATOM     25  O   UNL     1      28.475  -0.809  53.378  0.00  0.00    +0.000 OA
ATOM     26  C   UNL     1      29.837  -1.085  53.686  0.00  0.00    +0.000 C 
ENDBRANCH  23  25
ENDBRANCH  21  23
ENDBRANCH  16  17
ENDBRANCH  15  16
ENDBRANCH   5  15
TORSDOF 11
ENDMDL
