MODEL 1
REMARK VINA RESULT:    -8.581      0.000      0.000
REMARK INTER + INTRA:         -12.626
REMARK INTER:                 -11.591
REMARK INTRA:                  -1.036
REMARK UNBOUND:                -1.036
REMARK  Name = 
REMARK  12 active torsions:
REMARK  status: ('A' for Active; 'I' for Inactive)
REMARK    1  A    between atoms: C_1  and  C_2
REMARK    2  A    between atoms: C_2  and  C_3
REMARK    3  A    between atoms: C_3  and  C_4
REMARK    4  A    between atoms: C_10  and  C_11
REMARK    5  A    between atoms: C_11  and  C_13
REMARK    6  A    between atoms: C_13  and  C_14
REMARK    7  A    between atoms: C_13  and  C_15
REMARK    8  A    between atoms: C_15  and  C_16
REMARK    9  A    between atoms: C_15  and  O_17
REMARK   10  A    between atoms: C_18  and  O_19
REMARK   11  A    between atoms: C_24  and  C_25
REMARK   12  A    between atoms: C_24  and  C_26
REMARK                            x       y       z     vdW  Elec       q    Type
REMARK                         _______ _______ _______ _____ _____    ______ ____
ROOT
ATOM      1  C   UNL     1      21.840   1.889  52.463  0.00  0.00    +0.000 A 
ATOM      2  C   UNL     1      21.649   0.781  53.203  0.00  0.00    +0.000 A 
ATOM      3  C   UNL     1      22.543  -0.373  53.137  0.00  0.00    +0.000 A 
ATOM      4  O   UNL     1      22.172  -1.501  53.425  0.00  0.00    +0.000 OA
ATOM      5  O   UNL     1      23.834  -0.052  52.817  0.00  0.00    +0.000 OA
ATOM      6  C   UNL     1      24.156   1.232  52.325  0.00  0.00    +0.000 A 
ATOM      7  C   UNL     1      25.505   1.601  52.361  0.00  0.00    +0.000 A 
ATOM      8  C   UNL     1      25.906   2.637  51.535  0.00  0.00    +0.000 A 
ATOM      9  C   UNL     1      24.962   3.293  50.703  0.00  0.00    +0.000 A 
ATOM     10  C   UNL     1      23.563   3.052  50.887  0.00  0.00    +0.000 A 
ATOM     11  C   UNL     1      23.153   2.052  51.790  0.00  0.00    +0.000 A 
ATOM     12  O   UNL     1      22.616   3.773  50.196  0.00  0.00    +0.000 OA
ATOM     13  C   UNL     1      23.001   4.478  48.983  0.00  0.00    +0.000 C 
ATOM     14  C   UNL     1      22.477   3.675  47.791  0.00  0.00    +0.000 C 
ATOM     15  C   UNL     1      22.339   5.852  49.007  0.00  0.00    +0.000 C 
ATOM     16  C   UNL     1      24.489   4.709  48.827  0.00  0.00    +0.000 C 
ATOM     17  C   UNL     1      25.392   4.214  49.670  0.00  0.00    +0.000 C 
ENDROOT
BRANCH   7  18
ATOM     18  C   UNL     1      26.343   0.849  53.334  0.00  0.00    +0.000 C 
ATOM     19  O   UNL     1      26.209   1.089  54.537  0.00  0.00    +0.000 OA
BRANCH  18  20
ATOM     20  C   UNL     1      27.388  -0.187  52.906  0.00  0.00    +0.000 C 
ATOM     21  C   UNL     1      26.930  -1.639  52.757  0.00  0.00    +0.000 C 
BRANCH  20  22
ATOM     22  C   UNL     1      28.599   0.034  53.828  0.00  0.00    +0.000 C 
ATOM     23  C   UNL     1      29.883  -0.573  53.290  0.00  0.00    +0.000 C 
BRANCH  22  24
ATOM     24  O   UNL     1      28.310  -0.469  55.132  0.00  0.00    +0.000 OA
ATOM     25  H   UNL     1      27.463  -0.943  55.115  0.00  0.00    +0.000 HD
ENDBRANCH  22  24
ENDBRANCH  20  22
ENDBRANCH  18  20
ENDBRANCH   7  18
BRANCH   8  26
ATOM     26  O   UNL     1      27.205   3.052  51.417  0.00  0.00    +0.000 OA
ATOM     27  H   UNL     1      27.561   3.659  52.036  0.00  0.00    +0.000 HD
ENDBRANCH   8  26
BRANCH   1  28
ATOM     28  C   UNL     1      20.859   3.026  52.641  0.00  0.00    +0.000 C 
BRANCH  28  30
ATOM     29  C   UNL     1      19.291   4.108  50.977  0.00  0.00    +0.000 C 
ATOM     30  C   UNL     1      19.569   2.869  51.826  0.00  0.00    +0.000 C 
ENDBRANCH  28  30
ENDBRANCH   1  28
TORSDOF 7
ENDMDL
MODEL 2
REMARK VINA RESULT:    -8.542      2.626      7.104
REMARK INTER + INTRA:         -12.574
REMARK INTER:                 -11.732
REMARK INTRA:                  -0.843
REMARK UNBOUND:                -1.036
REMARK  Name = 
REMARK  12 active torsions:
REMARK  status: ('A' for Active; 'I' for Inactive)
REMARK    1  A    between atoms: C_1  and  C_2
REMARK    2  A    between atoms: C_2  and  C_3
REMARK    3  A    between atoms: C_3  and  C_4
REMARK    4  A    between atoms: C_10  and  C_11
REMARK    5  A    between atoms: C_11  and  C_13
REMARK    6  A    between atoms: C_13  and  C_14
REMARK    7  A    between atoms: C_13  and  C_15
REMARK    8  A    between atoms: C_15  and  C_16
REMARK    9  A    between atoms: C_15  and  O_17
REMARK   10  A    between atoms: C_18  and  O_19
REMARK   11  A    between atoms: C_24  and  C_25
REMARK   12  A    between atoms: C_24  and  C_26
REMARK                            x       y       z     vdW  Elec       q    Type
REMARK                         _______ _______ _______ _____ _____    ______ ____
ROOT
ATOM      1  C   UNL     1      23.613   2.137  50.785  0.00  0.00    +0.000 A 
ATOM      2  C   UNL     1      22.875   2.449  49.702  0.00  0.00    +0.000 A 
ATOM      3  C   UNL     1      21.768   1.617  49.238  0.00  0.00    +0.000 A 
ATOM      4  O   UNL     1      21.396   1.619  48.074  0.00  0.00    +0.000 OA
ATOM      5  O   UNL     1      21.144   0.921  50.238  0.00  0.00    +0.000 OA
ATOM      6  C   UNL     1      21.728   0.822  51.519  0.00  0.00    +0.000 A 
ATOM      7  C   UNL     1      20.892   0.417  52.564  0.00  0.00    +0.000 A 
ATOM      8  C   UNL     1      21.491  -0.081  53.708  0.00  0.00    +0.000 A 
ATOM      9  C   UNL     1      22.907  -0.154  53.797  0.00  0.00    +0.000 A 
ATOM     10  C   UNL     1      23.716   0.501  52.814  0.00  0.00    +0.000 A 
ATOM     11  C   UNL     1      23.096   1.080  51.690  0.00  0.00    +0.000 A 
ATOM     12  O   UNL     1      25.084   0.569  52.946  0.00  0.00    +0.000 OA
ATOM     13  C   UNL     1      25.763  -0.363  53.833  0.00  0.00    +0.000 C 
ATOM     14  C   UNL     1      26.441  -1.424  52.964  0.00  0.00    +0.000 C 
ATOM     15  C   UNL     1      26.820   0.415  54.612  0.00  0.00    +0.000 C 
ATOM     16  C   UNL     1      24.870  -1.035  54.854  0.00  0.00    +0.000 C 
ATOM     17  C   UNL     1      23.549  -0.879  54.876  0.00  0.00    +0.000 C 
ENDROOT
BRANCH   7  18
ATOM     18  C   UNL     1      19.436   0.620  52.327  0.00  0.00    +0.000 C 
ATOM     19  O   UNL     1      18.971   1.756  52.451  0.00  0.00    +0.000 OA
BRANCH  18  20
ATOM     20  C   UNL     1      18.484  -0.525  51.967  0.00  0.00    +0.000 C 
ATOM     21  C   UNL     1      17.498  -0.296  50.821  0.00  0.00    +0.000 C 
BRANCH  20  22
ATOM     22  C   UNL     1      17.859  -0.984  53.296  0.00  0.00    +0.000 C 
ATOM     23  C   UNL     1      18.064  -2.462  53.579  0.00  0.00    +0.000 C 
BRANCH  22  24
ATOM     24  O   UNL     1      16.471  -0.653  53.314  0.00  0.00    +0.000 OA
ATOM     25  H   UNL     1      15.989  -1.250  52.720  0.00  0.00    +0.000 HD
ENDBRANCH  22  24
ENDBRANCH  20  22
ENDBRANCH  18  20
ENDBRANCH   7  18
BRANCH   8  26
ATOM     26  O   UNL     1      20.794  -0.578  54.775  0.00  0.00    +0.000 OA
ATOM     27  H   UNL     1      20.050  -1.130  54.632  0.00  0.00    +0.000 HD
ENDBRANCH   8  26
BRANCH   1  28
ATOM     28  C   UNL     1      24.715   3.093  51.180  0.00  0.00    +0.000 C 
BRANCH  28  30
ATOM     29  C   UNL     1      26.512   3.736  49.520  0.00  0.00    +0.000 C 
ATOM     30  C   UNL     1      26.088   2.737  50.595  0.00  0.00    +0.000 C 
ENDBRANCH  28  30
ENDBRANCH   1  28
TORSDOF 7
ENDMDL
MODEL 3
REMARK VINA RESULT:    -8.290      1.679      4.415
REMARK INTER + INTRA:         -12.233
REMARK INTER:                 -10.935
REMARK INTRA:                  -1.299
REMARK UNBOUND:                -1.036
REMARK  Name = 
REMARK  12 active torsions:
REMARK  status: ('A' for Active; 'I' for Inactive)
REMARK    1  A    between atoms: C_1  and  C_2
REMARK    2  A    between atoms: C_2  and  C_3
REMARK    3  A    between atoms: C_3  and  C_4
REMARK    4  A    between atoms: C_10  and  C_11
REMARK    5  A    between atoms: C_11  and  C_13
REMARK    6  A    between atoms: C_13  and  C_14
REMARK    7  A    between atoms: C_13  and  C_15
REMARK    8  A    between atoms: C_15  and  C_16
REMARK    9  A    between atoms: C_15  and  O_17
REMARK   10  A    between atoms: C_18  and  O_19
REMARK   11  A    between atoms: C_24  and  C_25
REMARK   12  A    between atoms: C_24  and  C_26
REMARK                            x       y       z     vdW  Elec       q    Type
REMARK                         _______ _______ _______ _____ _____    ______ ____
ROOT
ATOM      1  C   UNL     1      23.228   2.671  49.375  0.00  0.00    +0.000 A 
ATOM      2  C   UNL     1      24.331   3.397  49.112  0.00  0.00    +0.000 A 
ATOM      3  C   UNL     1      25.257   3.829  50.157  0.00  0.00    +0.000 A 
ATOM      4  O   UNL     1      25.970   4.812  50.028  0.00  0.00    +0.000 OA
ATOM      5  O   UNL     1      25.309   2.983  51.232  0.00  0.00    +0.000 OA
ATOM      6  C   UNL     1      24.338   1.972  51.399  0.00  0.00    +0.000 A 
ATOM      7  C   UNL     1      24.647   0.943  52.295  0.00  0.00    +0.000 A 
ATOM      8  C   UNL     1      23.598   0.188  52.789  0.00  0.00    +0.000 A 
ATOM      9  C   UNL     1      22.267   0.459  52.375  0.00  0.00    +0.000 A 
ATOM     10  C   UNL     1      22.030   1.345  51.275  0.00  0.00    +0.000 A 
ATOM     11  C   UNL     1      23.114   2.052  50.720  0.00  0.00    +0.000 A 
ATOM     12  O   UNL     1      20.768   1.521  50.758  0.00  0.00    +0.000 OA
ATOM     13  C   UNL     1      19.610   1.157  51.562  0.00  0.00    +0.000 C 
ATOM     14  C   UNL     1      18.987   2.449  52.093  0.00  0.00    +0.000 C 
ATOM     15  C   UNL     1      18.614   0.441  50.655  0.00  0.00    +0.000 C 
ATOM     16  C   UNL     1      19.905   0.222  52.716  0.00  0.00    +0.000 C 
ATOM     17  C   UNL     1      21.138  -0.155  53.046  0.00  0.00    +0.000 C 
ENDROOT
BRANCH   7  18
ATOM     18  C   UNL     1      26.098   0.759  52.573  0.00  0.00    +0.000 C 
ATOM     19  O   UNL     1      26.752   0.023  51.829  0.00  0.00    +0.000 OA
BRANCH  18  20
ATOM     20  C   UNL     1      26.807   1.415  53.762  0.00  0.00    +0.000 C 
ATOM     21  C   UNL     1      27.939   2.399  53.459  0.00  0.00    +0.000 C 
BRANCH  20  22
ATOM     22  C   UNL     1      27.166   0.268  54.722  0.00  0.00    +0.000 C 
ATOM     23  C   UNL     1      28.658  -0.002  54.804  0.00  0.00    +0.000 C 
BRANCH  22  24
ATOM     24  O   UNL     1      26.459  -0.914  54.345  0.00  0.00    +0.000 OA
ATOM     25  H   UNL     1      26.581  -1.074  53.396  0.00  0.00    +0.000 HD
ENDBRANCH  22  24
ENDBRANCH  20  22
ENDBRANCH  18  20
ENDBRANCH   7  18
BRANCH   8  26
ATOM     26  O   UNL     1      23.748  -0.799  53.725  0.00  0.00    +0.000 OA
ATOM     27  H   UNL     1      24.584  -1.205  53.847  0.00  0.00    +0.000 HD
ENDBRANCH   8  26
BRANCH   1  28
ATOM     28  C   UNL     1      22.363   2.263  48.204  0.00  0.00    +0.000 C 
BRANCH  28  30
ATOM     29  C   UNL     1      20.732   4.174  48.497  0.00  0.00    +0.000 C 
ATOM     30  C   UNL     1      21.645   3.434  47.521  0.00  0.00    +0.000 C 
ENDBRANCH  28  30
ENDBRANCH   1  28
TORSDOF 7
ENDMDL
MODEL 4
REMARK VINA RESULT:    -7.834      2.108      4.892
REMARK INTER + INTRA:         -11.618
REMARK INTER:                 -11.082
REMARK INTRA:                  -0.536
REMARK UNBOUND:                -1.036
REMARK  Name = 
REMARK  12 active torsions:
REMARK  status: ('A' for Active; 'I' for Inactive)
REMARK    1  A    between atoms: C_1  and  C_2
REMARK    2  A    between atoms: C_2  and  C_3
REMARK    3  A    between atoms: C_3  and  C_4
REMARK    4  A    between atoms: C_10  and  C_11
REMARK    5  A    between atoms: C_11  and  C_13
REMARK    6  A    between atoms: C_13  and  C_14
REMARK    7  A    between atoms: C_13  and  C_15
REMARK    8  A    between atoms: C_15  and  C_16
REMARK    9  A    between atoms: C_15  and  O_17
REMARK   10  A    between atoms: C_18  and  O_19
REMARK   11  A    between atoms: C_24  and  C_25
REMARK   12  A    between atoms: C_24  and  C_26
REMARK                            x       y       z     vdW  Elec       q    Type
REMARK                         _______ _______ _______ _____ _____    ______ ____
ROOT
ATOM      1  C   UNL     1      22.395   1.619  50.225  0.00  0.00    +0.000 A 
ATOM      2  C   UNL     1      23.585   2.248  50.245  0.00  0.00    +0.000 A 
ATOM      3  C   UNL     1      24.258   2.618  51.488  0.00  0.00    +0.000 A 
ATOM      4  O   UNL     1      25.060   3.538  51.544  0.00  0.00    +0.000 OA
ATOM      5  O   UNL     1      23.975   1.787  52.537  0.00  0.00    +0.000 OA
ATOM      6  C   UNL     1      22.912   0.860  52.455  0.00  0.00    +0.000 A 
ATOM      7  C   UNL     1      22.906  -0.177  53.393  0.00  0.00    +0.000 A 
ATOM      8  C   UNL     1      21.709  -0.837  53.610  0.00  0.00    +0.000 A 
ATOM      9  C   UNL     1      20.548  -0.465  52.883  0.00  0.00    +0.000 A 
ATOM     10  C   UNL     1      20.662   0.422  51.764  0.00  0.00    +0.000 A 
ATOM     11  C   UNL     1      21.903   1.030  51.496  0.00  0.00    +0.000 A 
ATOM     12  O   UNL     1      19.584   0.692  50.954  0.00  0.00    +0.000 OA
ATOM     13  C   UNL     1      18.239   0.436  51.446  0.00  0.00    +0.000 C 
ATOM     14  C   UNL     1      17.613   1.782  51.815  0.00  0.00    +0.000 C 
ATOM     15  C   UNL     1      17.440  -0.210  50.318  0.00  0.00    +0.000 C 
ATOM     16  C   UNL     1      18.163  -0.503  52.631  0.00  0.00    +0.000 C 
ATOM     17  C   UNL     1      19.242  -0.975  53.252  0.00  0.00    +0.000 C 
ENDROOT
BRANCH   7  18
ATOM     18  C   UNL     1      24.224  -0.475  54.018  0.00  0.00    +0.000 C 
ATOM     19  O   UNL     1      24.242  -0.967  55.150  0.00  0.00    +0.000 OA
BRANCH  18  20
ATOM     20  C   UNL     1      25.559  -0.168  53.332  0.00  0.00    +0.000 C 
ATOM     21  C   UNL     1      26.276  -1.320  52.625  0.00  0.00    +0.000 C 
BRANCH  20  22
ATOM     22  C   UNL     1      26.398   0.597  54.369  0.00  0.00    +0.000 C 
ATOM     23  C   UNL     1      27.277   1.673  53.757  0.00  0.00    +0.000 C 
BRANCH  22  24
ATOM     24  O   UNL     1      27.181  -0.324  55.128  0.00  0.00    +0.000 OA
ATOM     25  H   UNL     1      27.109  -1.209  54.737  0.00  0.00    +0.000 HD
ENDBRANCH  22  24
ENDBRANCH  20  22
ENDBRANCH  18  20
ENDBRANCH   7  18
BRANCH   8  26
ATOM     26  O   UNL     1      21.543  -1.819  54.548  0.00  0.00    +0.000 OA
ATOM     27  H   UNL     1      21.236  -1.601  55.406  0.00  0.00    +0.000 HD
ENDBRANCH   8  26
BRANCH   1  28
ATOM     28  C   UNL     1      21.813   1.265  48.875  0.00  0.00    +0.000 C 
BRANCH  28  30
ATOM     29  C   UNL     1      21.972   3.034  47.074  0.00  0.00    +0.000 C 
ATOM     30  C   UNL     1      21.103   2.433  48.177  0.00  0.00    +0.000 C 
ENDBRANCH  28  30
ENDBRANCH   1  28
TORSDOF 7
ENDMDL
MODEL 5
REMARK VINA RESULT:    -7.648      2.136      7.181
REMARK INTER + INTRA:         -11.367
REMARK INTER:                 -10.386
REMARK INTRA:                  -0.981
REMARK UNBOUND:                -1.036
REMARK  Name = 
REMARK  12 active torsions:
REMARK  status: ('A' for Active; 'I' for Inactive)
REMARK    1  A    between atoms: C_1  and  C_2
REMARK    2  A    between atoms: C_2  and  C_3
REMARK    3  A    between atoms: C_3  and  C_4
REMARK    4  A    between atoms: C_10  and  C_11
REMARK    5  A    between atoms: C_11  and  C_13
REMARK    6  A    between atoms: C_13  and  C_14
REMARK    7  A    between atoms: C_13  and  C_15
REMARK    8  A    between atoms: C_15  and  C_16
REMARK    9  A    between atoms: C_15  and  O_17
REMARK   10  A    between atoms: C_18  and  O_19
REMARK   11  A    between atoms: C_24  and  C_25
REMARK   12  A    between atoms: C_24  and  C_26
REMARK                            x       y       z     vdW  Elec       q    Type
REMARK                         _______ _______ _______ _____ _____    ______ ____
ROOT
ATOM      1  C   UNL     1      24.044   2.673  50.234  0.00  0.00    +0.000 A 
ATOM      2  C   UNL     1      23.393   3.026  49.109  0.00  0.00    +0.000 A 
ATOM      3  C   UNL     1      22.371   2.181  48.493  0.00  0.00    +0.000 A 
ATOM      4  O   UNL     1      22.106   2.244  47.302  0.00  0.00    +0.000 OA
ATOM      5  O   UNL     1      21.692   1.398  49.386  0.00  0.00    +0.000 OA
ATOM      6  C   UNL     1      22.163   1.239  50.708  0.00  0.00    +0.000 A 
ATOM      7  C   UNL     1      21.255   0.734  51.644  0.00  0.00    +0.000 A 
ATOM      8  C   UNL     1      21.772   0.187  52.806  0.00  0.00    +0.000 A 
ATOM      9  C   UNL     1      23.175   0.165  53.021  0.00  0.00    +0.000 A 
ATOM     10  C   UNL     1      24.039   0.914  52.160  0.00  0.00    +0.000 A 
ATOM     11  C   UNL     1      23.496   1.540  51.021  0.00  0.00    +0.000 A 
ATOM     12  O   UNL     1      25.385   1.029  52.422  0.00  0.00    +0.000 OA
ATOM     13  C   UNL     1      26.024   0.069  53.309  0.00  0.00    +0.000 C 
ATOM     14  C   UNL     1      26.825  -0.905  52.444  0.00  0.00    +0.000 C 
ATOM     15  C   UNL     1      26.969   0.836  54.229  0.00  0.00    +0.000 C 
ATOM     16  C   UNL     1      25.074  -0.703  54.200  0.00  0.00    +0.000 C 
ATOM     17  C   UNL     1      23.750  -0.602  54.109  0.00  0.00    +0.000 C 
ENDROOT
BRANCH   7  18
ATOM     18  C   UNL     1      19.819   0.893  51.286  0.00  0.00    +0.000 C 
ATOM     19  O   UNL     1      19.076  -0.087  51.379  0.00  0.00    +0.000 OA
BRANCH  18  20
ATOM     20  C   UNL     1      19.231   2.212  50.775  0.00  0.00    +0.000 C 
ATOM     21  C   UNL     1      19.233   3.408  51.729  0.00  0.00    +0.000 C 
BRANCH  20  22
ATOM     22  C   UNL     1      17.864   1.854  50.166  0.00  0.00    +0.000 C 
ATOM     23  C   UNL     1      17.469   2.750  49.006  0.00  0.00    +0.000 C 
BRANCH  22  24
ATOM     24  O   UNL     1      16.864   1.875  51.184  0.00  0.00    +0.000 OA
ATOM     25  H   UNL     1      17.276   1.710  52.046  0.00  0.00    +0.000 HD
ENDBRANCH  22  24
ENDBRANCH  20  22
ENDBRANCH  18  20
ENDBRANCH   7  18
BRANCH   8  26
ATOM     26  O   UNL     1      21.005  -0.406  53.771  0.00  0.00    +0.000 OA
ATOM     27  H   UNL     1      20.892  -1.337  53.774  0.00  0.00    +0.000 HD
ENDBRANCH   8  26
BRANCH   1  28
ATOM     28  C   UNL     1      25.061   3.645  50.787  0.00  0.00    +0.000 C 
BRANCH  28  30
ATOM     29  C   UNL     1      26.825   4.440  49.158  0.00  0.00    +0.000 C 
ATOM     30  C   UNL     1      26.483   3.431  50.252  0.00  0.00    +0.000 C 
ENDBRANCH  28  30
ENDBRANCH   1  28
TORSDOF 7
ENDMDL
MODEL 6
REMARK VINA RESULT:    -7.619      1.680      5.896
REMARK INTER + INTRA:         -11.327
REMARK INTER:                 -10.491
REMARK INTRA:                  -0.836
REMARK UNBOUND:                -1.036
REMARK  Name = 
REMARK  12 active torsions:
REMARK  status: ('A' for Active; 'I' for Inactive)
REMARK    1  A    between atoms: C_1  and  C_2
REMARK    2  A    between atoms: C_2  and  C_3
REMARK    3  A    between atoms: C_3  and  C_4
REMARK    4  A    between atoms: C_10  and  C_11
REMARK    5  A    between atoms: C_11  and  C_13
REMARK    6  A    between atoms: C_13  and  C_14
REMARK    7  A    between atoms: C_13  and  C_15
REMARK    8  A    between atoms: C_15  and  C_16
REMARK    9  A    between atoms: C_15  and  O_17
REMARK   10  A    between atoms: C_18  and  O_19
REMARK   11  A    between atoms: C_24  and  C_25
REMARK   12  A    between atoms: C_24  and  C_26
REMARK                            x       y       z     vdW  Elec       q    Type
REMARK                         _______ _______ _______ _____ _____    ______ ____
ROOT
ATOM      1  C   UNL     1      22.192   1.247  52.087  0.00  0.00    +0.000 A 
ATOM      2  C   UNL     1      21.100   2.012  51.896  0.00  0.00    +0.000 A 
ATOM      3  C   UNL     1      21.167   3.468  51.792  0.00  0.00    +0.000 A 
ATOM      4  O   UNL     1      20.215   4.184  52.065  0.00  0.00    +0.000 OA
ATOM      5  O   UNL     1      22.349   3.930  51.280  0.00  0.00    +0.000 OA
ATOM      6  C   UNL     1      23.464   3.073  51.156  0.00  0.00    +0.000 A 
ATOM      7  C   UNL     1      24.497   3.500  50.315  0.00  0.00    +0.000 A 
ATOM      8  C   UNL     1      25.741   2.918  50.484  0.00  0.00    +0.000 A 
ATOM      9  C   UNL     1      25.932   1.917  51.472  0.00  0.00    +0.000 A 
ATOM     10  C   UNL     1      24.799   1.339  52.128  0.00  0.00    +0.000 A 
ATOM     11  C   UNL     1      23.521   1.881  51.891  0.00  0.00    +0.000 A 
ATOM     12  O   UNL     1      24.936   0.272  52.985  0.00  0.00    +0.000 OA
ATOM     13  C   UNL     1      26.240  -0.014  53.566  0.00  0.00    +0.000 C 
ATOM     14  C   UNL     1      26.217   0.459  55.020  0.00  0.00    +0.000 C 
ATOM     15  C   UNL     1      26.455  -1.524  53.520  0.00  0.00    +0.000 C 
ATOM     16  C   UNL     1      27.410   0.619  52.843  0.00  0.00    +0.000 C 
ATOM     17  C   UNL     1      27.263   1.462  51.824  0.00  0.00    +0.000 C 
ENDROOT
BRANCH   7  18
ATOM     18  C   UNL     1      24.107   4.512  49.295  0.00  0.00    +0.000 C 
ATOM     19  O   UNL     1      23.308   4.185  48.415  0.00  0.00    +0.000 OA
BRANCH  18  20
ATOM     20  C   UNL     1      24.681   5.933  49.272  0.00  0.00    +0.000 C 
ATOM     21  C   UNL     1      26.046   6.137  48.611  0.00  0.00    +0.000 C 
BRANCH  20  22
ATOM     22  C   UNL     1      24.559   6.458  50.713  0.00  0.00    +0.000 C 
ATOM     23  C   UNL     1      23.316   7.300  50.942  0.00  0.00    +0.000 C 
BRANCH  22  24
ATOM     24  O   UNL     1      25.735   7.189  51.061  0.00  0.00    +0.000 OA
ATOM     25  H   UNL     1      25.485   8.071  51.377  0.00  0.00    +0.000 HD
ENDBRANCH  22  24
ENDBRANCH  20  22
ENDBRANCH  18  20
ENDBRANCH   7  18
BRANCH   8  26
ATOM     26  O   UNL     1      26.854   3.291  49.781  0.00  0.00    +0.000 OA
ATOM     27  H   UNL     1      27.658   3.463  50.232  0.00  0.00    +0.000 HD
ENDBRANCH   8  26
BRANCH   1  28
ATOM     28  C   UNL     1      21.995  -0.251  52.151  0.00  0.00    +0.000 C 
BRANCH  28  30
ATOM     29  C   UNL     1      22.087  -0.823  54.613  0.00  0.00    +0.000 C 
ATOM     30  C   UNL     1      21.199  -0.723  53.374  0.00  0.00    +0.000 C 
ENDBRANCH  28  30
ENDBRANCH   1  28
TORSDOF 7
ENDMDL
MODEL 7
REMARK VINA RESULT:    -7.076      2.058      5.255
REMARK INTER + INTRA:         -10.595
REMARK INTER:                  -9.384
REMARK INTRA:                  -1.210
REMARK UNBOUND:                -1.036
REMARK  Name = 
REMARK  12 active torsions:
REMARK  status: ('A' for Active; 'I' for Inactive)
REMARK    1  A    between atoms: C_1  and  C_2
REMARK    2  A    between atoms: C_2  and  C_3
REMARK    3  A    between atoms: C_3  and  C_4
REMARK    4  A    between atoms: C_10  and  C_11
REMARK    5  A    between atoms: C_11  and  C_13
REMARK    6  A    between atoms: C_13  and  C_14
REMARK    7  A    between atoms: C_13  and  C_15
REMARK    8  A    between atoms: C_15  and  C_16
REMARK    9  A    between atoms: C_15  and  O_17
REMARK   10  A    between atoms: C_18  and  O_19
REMARK   11  A    between atoms: C_24  and  C_25
REMARK   12  A    between atoms: C_24  and  C_26
REMARK                            x       y       z     vdW  Elec       q    Type
REMARK                         _______ _______ _______ _____ _____    ______ ____
ROOT
ATOM      1  C   UNL     1      25.708   3.104  50.403  0.00  0.00    +0.000 A 
ATOM      2  C   UNL     1      26.453   2.127  50.953  0.00  0.00    +0.000 A 
ATOM      3  C   UNL     1      26.133   1.528  52.248  0.00  0.00    +0.000 A 
ATOM      4  O   UNL     1      26.984   1.001  52.948  0.00  0.00    +0.000 OA
ATOM      5  O   UNL     1      24.797   1.535  52.544  0.00  0.00    +0.000 OA
ATOM      6  C   UNL     1      23.896   2.312  51.784  0.00  0.00    +0.000 A 
ATOM      7  C   UNL     1      22.538   2.001  51.906  0.00  0.00    +0.000 A 
ATOM      8  C   UNL     1      21.623   2.968  51.524  0.00  0.00    +0.000 A 
ATOM      9  C   UNL     1      22.074   4.214  51.016  0.00  0.00    +0.000 A 
ATOM     10  C   UNL     1      23.453   4.388  50.676  0.00  0.00    +0.000 A 
ATOM     11  C   UNL     1      24.370   3.367  50.992  0.00  0.00    +0.000 A 
ATOM     12  O   UNL     1      23.897   5.531  50.052  0.00  0.00    +0.000 OA
ATOM     13  C   UNL     1      23.085   6.737  50.109  0.00  0.00    +0.000 C 
ATOM     14  C   UNL     1      23.728   7.686  51.121  0.00  0.00    +0.000 C 
ATOM     15  C   UNL     1      23.096   7.378  48.724  0.00  0.00    +0.000 C 
ATOM     16  C   UNL     1      21.633   6.509  50.476  0.00  0.00    +0.000 C 
ATOM     17  C   UNL     1      21.153   5.319  50.830  0.00  0.00    +0.000 C 
ENDROOT
BRANCH   7  18
ATOM     18  C   UNL     1      22.243   0.628  52.399  0.00  0.00    +0.000 C 
ATOM     19  O   UNL     1      22.073  -0.271  51.571  0.00  0.00    +0.000 OA
BRANCH  18  20
ATOM     20  C   UNL     1      22.108   0.288  53.887  0.00  0.00    +0.000 C 
ATOM     21  C   UNL     1      23.160  -0.636  54.503  0.00  0.00    +0.000 C 
BRANCH  20  22
ATOM     22  C   UNL     1      20.646  -0.147  54.087  0.00  0.00    +0.000 C 
ATOM     23  C   UNL     1      20.483  -1.647  54.256  0.00  0.00    +0.000 C 
BRANCH  22  24
ATOM     24  O   UNL     1      19.850   0.329  53.002  0.00  0.00    +0.000 OA
ATOM     25  H   UNL     1      19.175  -0.333  52.782  0.00  0.00    +0.000 HD
ENDBRANCH  22  24
ENDBRANCH  20  22
ENDBRANCH  18  20
ENDBRANCH   7  18
BRANCH   8  26
ATOM     26  O   UNL     1      20.269   2.825  51.658  0.00  0.00    +0.000 OA
ATOM     27  H   UNL     1      19.919   2.090  52.123  0.00  0.00    +0.000 HD
ENDBRANCH   8  26
BRANCH   1  28
ATOM     28  C   UNL     1      26.127   3.624  49.046  0.00  0.00    +0.000 C 
BRANCH  28  30
ATOM     29  C   UNL     1      26.948   5.994  48.721  0.00  0.00    +0.000 C 
ATOM     30  C   UNL     1      27.339   4.564  49.086  0.00  0.00    +0.000 C 
ENDBRANCH  28  30
ENDBRANCH   1  28
TORSDOF 7
ENDMDL
MODEL 8
REMARK VINA RESULT:    -6.976      2.677      6.146
REMARK INTER + INTRA:         -10.459
REMARK INTER:                  -9.124
REMARK INTRA:                  -1.335
REMARK UNBOUND:                -1.036
REMARK  Name = 
REMARK  12 active torsions:
REMARK  status: ('A' for Active; 'I' for Inactive)
REMARK    1  A    between atoms: C_1  and  C_2
REMARK    2  A    between atoms: C_2  and  C_3
REMARK    3  A    between atoms: C_3  and  C_4
REMARK    4  A    between atoms: C_10  and  C_11
REMARK    5  A    between atoms: C_11  and  C_13
REMARK    6  A    between atoms: C_13  and  C_14
REMARK    7  A    between atoms: C_13  and  C_15
REMARK    8  A    between atoms: C_15  and  C_16
REMARK    9  A    between atoms: C_15  and  O_17
REMARK   10  A    between atoms: C_18  and  O_19
REMARK   11  A    between atoms: C_24  and  C_25
REMARK   12  A    between atoms: C_24  and  C_26
REMARK                            x       y       z     vdW  Elec       q    Type
REMARK                         _______ _______ _______ _____ _____    ______ ____
ROOT
ATOM      1  C   UNL     1      20.006   2.269  50.391  0.00  0.00    +0.000 A 
ATOM      2  C   UNL     1      19.343   3.294  49.822  0.00  0.00    +0.000 A 
ATOM      3  C   UNL     1      19.619   4.690  50.153  0.00  0.00    +0.000 A 
ATOM      4  O   UNL     1      18.781   5.569  50.014  0.00  0.00    +0.000 OA
ATOM      5  O   UNL     1      20.912   4.921  50.537  0.00  0.00    +0.000 OA
ATOM      6  C   UNL     1      21.773   3.846  50.848  0.00  0.00    +0.000 A 
ATOM      7  C   UNL     1      23.143   4.125  50.881  0.00  0.00    +0.000 A 
ATOM      8  C   UNL     1      23.959   3.242  51.566  0.00  0.00    +0.000 A 
ATOM      9  C   UNL     1      23.403   2.094  52.191  0.00  0.00    +0.000 A 
ATOM     10  C   UNL     1      22.048   1.722  51.917  0.00  0.00    +0.000 A 
ATOM     11  C   UNL     1      21.242   2.584  51.150  0.00  0.00    +0.000 A 
ATOM     12  O   UNL     1      21.522   0.543  52.393  0.00  0.00    +0.000 OA
ATOM     13  C   UNL     1      22.169  -0.129  53.510  0.00  0.00    +0.000 C 
ATOM     14  C   UNL     1      21.324   0.125  54.760  0.00  0.00    +0.000 C 
ATOM     15  C   UNL     1      22.200  -1.624  53.207  0.00  0.00    +0.000 C 
ATOM     16  C   UNL     1      23.599   0.298  53.767  0.00  0.00    +0.000 C 
ATOM     17  C   UNL     1      24.191   1.287  53.101  0.00  0.00    +0.000 C 
ENDROOT
BRANCH   7  18
ATOM     18  C   UNL     1      23.562   5.335  50.123  0.00  0.00    +0.000 C 
ATOM     19  O   UNL     1      23.715   5.242  48.902  0.00  0.00    +0.000 OA
BRANCH  18  20
ATOM     20  C   UNL     1      23.845   6.682  50.795  0.00  0.00    +0.000 C 
ATOM     21  C   UNL     1      22.886   7.838  50.502  0.00  0.00    +0.000 C 
BRANCH  20  22
ATOM     22  C   UNL     1      25.333   6.975  50.538  0.00  0.00    +0.000 C 
ATOM     23  C   UNL     1      25.562   8.020  49.460  0.00  0.00    +0.000 C 
BRANCH  22  24
ATOM     24  O   UNL     1      26.015   5.762  50.219  0.00  0.00    +0.000 OA
ATOM     25  H   UNL     1      25.523   5.287  49.531  0.00  0.00    +0.000 HD
ENDBRANCH  22  24
ENDBRANCH  20  22
ENDBRANCH  18  20
ENDBRANCH   7  18
BRANCH   8  26
ATOM     26  O   UNL     1      25.304   3.430  51.739  0.00  0.00    +0.000 OA
ATOM     27  H   UNL     1      25.914   2.842  51.339  0.00  0.00    +0.000 HD
ENDBRANCH   8  26
BRANCH   1  28
ATOM     28  C   UNL     1      19.647   0.870  49.944  0.00  0.00    +0.000 C 
BRANCH  28  30
ATOM     29  C   UNL     1      18.271  -0.306  51.711  0.00  0.00    +0.000 C 
ATOM     30  C   UNL     1      18.243   0.421  50.368  0.00  0.00    +0.000 C 
ENDBRANCH  28  30
ENDBRANCH   1  28
TORSDOF 7
ENDMDL
MODEL 9
REMARK VINA RESULT:    -6.868      2.708      5.757
REMARK INTER + INTRA:         -10.313
REMARK INTER:                  -9.338
REMARK INTRA:                  -0.974
REMARK UNBOUND:                -1.036
REMARK  Name = 
REMARK  12 active torsions:
REMARK  status: ('A' for Active; 'I' for Inactive)
REMARK    1  A    between atoms: C_1  and  C_2
REMARK    2  A    between atoms: C_2  and  C_3
REMARK    3  A    between atoms: C_3  and  C_4
REMARK    4  A    between atoms: C_10  and  C_11
REMARK    5  A    between atoms: C_11  and  C_13
REMARK    6  A    between atoms: C_13  and  C_14
REMARK    7  A    between atoms: C_13  and  C_15
REMARK    8  A    between atoms: C_15  and  C_16
REMARK    9  A    between atoms: C_15  and  O_17
REMARK   10  A    between atoms: C_18  and  O_19
REMARK   11  A    between atoms: C_24  and  C_25
REMARK   12  A    between atoms: C_24  and  C_26
REMARK                            x       y       z     vdW  Elec       q    Type
REMARK                         _______ _______ _______ _____ _____    ______ ____
ROOT
ATOM      1  C   UNL     1      21.582   0.591  53.289  0.00  0.00    +0.000 A 
ATOM      2  C   UNL     1      22.883   0.322  53.504  0.00  0.00    +0.000 A 
ATOM      3  C   UNL     1      23.946   0.838  52.644  0.00  0.00    +0.000 A 
ATOM      4  O   UNL     1      25.027   0.278  52.538  0.00  0.00    +0.000 OA
ATOM      5  O   UNL     1      23.646   2.037  52.056  0.00  0.00    +0.000 OA
ATOM      6  C   UNL     1      22.325   2.537  52.074  0.00  0.00    +0.000 A 
ATOM      7  C   UNL     1      22.162   3.895  51.782  0.00  0.00    +0.000 A 
ATOM      8  C   UNL     1      20.904   4.318  51.390  0.00  0.00    +0.000 A 
ATOM      9  C   UNL     1      19.832   3.390  51.309  0.00  0.00    +0.000 A 
ATOM     10  C   UNL     1      19.987   2.076  51.856  0.00  0.00    +0.000 A 
ATOM     11  C   UNL     1      21.250   1.675  52.331  0.00  0.00    +0.000 A 
ATOM     12  O   UNL     1      18.927   1.200  51.920  0.00  0.00    +0.000 OA
ATOM     13  C   UNL     1      17.767   1.419  51.070  0.00  0.00    +0.000 C 
ATOM     14  C   UNL     1      17.832   0.410  49.922  0.00  0.00    +0.000 C 
ATOM     15  C   UNL     1      16.516   1.165  51.907  0.00  0.00    +0.000 C 
ATOM     16  C   UNL     1      17.644   2.821  50.510  0.00  0.00    +0.000 C 
ATOM     17  C   UNL     1      18.576   3.755  50.684  0.00  0.00    +0.000 C 
ENDROOT
BRANCH   7  18
ATOM     18  C   UNL     1      23.374   4.737  51.979  0.00  0.00    +0.000 C 
ATOM     19  O   UNL     1      23.770   4.941  53.129  0.00  0.00    +0.000 OA
BRANCH  18  20
ATOM     20  C   UNL     1      24.131   5.388  50.817  0.00  0.00    +0.000 C 
ATOM     21  C   UNL     1      25.338   4.640  50.248  0.00  0.00    +0.000 C 
BRANCH  20  22
ATOM     22  C   UNL     1      24.397   6.840  51.251  0.00  0.00    +0.000 C 
ATOM     23  C   UNL     1      23.455   7.842  50.607  0.00  0.00    +0.000 C 
BRANCH  22  24
ATOM     24  O   UNL     1      25.757   7.182  50.983  0.00  0.00    +0.000 OA
ATOM     25  H   UNL     1      25.832   7.524  50.079  0.00  0.00    +0.000 HD
ENDBRANCH  22  24
ENDBRANCH  20  22
ENDBRANCH  18  20
ENDBRANCH   7  18
BRANCH   8  26
ATOM     26  O   UNL     1      20.620   5.600  51.007  0.00  0.00    +0.000 OA
ATOM     27  H   UNL     1      19.753   5.827  50.732  0.00  0.00    +0.000 HD
ENDBRANCH   8  26
BRANCH   1  28
ATOM     28  C   UNL     1      20.579   0.019  54.266  0.00  0.00    +0.000 C 
BRANCH  28  30
ATOM     29  C   UNL     1      18.784  -1.653  53.649  0.00  0.00    +0.000 C 
ATOM     30  C   UNL     1      20.251  -1.460  54.028  0.00  0.00    +0.000 C 
ENDBRANCH  28  30
ENDBRANCH   1  28
TORSDOF 7
ENDMDL
