MODEL 1
REMARK VINA RESULT:    -8.249      0.000      0.000
REMARK INTER + INTRA:          -9.754
REMARK INTER:                  -9.454
REMARK INTRA:                  -0.300
REMARK UNBOUND:                -0.300
REMARK  Name = 
REMARK  8 active torsions:
REMARK  status: ('A' for Active; 'I' for Inactive)
REMARK    1  A    between atoms: C_1  and  C_2
REMARK    2  A    between atoms: C_2  and  C_3
REMARK    3  A    between atoms: C_3  and  C_4
REMARK    4  A    between atoms: C_16  and  C_17
REMARK    5  A    between atoms: C_16  and  C_18
REMARK    6  A    between atoms: C_22  and  C_23
REMARK    7  A    between atoms: C_22  and  C_24
REMARK    8  A    between atoms: C_26  and  O_27
REMARK                            x       y       z     vdW  Elec       q    Type
REMARK                         _______ _______ _______ _____ _____    ______ ____
ROOT
ATOM      1  C   UNL     1      26.050   3.078  51.015  0.00  0.00    +0.000 A 
ATOM      2  C   UNL     1      27.210   2.548  51.466  0.00  0.00    +0.000 A 
ATOM      3  C   UNL     1      27.429   2.100  52.846  0.00  0.00    +0.000 A 
ATOM      4  O   UNL     1      28.498   1.643  53.228  0.00  0.00    +0.000 OA
ATOM      5  O   UNL     1      26.362   2.260  53.679  0.00  0.00    +0.000 OA
ATOM      6  C   UNL     1      25.122   2.261  53.043  0.00  0.00    +0.000 A 
ATOM      7  C   UNL     1      24.237   1.287  53.441  0.00  0.00    +0.000 A 
ATOM      8  C   UNL     1      22.906   1.421  53.124  0.00  0.00    +0.000 A 
ATOM      9  C   UNL     1      22.510   2.506  52.312  0.00  0.00    +0.000 A 
ATOM     10  C   UNL     1      23.493   3.240  51.608  0.00  0.00    +0.000 A 
ATOM     11  C   UNL     1      24.853   3.010  51.907  0.00  0.00    +0.000 A 
ATOM     12  O   UNL     1      23.155   4.187  50.666  0.00  0.00    +0.000 OA
ATOM     13  C   UNL     1      21.759   4.360  50.294  0.00  0.00    +0.000 C 
ATOM     14  C   UNL     1      21.463   5.867  50.227  0.00  0.00    +0.000 C 
ATOM     15  C   UNL     1      21.566   3.754  48.899  0.00  0.00    +0.000 C 
ATOM     16  C   UNL     1      20.749   3.725  51.208  0.00  0.00    +0.000 C 
ATOM     17  C   UNL     1      21.093   2.830  52.145  0.00  0.00    +0.000 C 
ATOM     18  O   UNL     1      21.964   0.530  53.560  0.00  0.00    +0.000 OA
ATOM     19  C   UNL     1      22.422  -0.810  53.854  0.00  0.00    +0.000 C 
ATOM     20  C   UNL     1      22.393  -1.646  52.562  0.00  0.00    +0.000 C 
ATOM     21  C   UNL     1      21.403  -1.396  54.842  0.00  0.00    +0.000 C 
ATOM     22  C   UNL     1      23.781  -0.858  54.566  0.00  0.00    +0.000 C 
ATOM     23  C   UNL     1      24.812  -0.022  53.875  0.00  0.00    +0.000 C 
ENDROOT
BRANCH  23  24
ATOM     24  O   UNL     1      25.268  -0.663  52.673  0.00  0.00    +0.000 OA
ATOM     25  H   UNL     1      25.330  -0.008  51.960  0.00  0.00    +0.000 HD
ENDBRANCH  23  24
BRANCH   1  26
ATOM     26  C   UNL     1      25.950   3.359  49.547  0.00  0.00    +0.000 C 
BRANCH  26  28
ATOM     27  C   UNL     1      27.679   4.915  48.598  0.00  0.00    +0.000 C 
ATOM     28  C   UNL     1      26.290   4.805  49.214  0.00  0.00    +0.000 C 
ENDBRANCH  26  28
ENDBRANCH   1  26
TORSDOF 3
ENDMDL
MODEL 2
REMARK VINA RESULT:    -8.075      2.010      6.694
REMARK INTER + INTRA:          -9.554
REMARK INTER:                  -9.188
REMARK INTRA:                  -0.367
REMARK UNBOUND:                -0.300
REMARK  Name = 
REMARK  8 active torsions:
REMARK  status: ('A' for Active; 'I' for Inactive)
REMARK    1  A    between atoms: C_1  and  C_2
REMARK    2  A    between atoms: C_2  and  C_3
REMARK    3  A    between atoms: C_3  and  C_4
REMARK    4  A    between atoms: C_16  and  C_17
REMARK    5  A    between atoms: C_16  and  C_18
REMARK    6  A    between atoms: C_22  and  C_23
REMARK    7  A    between atoms: C_22  and  C_24
REMARK    8  A    between atoms: C_26  and  O_27
REMARK                            x       y       z     vdW  Elec       q    Type
REMARK                         _______ _______ _______ _____ _____    ______ ____
ROOT
ATOM      1  C   UNL     1      21.360  -0.012  52.920  0.00  0.00    +0.000 A 
ATOM      2  C   UNL     1      20.027  -0.174  52.758  0.00  0.00    +0.000 A 
ATOM      3  C   UNL     1      19.107   0.902  52.372  0.00  0.00    +0.000 A 
ATOM      4  O   UNL     1      17.902   0.727  52.253  0.00  0.00    +0.000 OA
ATOM      5  O   UNL     1      19.692   2.119  52.184  0.00  0.00    +0.000 OA
ATOM      6  C   UNL     1      21.038   2.069  51.821  0.00  0.00    +0.000 A 
ATOM      7  C   UNL     1      21.361   2.648  50.617  0.00  0.00    +0.000 A 
ATOM      8  C   UNL     1      22.677   2.942  50.347  0.00  0.00    +0.000 A 
ATOM      9  C   UNL     1      23.663   2.544  51.276  0.00  0.00    +0.000 A 
ATOM     10  C   UNL     1      23.328   1.613  52.287  0.00  0.00    +0.000 A 
ATOM     11  C   UNL     1      21.971   1.277  52.476  0.00  0.00    +0.000 A 
ATOM     12  O   UNL     1      24.286   1.054  53.105  0.00  0.00    +0.000 OA
ATOM     13  C   UNL     1      25.692   1.331  52.853  0.00  0.00    +0.000 C 
ATOM     14  C   UNL     1      26.372   1.623  54.200  0.00  0.00    +0.000 C 
ATOM     15  C   UNL     1      26.318   0.071  52.244  0.00  0.00    +0.000 C 
ATOM     16  C   UNL     1      25.983   2.477  51.925  0.00  0.00    +0.000 C 
ATOM     17  C   UNL     1      25.036   3.036  51.158  0.00  0.00    +0.000 C 
ATOM     18  O   UNL     1      23.054   3.591  49.204  0.00  0.00    +0.000 OA
ATOM     19  C   UNL     1      22.178   3.460  48.061  0.00  0.00    +0.000 C 
ATOM     20  C   UNL     1      22.557   2.189  47.281  0.00  0.00    +0.000 C 
ATOM     21  C   UNL     1      22.457   4.683  47.176  0.00  0.00    +0.000 C 
ATOM     22  C   UNL     1      20.686   3.522  48.414  0.00  0.00    +0.000 C 
ATOM     23  C   UNL     1      20.331   2.598  49.537  0.00  0.00    +0.000 C 
ENDROOT
BRANCH  23  24
ATOM     24  O   UNL     1      20.306   1.234  49.087  0.00  0.00    +0.000 OA
ATOM     25  H   UNL     1      20.993   1.103  48.414  0.00  0.00    +0.000 HD
ENDBRANCH  23  24
BRANCH   1  26
ATOM     26  C   UNL     1      22.173  -1.243  53.185  0.00  0.00    +0.000 C 
BRANCH  26  28
ATOM     27  C   UNL     1      23.211  -1.327  55.471  0.00  0.00    +0.000 C 
ATOM     28  C   UNL     1      22.019  -1.736  54.617  0.00  0.00    +0.000 C 
ENDBRANCH  26  28
ENDBRANCH   1  26
TORSDOF 3
ENDMDL
MODEL 3
REMARK VINA RESULT:    -7.896      2.035      5.160
REMARK INTER + INTRA:          -9.350
REMARK INTER:                  -8.943
REMARK INTRA:                  -0.407
REMARK UNBOUND:                -0.300
REMARK  Name = 
REMARK  8 active torsions:
REMARK  status: ('A' for Active; 'I' for Inactive)
REMARK    1  A    between atoms: C_1  and  C_2
REMARK    2  A    between atoms: C_2  and  C_3
REMARK    3  A    between atoms: C_3  and  C_4
REMARK    4  A    between atoms: C_16  and  C_17
REMARK    5  A    between atoms: C_16  and  C_18
REMARK    6  A    between atoms: C_22  and  C_23
REMARK    7  A    between atoms: C_22  and  C_24
REMARK    8  A    between atoms: C_26  and  O_27
REMARK                            x       y       z     vdW  Elec       q    Type
REMARK                         _______ _______ _______ _____ _____    ______ ____
ROOT
ATOM      1  C   UNL     1      21.799   5.068  50.723  0.00  0.00    +0.000 A 
ATOM      2  C   UNL     1      20.761   4.380  51.250  0.00  0.00    +0.000 A 
ATOM      3  C   UNL     1      20.599   2.925  51.145  0.00  0.00    +0.000 A 
ATOM      4  O   UNL     1      19.637   2.334  51.616  0.00  0.00    +0.000 OA
ATOM      5  O   UNL     1      21.587   2.285  50.456  0.00  0.00    +0.000 OA
ATOM      6  C   UNL     1      22.818   2.939  50.460  0.00  0.00    +0.000 A 
ATOM      7  C   UNL     1      23.872   2.239  50.996  0.00  0.00    +0.000 A 
ATOM      8  C   UNL     1      25.156   2.658  50.736  0.00  0.00    +0.000 A 
ATOM      9  C   UNL     1      25.343   3.855  50.009  0.00  0.00    +0.000 A 
ATOM     10  C   UNL     1      24.250   4.735  49.830  0.00  0.00    +0.000 A 
ATOM     11  C   UNL     1      22.958   4.293  50.188  0.00  0.00    +0.000 A 
ATOM     12  O   UNL     1      24.411   5.992  49.289  0.00  0.00    +0.000 OA
ATOM     13  C   UNL     1      25.751   6.481  49.004  0.00  0.00    +0.000 C 
ATOM     14  C   UNL     1      25.732   7.154  47.622  0.00  0.00    +0.000 C 
ATOM     15  C   UNL     1      26.105   7.531  50.063  0.00  0.00    +0.000 C 
ATOM     16  C   UNL     1      26.845   5.449  49.005  0.00  0.00    +0.000 C 
ATOM     17  C   UNL     1      26.666   4.217  49.502  0.00  0.00    +0.000 C 
ATOM     18  O   UNL     1      26.249   1.961  51.171  0.00  0.00    +0.000 OA
ATOM     19  C   UNL     1      26.068   1.135  52.345  0.00  0.00    +0.000 C 
ATOM     20  C   UNL     1      26.306   1.991  53.602  0.00  0.00    +0.000 C 
ATOM     21  C   UNL     1      27.158   0.056  52.272  0.00  0.00    +0.000 C 
ATOM     22  C   UNL     1      24.729   0.386  52.377  0.00  0.00    +0.000 C 
ATOM     23  C   UNL     1      23.568   1.291  52.110  0.00  0.00    +0.000 C 
ENDROOT
BRANCH  23  24
ATOM     24  O   UNL     1      23.289   2.113  53.254  0.00  0.00    +0.000 OA
ATOM     25  H   UNL     1      23.838   2.913  53.220  0.00  0.00    +0.000 HD
ENDBRANCH  23  24
BRANCH   1  26
ATOM     26  C   UNL     1      21.880   6.531  51.036  0.00  0.00    +0.000 C 
BRANCH  26  28
ATOM     27  C   UNL     1      22.129   8.532  49.537  0.00  0.00    +0.000 C 
ATOM     28  C   UNL     1      21.220   7.387  49.964  0.00  0.00    +0.000 C 
ENDBRANCH  26  28
ENDBRANCH   1  26
TORSDOF 3
ENDMDL
MODEL 4
REMARK VINA RESULT:    -7.851      1.687      4.929
REMARK INTER + INTRA:          -9.298
REMARK INTER:                  -8.906
REMARK INTRA:                  -0.392
REMARK UNBOUND:                -0.300
REMARK  Name = 
REMARK  8 active torsions:
REMARK  status: ('A' for Active; 'I' for Inactive)
REMARK    1  A    between atoms: C_1  and  C_2
REMARK    2  A    between atoms: C_2  and  C_3
REMARK    3  A    between atoms: C_3  and  C_4
REMARK    4  A    between atoms: C_16  and  C_17
REMARK    5  A    between atoms: C_16  and  C_18
REMARK    6  A    between atoms: C_22  and  C_23
REMARK    7  A    between atoms: C_22  and  C_24
REMARK    8  A    between atoms: C_26  and  O_27
REMARK                            x       y       z     vdW  Elec       q    Type
REMARK                         _______ _______ _______ _____ _____    ______ ____
ROOT
ATOM      1  C   UNL     1      22.192   1.390  52.903  0.00  0.00    +0.000 A 
ATOM      2  C   UNL     1      21.805   0.424  53.767  0.00  0.00    +0.000 A 
ATOM      3  C   UNL     1      22.415  -0.908  53.841  0.00  0.00    +0.000 A 
ATOM      4  O   UNL     1      22.028  -1.768  54.621  0.00  0.00    +0.000 OA
ATOM      5  O   UNL     1      23.427  -1.127  52.953  0.00  0.00    +0.000 OA
ATOM      6  C   UNL     1      24.100   0.023  52.542  0.00  0.00    +0.000 A 
ATOM      7  C   UNL     1      25.448   0.061  52.808  0.00  0.00    +0.000 A 
ATOM      8  C   UNL     1      26.234   0.978  52.149  0.00  0.00    +0.000 A 
ATOM      9  C   UNL     1      25.611   1.917  51.299  0.00  0.00    +0.000 A 
ATOM     10  C   UNL     1      24.209   2.093  51.369  0.00  0.00    +0.000 A 
ATOM     11  C   UNL     1      23.448   1.174  52.124  0.00  0.00    +0.000 A 
ATOM     12  O   UNL     1      23.571   3.112  50.698  0.00  0.00    +0.000 OA
ATOM     13  C   UNL     1      24.362   4.110  49.994  0.00  0.00    +0.000 C 
ATOM     14  C   UNL     1      23.710   4.360  48.624  0.00  0.00    +0.000 C 
ATOM     15  C   UNL     1      24.317   5.407  50.808  0.00  0.00    +0.000 C 
ATOM     16  C   UNL     1      25.808   3.766  49.766  0.00  0.00    +0.000 C 
ATOM     17  C   UNL     1      26.410   2.749  50.400  0.00  0.00    +0.000 C 
ATOM     18  O   UNL     1      27.592   1.014  52.308  0.00  0.00    +0.000 OA
ATOM     19  C   UNL     1      28.117   0.492  53.550  0.00  0.00    +0.000 C 
ATOM     20  C   UNL     1      28.119   1.613  54.605  0.00  0.00    +0.000 C 
ATOM     21  C   UNL     1      29.569   0.089  53.258  0.00  0.00    +0.000 C 
ATOM     22  C   UNL     1      27.412  -0.782  54.035  0.00  0.00    +0.000 C 
ATOM     23  C   UNL     1      25.922  -0.638  54.039  0.00  0.00    +0.000 C 
ENDROOT
BRANCH  23  24
ATOM     24  O   UNL     1      25.492   0.180  55.139  0.00  0.00    +0.000 OA
ATOM     25  H   UNL     1      25.880   1.066  55.055  0.00  0.00    +0.000 HD
ENDBRANCH  23  24
BRANCH   1  26
ATOM     26  C   UNL     1      21.553   2.738  53.051  0.00  0.00    +0.000 C 
BRANCH  26  28
ATOM     27  C   UNL     1      20.270   4.073  51.353  0.00  0.00    +0.000 C 
ATOM     28  C   UNL     1      20.257   2.850  52.261  0.00  0.00    +0.000 C 
ENDBRANCH  26  28
ENDBRANCH   1  26
TORSDOF 3
ENDMDL
MODEL 5
REMARK VINA RESULT:    -7.727      3.089      6.425
REMARK INTER + INTRA:          -9.156
REMARK INTER:                  -8.750
REMARK INTRA:                  -0.405
REMARK UNBOUND:                -0.300
REMARK  Name = 
REMARK  8 active torsions:
REMARK  status: ('A' for Active; 'I' for Inactive)
REMARK    1  A    between atoms: C_1  and  C_2
REMARK    2  A    between atoms: C_2  and  C_3
REMARK    3  A    between atoms: C_3  and  C_4
REMARK    4  A    between atoms: C_16  and  C_17
REMARK    5  A    between atoms: C_16  and  C_18
REMARK    6  A    between atoms: C_22  and  C_23
REMARK    7  A    between atoms: C_22  and  C_24
REMARK    8  A    between atoms: C_26  and  O_27
REMARK                            x       y       z     vdW  Elec       q    Type
REMARK                         _______ _______ _______ _____ _____    ______ ____
ROOT
ATOM      1  C   UNL     1      22.751   1.808  50.565  0.00  0.00    +0.000 A 
ATOM      2  C   UNL     1      23.000   2.560  49.468  0.00  0.00    +0.000 A 
ATOM      3  C   UNL     1      22.231   2.477  48.221  0.00  0.00    +0.000 A 
ATOM      4  O   UNL     1      22.494   3.157  47.239  0.00  0.00    +0.000 OA
ATOM      5  O   UNL     1      21.220   1.563  48.229  0.00  0.00    +0.000 OA
ATOM      6  C   UNL     1      20.700   1.279  49.491  0.00  0.00    +0.000 A 
ATOM      7  C   UNL     1      19.361   1.537  49.665  0.00  0.00    +0.000 A 
ATOM      8  C   UNL     1      18.706   0.981  50.739  0.00  0.00    +0.000 A 
ATOM      9  C   UNL     1      19.457   0.248  51.684  0.00  0.00    +0.000 A 
ATOM     10  C   UNL     1      20.868   0.348  51.677  0.00  0.00    +0.000 A 
ATOM     11  C   UNL     1      21.495   1.000  50.594  0.00  0.00    +0.000 A 
ATOM     12  O   UNL     1      21.640  -0.198  52.679  0.00  0.00    +0.000 OA
ATOM     13  C   UNL     1      20.991  -0.791  53.839  0.00  0.00    +0.000 C 
ATOM     14  C   UNL     1      21.698  -2.118  54.158  0.00  0.00    +0.000 C 
ATOM     15  C   UNL     1      21.175   0.166  55.022  0.00  0.00    +0.000 C 
ATOM     16  C   UNL     1      19.519  -1.067  53.702  0.00  0.00    +0.000 C 
ATOM     17  C   UNL     1      18.785  -0.558  52.703  0.00  0.00    +0.000 C 
ATOM     18  O   UNL     1      17.360   1.132  50.924  0.00  0.00    +0.000 OA
ATOM     19  C   UNL     1      16.748   2.303  50.334  0.00  0.00    +0.000 C 
ATOM     20  C   UNL     1      16.860   3.477  51.323  0.00  0.00    +0.000 C 
ATOM     21  C   UNL     1      15.265   1.955  50.149  0.00  0.00    +0.000 C 
ATOM     22  C   UNL     1      17.284   2.645  48.938  0.00  0.00    +0.000 C 
ATOM     23  C   UNL     1      18.779   2.678  48.897  0.00  0.00    +0.000 C 
ENDROOT
BRANCH  23  24
ATOM     24  O   UNL     1      19.281   3.867  49.527  0.00  0.00    +0.000 OA
ATOM     25  H   UNL     1      20.223   3.752  49.731  0.00  0.00    +0.000 HD
ENDBRANCH  23  24
BRANCH   1  26
ATOM     26  C   UNL     1      23.545   2.113  51.799  0.00  0.00    +0.000 C 
BRANCH  26  28
ATOM     27  C   UNL     1      24.896   0.616  53.298  0.00  0.00    +0.000 C 
ATOM     28  C   UNL     1      24.788   1.242  51.913  0.00  0.00    +0.000 C 
ENDBRANCH  26  28
ENDBRANCH   1  26
TORSDOF 3
ENDMDL
MODEL 6
REMARK VINA RESULT:    -7.622      2.023      5.598
REMARK INTER + INTRA:          -9.035
REMARK INTER:                  -8.686
REMARK INTRA:                  -0.349
REMARK UNBOUND:                -0.300
REMARK  Name = 
REMARK  8 active torsions:
REMARK  status: ('A' for Active; 'I' for Inactive)
REMARK    1  A    between atoms: C_1  and  C_2
REMARK    2  A    between atoms: C_2  and  C_3
REMARK    3  A    between atoms: C_3  and  C_4
REMARK    4  A    between atoms: C_16  and  C_17
REMARK    5  A    between atoms: C_16  and  C_18
REMARK    6  A    between atoms: C_22  and  C_23
REMARK    7  A    between atoms: C_22  and  C_24
REMARK    8  A    between atoms: C_26  and  O_27
REMARK                            x       y       z     vdW  Elec       q    Type
REMARK                         _______ _______ _______ _____ _____    ______ ____
ROOT
ATOM      1  C   UNL     1      22.516   0.225  53.268  0.00  0.00    +0.000 A 
ATOM      2  C   UNL     1      23.729   0.030  53.834  0.00  0.00    +0.000 A 
ATOM      3  C   UNL     1      25.003   0.145  53.114  0.00  0.00    +0.000 A 
ATOM      4  O   UNL     1      26.083  -0.058  53.651  0.00  0.00    +0.000 OA
ATOM      5  O   UNL     1      24.890   0.464  51.794  0.00  0.00    +0.000 OA
ATOM      6  C   UNL     1      23.735   1.171  51.462  0.00  0.00    +0.000 A 
ATOM      7  C   UNL     1      23.925   2.410  50.897  0.00  0.00    +0.000 A 
ATOM      8  C   UNL     1      22.879   3.015  50.240  0.00  0.00    +0.000 A 
ATOM      9  C   UNL     1      21.615   2.386  50.258  0.00  0.00    +0.000 A 
ATOM     10  C   UNL     1      21.376   1.335  51.174  0.00  0.00    +0.000 A 
ATOM     11  C   UNL     1      22.468   0.798  51.889  0.00  0.00    +0.000 A 
ATOM     12  O   UNL     1      20.117   0.807  51.360  0.00  0.00    +0.000 OA
ATOM     13  C   UNL     1      18.979   1.418  50.692  0.00  0.00    +0.000 C 
ATOM     14  C   UNL     1      18.102   0.296  50.116  0.00  0.00    +0.000 C 
ATOM     15  C   UNL     1      18.173   2.188  51.744  0.00  0.00    +0.000 C 
ATOM     16  C   UNL     1      19.304   2.375  49.578  0.00  0.00    +0.000 C 
ATOM     17  C   UNL     1      20.540   2.856  49.385  0.00  0.00    +0.000 C 
ATOM     18  O   UNL     1      23.026   4.208  49.589  0.00  0.00    +0.000 OA
ATOM     19  C   UNL     1      24.082   5.080  50.056  0.00  0.00    +0.000 C 
ATOM     20  C   UNL     1      23.541   5.950  51.206  0.00  0.00    +0.000 C 
ATOM     21  C   UNL     1      24.430   5.992  48.871  0.00  0.00    +0.000 C 
ATOM     22  C   UNL     1      25.377   4.344  50.422  0.00  0.00    +0.000 C 
ATOM     23  C   UNL     1      25.130   3.180  51.329  0.00  0.00    +0.000 C 
ENDROOT
BRANCH  23  24
ATOM     24  O   UNL     1      24.847   3.626  52.666  0.00  0.00    +0.000 OA
ATOM     25  H   UNL     1      25.522   3.280  53.271  0.00  0.00    +0.000 HD
ENDBRANCH  23  24
BRANCH   1  26
ATOM     26  C   UNL     1      21.324   0.201  54.175  0.00  0.00    +0.000 C 
BRANCH  26  28
ATOM     27  C   UNL     1      19.450  -1.393  53.669  0.00  0.00    +0.000 C 
ATOM     28  C   UNL     1      20.785  -1.208  54.378  0.00  0.00    +0.000 C 
ENDBRANCH  26  28
ENDBRANCH   1  26
TORSDOF 3
ENDMDL
MODEL 7
REMARK VINA RESULT:    -7.620      1.764      4.781
REMARK INTER + INTRA:          -9.034
REMARK INTER:                  -8.674
REMARK INTRA:                  -0.360
REMARK UNBOUND:                -0.300
REMARK  Name = 
REMARK  8 active torsions:
REMARK  status: ('A' for Active; 'I' for Inactive)
REMARK    1  A    between atoms: C_1  and  C_2
REMARK    2  A    between atoms: C_2  and  C_3
REMARK    3  A    between atoms: C_3  and  C_4
REMARK    4  A    between atoms: C_16  and  C_17
REMARK    5  A    between atoms: C_16  and  C_18
REMARK    6  A    between atoms: C_22  and  C_23
REMARK    7  A    between atoms: C_22  and  C_24
REMARK    8  A    between atoms: C_26  and  O_27
REMARK                            x       y       z     vdW  Elec       q    Type
REMARK                         _______ _______ _______ _____ _____    ______ ____
ROOT
ATOM      1  C   UNL     1      21.371   3.187  51.470  0.00  0.00    +0.000 A 
ATOM      2  C   UNL     1      20.547   2.277  52.037  0.00  0.00    +0.000 A 
ATOM      3  C   UNL     1      20.750   0.825  51.969  0.00  0.00    +0.000 A 
ATOM      4  O   UNL     1      19.975   0.026  52.476  0.00  0.00    +0.000 OA
ATOM      5  O   UNL     1      21.853   0.431  51.271  0.00  0.00    +0.000 OA
ATOM      6  C   UNL     1      22.883   1.371  51.230  0.00  0.00    +0.000 A 
ATOM      7  C   UNL     1      24.088   0.970  51.756  0.00  0.00    +0.000 A 
ATOM      8  C   UNL     1      25.222   1.688  51.455  0.00  0.00    +0.000 A 
ATOM      9  C   UNL     1      25.092   2.872  50.698  0.00  0.00    +0.000 A 
ATOM     10  C   UNL     1      23.811   3.448  50.525  0.00  0.00    +0.000 A 
ATOM     11  C   UNL     1      22.677   2.709  50.924  0.00  0.00    +0.000 A 
ATOM     12  O   UNL     1      23.645   4.690  49.953  0.00  0.00    +0.000 OA
ATOM     13  C   UNL     1      24.815   5.489  49.624  0.00  0.00    +0.000 C 
ATOM     14  C   UNL     1      24.604   6.097  48.229  0.00  0.00    +0.000 C 
ATOM     15  C   UNL     1      24.915   6.623  50.650  0.00  0.00    +0.000 C 
ATOM     16  C   UNL     1      26.131   4.761  49.621  0.00  0.00    +0.000 C 
ATOM     17  C   UNL     1      26.274   3.537  50.150  0.00  0.00    +0.000 C 
ATOM     18  O   UNL     1      26.461   1.296  51.880  0.00  0.00    +0.000 OA
ATOM     19  C   UNL     1      26.513   0.483  53.075  0.00  0.00    +0.000 C 
ATOM     20  C   UNL     1      26.553   1.406  54.307  0.00  0.00    +0.000 C 
ATOM     21  C   UNL     1      27.836  -0.292  53.000  0.00  0.00    +0.000 C 
ATOM     22  C   UNL     1      25.404  -0.573  53.156  0.00  0.00    +0.000 C 
ATOM     23  C   UNL     1      24.049   0.008  52.897  0.00  0.00    +0.000 C 
ENDROOT
BRANCH  23  24
ATOM     24  O   UNL     1      23.594   0.766  54.030  0.00  0.00    +0.000 OA
ATOM     25  H   UNL     1      24.346   0.961  54.612  0.00  0.00    +0.000 HD
ENDBRANCH  23  24
BRANCH   1  26
ATOM     26  C   UNL     1      21.091   4.632  51.748  0.00  0.00    +0.000 C 
BRANCH  26  28
ATOM     27  C   UNL     1      21.001   6.732  50.371  0.00  0.00    +0.000 C 
ATOM     28  C   UNL     1      20.437   5.330  50.563  0.00  0.00    +0.000 C 
ENDBRANCH  26  28
ENDBRANCH   1  26
TORSDOF 3
ENDMDL
MODEL 8
REMARK VINA RESULT:    -7.364      2.140      5.604
REMARK INTER + INTRA:          -8.740
REMARK INTER:                  -8.368
REMARK INTRA:                  -0.372
REMARK UNBOUND:                -0.300
REMARK  Name = 
REMARK  8 active torsions:
REMARK  status: ('A' for Active; 'I' for Inactive)
REMARK    1  A    between atoms: C_1  and  C_2
REMARK    2  A    between atoms: C_2  and  C_3
REMARK    3  A    between atoms: C_3  and  C_4
REMARK    4  A    between atoms: C_16  and  C_17
REMARK    5  A    between atoms: C_16  and  C_18
REMARK    6  A    between atoms: C_22  and  C_23
REMARK    7  A    between atoms: C_22  and  C_24
REMARK    8  A    between atoms: C_26  and  O_27
REMARK                            x       y       z     vdW  Elec       q    Type
REMARK                         _______ _______ _______ _____ _____    ______ ____
ROOT
ATOM      1  C   UNL     1      24.435   2.539  51.867  0.00  0.00    +0.000 A 
ATOM      2  C   UNL     1      25.165   3.422  51.148  0.00  0.00    +0.000 A 
ATOM      3  C   UNL     1      25.036   3.610  49.698  0.00  0.00    +0.000 A 
ATOM      4  O   UNL     1      25.726   4.404  49.073  0.00  0.00    +0.000 OA
ATOM      5  O   UNL     1      24.111   2.810  49.095  0.00  0.00    +0.000 OA
ATOM      6  C   UNL     1      23.075   2.388  49.926  0.00  0.00    +0.000 A 
ATOM      7  C   UNL     1      21.805   2.748  49.539  0.00  0.00    +0.000 A 
ATOM      8  C   UNL     1      20.727   2.101  50.096  0.00  0.00    +0.000 A 
ATOM      9  C   UNL     1      20.959   1.159  51.122  0.00  0.00    +0.000 A 
ATOM     10  C   UNL     1      22.225   1.119  51.753  0.00  0.00    +0.000 A 
ATOM     11  C   UNL     1      23.284   1.865  51.194  0.00  0.00    +0.000 A 
ATOM     12  O   UNL     1      22.453   0.350  52.874  0.00  0.00    +0.000 OA
ATOM     13  C   UNL     1      21.341  -0.346  53.502  0.00  0.00    +0.000 C 
ATOM     14  C   UNL     1      21.803  -1.771  53.850  0.00  0.00    +0.000 C 
ATOM     15  C   UNL     1      20.993   0.393  54.798  0.00  0.00    +0.000 C 
ATOM     16  C   UNL     1      20.082  -0.451  52.686  0.00  0.00    +0.000 C 
ATOM     17  C   UNL     1      19.885   0.277  51.578  0.00  0.00    +0.000 C 
ATOM     18  O   UNL     1      19.444   2.355  49.696  0.00  0.00    +0.000 OA
ATOM     19  C   UNL     1      19.186   3.657  49.123  0.00  0.00    +0.000 C 
ATOM     20  C   UNL     1      18.865   4.648  50.257  0.00  0.00    +0.000 C 
ATOM     21  C   UNL     1      17.937   3.492  48.246  0.00  0.00    +0.000 C 
ATOM     22  C   UNL     1      20.298   4.156  48.191  0.00  0.00    +0.000 C 
ATOM     23  C   UNL     1      21.653   4.046  48.816  0.00  0.00    +0.000 C 
ENDROOT
BRANCH  23  24
ATOM     24  O   UNL     1      21.842   5.067  49.808  0.00  0.00    +0.000 OA
ATOM     25  H   UNL     1      21.088   5.069  50.419  0.00  0.00    +0.000 HD
ENDBRANCH  23  24
BRANCH   1  26
ATOM     26  C   UNL     1      24.597   2.568  53.356  0.00  0.00    +0.000 C 
BRANCH  26  28
ATOM     27  C   UNL     1      25.801   0.458  53.993  0.00  0.00    +0.000 C 
ATOM     28  C   UNL     1      25.921   1.964  53.804  0.00  0.00    +0.000 C 
ENDBRANCH  26  28
ENDBRANCH   1  26
TORSDOF 3
ENDMDL
MODEL 9
REMARK VINA RESULT:    -7.062      2.159      3.715
REMARK INTER + INTRA:          -8.394
REMARK INTER:                  -7.997
REMARK INTRA:                  -0.397
REMARK UNBOUND:                -0.300
REMARK  Name = 
REMARK  8 active torsions:
REMARK  status: ('A' for Active; 'I' for Inactive)
REMARK    1  A    between atoms: C_1  and  C_2
REMARK    2  A    between atoms: C_2  and  C_3
REMARK    3  A    between atoms: C_3  and  C_4
REMARK    4  A    between atoms: C_16  and  C_17
REMARK    5  A    between atoms: C_16  and  C_18
REMARK    6  A    between atoms: C_22  and  C_23
REMARK    7  A    between atoms: C_22  and  C_24
REMARK    8  A    between atoms: C_26  and  O_27
REMARK                            x       y       z     vdW  Elec       q    Type
REMARK                         _______ _______ _______ _____ _____    ______ ____
ROOT
ATOM      1  C   UNL     1      25.336   3.444  50.606  0.00  0.00    +0.000 A 
ATOM      2  C   UNL     1      25.608   2.262  51.206  0.00  0.00    +0.000 A 
ATOM      3  C   UNL     1      24.965   1.797  52.439  0.00  0.00    +0.000 A 
ATOM      4  O   UNL     1      25.248   0.730  52.968  0.00  0.00    +0.000 OA
ATOM      5  O   UNL     1      24.049   2.656  52.970  0.00  0.00    +0.000 OA
ATOM      6  C   UNL     1      23.449   3.511  52.046  0.00  0.00    +0.000 A 
ATOM      7  C   UNL     1      22.081   3.421  51.940  0.00  0.00    +0.000 A 
ATOM      8  C   UNL     1      21.389   4.437  51.322  0.00  0.00    +0.000 A 
ATOM      9  C   UNL     1      22.120   5.488  50.727  0.00  0.00    +0.000 A 
ATOM     10  C   UNL     1      23.510   5.333  50.514  0.00  0.00    +0.000 A 
ATOM     11  C   UNL     1      24.166   4.229  51.100  0.00  0.00    +0.000 A 
ATOM     12  O   UNL     1      24.238   6.244  49.780  0.00  0.00    +0.000 OA
ATOM     13  C   UNL     1      23.548   7.331  49.102  0.00  0.00    +0.000 C 
ATOM     14  C   UNL     1      24.347   8.624  49.333  0.00  0.00    +0.000 C 
ATOM     15  C   UNL     1      23.534   7.017  47.602  0.00  0.00    +0.000 C 
ATOM     16  C   UNL     1      22.128   7.579  49.528  0.00  0.00    +0.000 C 
ATOM     17  C   UNL     1      21.440   6.701  50.272  0.00  0.00    +0.000 C 
ATOM     18  O   UNL     1      20.023   4.448  51.257  0.00  0.00    +0.000 OA
ATOM     19  C   UNL     1      19.358   3.165  51.324  0.00  0.00    +0.000 C 
ATOM     20  C   UNL     1      19.268   2.573  49.906  0.00  0.00    +0.000 C 
ATOM     21  C   UNL     1      17.937   3.454  51.827  0.00  0.00    +0.000 C 
ATOM     22  C   UNL     1      19.980   2.196  52.338  0.00  0.00    +0.000 C 
ATOM     23  C   UNL     1      21.463   2.082  52.176  0.00  0.00    +0.000 C 
ENDROOT
BRANCH  23  24
ATOM     24  O   UNL     1      21.791   1.295  51.020  0.00  0.00    +0.000 OA
ATOM     25  H   UNL     1      22.363   0.557  51.283  0.00  0.00    +0.000 HD
ENDBRANCH  23  24
BRANCH   1  26
ATOM     26  C   UNL     1      25.985   3.705  49.281  0.00  0.00    +0.000 C 
BRANCH  26  28
ATOM     27  C   UNL     1      27.440   5.618  48.553  0.00  0.00    +0.000 C 
ATOM     28  C   UNL     1      27.344   4.375  49.427  0.00  0.00    +0.000 C 
ENDBRANCH  26  28
ENDBRANCH   1  26
TORSDOF 3
ENDMDL
