MODEL 1
REMARK VINA RESULT:    -8.125      0.000      0.000
REMARK INTER + INTRA:         -11.037
REMARK INTER:                 -10.500
REMARK INTRA:                  -0.537
REMARK UNBOUND:                -0.537
REMARK  Name = 
REMARK  7 active torsions:
REMARK  status: ('A' for Active; 'I' for Inactive)
REMARK    1  A    between atoms: C_1  and  C_2
REMARK    2  A    between atoms: C_2  and  N_3
REMARK    3  A    between atoms: N_3  and  C_4
REMARK    4  A    between atoms: C_9  and  S_10
REMARK    5  A    between atoms: S_10  and  N_13
REMARK    6  A    between atoms: C_20  and  O_21
REMARK    7  A    between atoms: O_21  and  C_22
REMARK                            x       y       z     vdW  Elec       q    Type
REMARK                         _______ _______ _______ _____ _____    ______ ____
ROOT
ATOM      1  C   UNL     1      26.108  -0.257  53.502  0.00  0.00    +0.000 A 
ATOM      2  C   UNL     1      27.129   0.699  53.379  0.00  0.00    +0.000 A 
ATOM      3  C   UNL     1      26.844   2.049  53.345  0.00  0.00    +0.000 A 
ATOM      4  C   UNL     1      25.531   2.461  53.228  0.00  0.00    +0.000 A 
ATOM      5  C   UNL     1      24.468   1.554  53.082  0.00  0.00    +0.000 A 
ATOM      6  C   UNL     1      23.149   1.957  52.726  0.00  0.00    +0.000 A 
ATOM      7  C   UNL     1      22.071   1.090  52.942  0.00  0.00    +0.000 A 
ATOM      8  C   UNL     1      22.307  -0.205  53.400  0.00  0.00    +0.000 A 
ATOM      9  C   UNL     1      23.622  -0.668  53.548  0.00  0.00    +0.000 A 
ATOM     10  C   UNL     1      24.741   0.179  53.369  0.00  0.00    +0.000 A 
ENDROOT
BRANCH   6  11
ATOM     11  S   UNL     1      22.800   3.591  52.047  0.00  0.00    +0.000 S 
ATOM     12  O   UNL     1      21.357   3.733  52.092  0.00  0.00    +0.000 OA
ATOM     13  O   UNL     1      23.644   4.606  52.632  0.00  0.00    +0.000 OA
BRANCH  11  14
ATOM     14  N   UNL     1      23.177   3.554  50.397  0.00  0.00    +0.000 N 
ATOM     15  C   UNL     1      24.425   4.131  50.006  0.00  0.00    +0.000 A 
ATOM     16  N   UNL     1      25.409   3.208  49.908  0.00  0.00    +0.000 NA
ATOM     17  C   UNL     1      26.588   3.670  49.415  0.00  0.00    +0.000 A 
ATOM     18  C   UNL     1      26.787   4.999  49.052  0.00  0.00    +0.000 A 
ATOM     19 BR   UNL     1      28.454   5.544  48.336  0.00  0.00    +0.000 Br
ATOM     20  N   UNL     1      25.816   5.923  49.160  0.00  0.00    +0.000 NA
ATOM     21  C   UNL     1      24.625   5.492  49.654  0.00  0.00    +0.000 A 
ATOM     22  H   UNL     1      22.565   3.152  49.738  0.00  0.00    +0.000 HD
BRANCH  21  23
ATOM     23  O   UNL     1      23.585   6.389  49.734  0.00  0.00    +0.000 OA
ATOM     24  C   UNL     1      23.952   7.583  50.433  0.00  0.00    +0.000 C 
ENDBRANCH  21  23
ENDBRANCH  11  14
ENDBRANCH   6  11
BRANCH   1  25
ATOM     25  N   UNL     1      26.452  -1.630  53.623  0.00  0.00    +0.000 N 
ATOM     26  H   UNL     1      26.177  -2.160  54.405  0.00  0.00    +0.000 HD
BRANCH  25  28
ATOM     27  C   UNL     1      28.605  -2.668  53.006  0.00  0.00    +0.000 C 
ATOM     28  C   UNL     1      27.234  -2.224  52.533  0.00  0.00    +0.000 C 
ENDBRANCH  25  28
ENDBRANCH   1  25
TORSDOF 5
ENDMDL
MODEL 2
REMARK VINA RESULT:    -7.954      3.025      4.956
REMARK INTER + INTRA:         -10.816
REMARK INTER:                 -10.724
REMARK INTRA:                  -0.091
REMARK UNBOUND:                -0.537
REMARK  Name = 
REMARK  7 active torsions:
REMARK  status: ('A' for Active; 'I' for Inactive)
REMARK    1  A    between atoms: C_1  and  C_2
REMARK    2  A    between atoms: C_2  and  N_3
REMARK    3  A    between atoms: N_3  and  C_4
REMARK    4  A    between atoms: C_9  and  S_10
REMARK    5  A    between atoms: S_10  and  N_13
REMARK    6  A    between atoms: C_20  and  O_21
REMARK    7  A    between atoms: O_21  and  C_22
REMARK                            x       y       z     vdW  Elec       q    Type
REMARK                         _______ _______ _______ _____ _____    ______ ____
ROOT
ATOM      1  C   UNL     1      19.786  -0.611  53.157  0.00  0.00    +0.000 A 
ATOM      2  C   UNL     1      19.508   0.067  51.959  0.00  0.00    +0.000 A 
ATOM      3  C   UNL     1      20.524   0.466  51.112  0.00  0.00    +0.000 A 
ATOM      4  C   UNL     1      21.834   0.381  51.539  0.00  0.00    +0.000 A 
ATOM      5  C   UNL     1      22.178  -0.045  52.834  0.00  0.00    +0.000 A 
ATOM      6  C   UNL     1      23.492   0.084  53.368  0.00  0.00    +0.000 A 
ATOM      7  C   UNL     1      23.865  -0.663  54.492  0.00  0.00    +0.000 A 
ATOM      8  C   UNL     1      22.916  -1.444  55.149  0.00  0.00    +0.000 A 
ATOM      9  C   UNL     1      21.574  -1.404  54.746  0.00  0.00    +0.000 A 
ATOM     10  C   UNL     1      21.155  -0.687  53.601  0.00  0.00    +0.000 A 
ENDROOT
BRANCH   6  11
ATOM     11  S   UNL     1      24.733   1.149  52.607  0.00  0.00    +0.000 S 
ATOM     12  O   UNL     1      24.977   2.211  53.564  0.00  0.00    +0.000 OA
ATOM     13  O   UNL     1      25.839   0.388  52.074  0.00  0.00    +0.000 OA
BRANCH  11  14
ATOM     14  N   UNL     1      24.008   1.920  51.286  0.00  0.00    +0.000 N 
ATOM     15  C   UNL     1      24.208   3.331  51.171  0.00  0.00    +0.000 A 
ATOM     16  N   UNL     1      25.241   3.639  50.355  0.00  0.00    +0.000 NA
ATOM     17  C   UNL     1      25.402   4.964  50.101  0.00  0.00    +0.000 A 
ATOM     18  C   UNL     1      24.581   5.945  50.651  0.00  0.00    +0.000 A 
ATOM     19 BR   UNL     1      24.857   7.766  50.209  0.00  0.00    +0.000 Br
ATOM     20  N   UNL     1      23.561   5.645  51.474  0.00  0.00    +0.000 NA
ATOM     21  C   UNL     1      23.376   4.327  51.750  0.00  0.00    +0.000 A 
ATOM     22  H   UNL     1      23.475   1.419  50.626  0.00  0.00    +0.000 HD
BRANCH  21  23
ATOM     23  O   UNL     1      22.313   3.966  52.545  0.00  0.00    +0.000 OA
ATOM     24  C   UNL     1      21.061   4.088  51.863  0.00  0.00    +0.000 C 
ENDBRANCH  21  23
ENDBRANCH  11  14
ENDBRANCH   6  11
BRANCH   1  25
ATOM     25  N   UNL     1      18.709  -1.083  53.954  0.00  0.00    +0.000 N 
ATOM     26  H   UNL     1      18.708  -0.972  54.932  0.00  0.00    +0.000 HD
BRANCH  25  28
ATOM     27  C   UNL     1      17.502  -3.209  53.617  0.00  0.00    +0.000 C 
ATOM     28  C   UNL     1      17.597  -1.739  53.258  0.00  0.00    +0.000 C 
ENDBRANCH  25  28
ENDBRANCH   1  25
TORSDOF 5
ENDMDL
MODEL 3
REMARK VINA RESULT:    -7.950      3.332      5.618
REMARK INTER + INTRA:         -10.810
REMARK INTER:                 -10.112
REMARK INTRA:                  -0.698
REMARK UNBOUND:                -0.537
REMARK  Name = 
REMARK  7 active torsions:
REMARK  status: ('A' for Active; 'I' for Inactive)
REMARK    1  A    between atoms: C_1  and  C_2
REMARK    2  A    between atoms: C_2  and  N_3
REMARK    3  A    between atoms: N_3  and  C_4
REMARK    4  A    between atoms: C_9  and  S_10
REMARK    5  A    between atoms: S_10  and  N_13
REMARK    6  A    between atoms: C_20  and  O_21
REMARK    7  A    between atoms: O_21  and  C_22
REMARK                            x       y       z     vdW  Elec       q    Type
REMARK                         _______ _______ _______ _____ _____    ______ ____
ROOT
ATOM      1  C   UNL     1      18.233  -1.031  53.054  0.00  0.00    +0.000 A 
ATOM      2  C   UNL     1      17.360  -0.544  52.067  0.00  0.00    +0.000 A 
ATOM      3  C   UNL     1      17.813   0.281  51.057  0.00  0.00    +0.000 A 
ATOM      4  C   UNL     1      19.091   0.798  51.127  0.00  0.00    +0.000 A 
ATOM      5  C   UNL     1      19.939   0.564  52.223  0.00  0.00    +0.000 A 
ATOM      6  C   UNL     1      21.158   1.272  52.424  0.00  0.00    +0.000 A 
ATOM      7  C   UNL     1      22.122   0.768  53.306  0.00  0.00    +0.000 A 
ATOM      8  C   UNL     1      21.837  -0.365  54.066  0.00  0.00    +0.000 A 
ATOM      9  C   UNL     1      20.558  -0.937  54.021  0.00  0.00    +0.000 A 
ATOM     10  C   UNL     1      19.562  -0.479  53.126  0.00  0.00    +0.000 A 
ENDROOT
BRANCH   6  11
ATOM     11  S   UNL     1      21.540   2.792  51.530  0.00  0.00    +0.000 S 
ATOM     12  O   UNL     1      21.902   2.376  50.189  0.00  0.00    +0.000 OA
ATOM     13  O   UNL     1      20.521   3.797  51.723  0.00  0.00    +0.000 OA
BRANCH  11  14
ATOM     14  N   UNL     1      22.965   3.429  52.183  0.00  0.00    +0.000 N 
ATOM     15  C   UNL     1      24.041   3.672  51.272  0.00  0.00    +0.000 A 
ATOM     16  N   UNL     1      24.065   4.953  50.838  0.00  0.00    +0.000 NA
ATOM     17  C   UNL     1      25.138   5.282  50.072  0.00  0.00    +0.000 A 
ATOM     18  C   UNL     1      26.137   4.372  49.737  0.00  0.00    +0.000 A 
ATOM     19 BR   UNL     1      27.617   4.933  48.696  0.00  0.00    +0.000 Br
ATOM     20  N   UNL     1      26.110   3.095  50.156  0.00  0.00    +0.000 NA
ATOM     21  C   UNL     1      25.046   2.733  50.921  0.00  0.00    +0.000 A 
ATOM     22  H   UNL     1      23.049   3.624  53.144  0.00  0.00    +0.000 HD
BRANCH  21  23
ATOM     23  O   UNL     1      25.001   1.451  51.417  0.00  0.00    +0.000 OA
ATOM     24  C   UNL     1      26.198   1.099  52.119  0.00  0.00    +0.000 C 
ENDBRANCH  21  23
ENDBRANCH  11  14
ENDBRANCH   6  11
BRANCH   1  25
ATOM     25  N   UNL     1      17.744  -1.948  54.022  0.00  0.00    +0.000 N 
ATOM     26  H   UNL     1      17.416  -1.642  54.898  0.00  0.00    +0.000 HD
BRANCH  25  28
ATOM     27  C   UNL     1      16.360  -3.856  53.291  0.00  0.00    +0.000 C 
ATOM     28  C   UNL     1      17.747  -3.370  53.662  0.00  0.00    +0.000 C 
ENDBRANCH  25  28
ENDBRANCH   1  25
TORSDOF 5
ENDMDL
MODEL 4
REMARK VINA RESULT:    -7.880      3.959      6.175
REMARK INTER + INTRA:         -10.720
REMARK INTER:                 -10.343
REMARK INTRA:                  -0.377
REMARK UNBOUND:                -0.537
REMARK  Name = 
REMARK  7 active torsions:
REMARK  status: ('A' for Active; 'I' for Inactive)
REMARK    1  A    between atoms: C_1  and  C_2
REMARK    2  A    between atoms: C_2  and  N_3
REMARK    3  A    between atoms: N_3  and  C_4
REMARK    4  A    between atoms: C_9  and  S_10
REMARK    5  A    between atoms: S_10  and  N_13
REMARK    6  A    between atoms: C_20  and  O_21
REMARK    7  A    between atoms: O_21  and  C_22
REMARK                            x       y       z     vdW  Elec       q    Type
REMARK                         _______ _______ _______ _____ _____    ______ ____
ROOT
ATOM      1  C   UNL     1      26.846   0.877  53.429  0.00  0.00    +0.000 A 
ATOM      2  C   UNL     1      26.092   0.024  54.251  0.00  0.00    +0.000 A 
ATOM      3  C   UNL     1      24.798  -0.327  53.921  0.00  0.00    +0.000 A 
ATOM      4  C   UNL     1      24.164   0.323  52.880  0.00  0.00    +0.000 A 
ATOM      5  C   UNL     1      24.767   1.377  52.173  0.00  0.00    +0.000 A 
ATOM      6  C   UNL     1      24.052   2.208  51.264  0.00  0.00    +0.000 A 
ATOM      7  C   UNL     1      24.749   2.990  50.335  0.00  0.00    +0.000 A 
ATOM      8  C   UNL     1      26.141   3.036  50.378  0.00  0.00    +0.000 A 
ATOM      9  C   UNL     1      26.834   2.382  51.407  0.00  0.00    +0.000 A 
ATOM     10  C   UNL     1      26.175   1.559  52.350  0.00  0.00    +0.000 A 
ENDROOT
BRANCH   6  11
ATOM     11  S   UNL     1      22.249   2.253  51.226  0.00  0.00    +0.000 S 
ATOM     12  O   UNL     1      21.838   2.607  52.571  0.00  0.00    +0.000 OA
ATOM     13  O   UNL     1      21.755   3.008  50.098  0.00  0.00    +0.000 OA
BRANCH  11  14
ATOM     14  N   UNL     1      21.700   0.666  51.013  0.00  0.00    +0.000 N 
ATOM     15  C   UNL     1      20.377   0.373  51.470  0.00  0.00    +0.000 A 
ATOM     16  N   UNL     1      19.460   0.467  50.480  0.00  0.00    +0.000 NA
ATOM     17  C   UNL     1      18.203   0.074  50.818  0.00  0.00    +0.000 A 
ATOM     18  C   UNL     1      17.868  -0.374  52.093  0.00  0.00    +0.000 A 
ATOM     19 BR   UNL     1      16.097  -0.938  52.461  0.00  0.00    +0.000 Br
ATOM     20  N   UNL     1      18.773  -0.456  53.083  0.00  0.00    +0.000 NA
ATOM     21  C   UNL     1      20.039  -0.067  52.777  0.00  0.00    +0.000 A 
ATOM     22  H   UNL     1      22.265  -0.022  50.593  0.00  0.00    +0.000 HD
BRANCH  21  23
ATOM     23  O   UNL     1      21.012  -0.182  53.743  0.00  0.00    +0.000 OA
ATOM     24  C   UNL     1      21.137  -1.522  54.229  0.00  0.00    +0.000 C 
ENDBRANCH  21  23
ENDBRANCH  11  14
ENDBRANCH   6  11
BRANCH   1  25
ATOM     25  N   UNL     1      28.201   1.141  53.759  0.00  0.00    +0.000 N 
ATOM     26  H   UNL     1      28.637   1.985  53.499  0.00  0.00    +0.000 HD
BRANCH  25  28
ATOM     27  C   UNL     1      29.832  -0.705  53.599  0.00  0.00    +0.000 C 
ATOM     28  C   UNL     1      28.924   0.105  54.504  0.00  0.00    +0.000 C 
ENDBRANCH  25  28
ENDBRANCH   1  25
TORSDOF 5
ENDMDL
MODEL 5
REMARK VINA RESULT:    -7.863      3.295      4.193
REMARK INTER + INTRA:         -10.698
REMARK INTER:                 -10.098
REMARK INTRA:                  -0.600
REMARK UNBOUND:                -0.537
REMARK  Name = 
REMARK  7 active torsions:
REMARK  status: ('A' for Active; 'I' for Inactive)
REMARK    1  A    between atoms: C_1  and  C_2
REMARK    2  A    between atoms: C_2  and  N_3
REMARK    3  A    between atoms: N_3  and  C_4
REMARK    4  A    between atoms: C_9  and  S_10
REMARK    5  A    between atoms: S_10  and  N_13
REMARK    6  A    between atoms: C_20  and  O_21
REMARK    7  A    between atoms: O_21  and  C_22
REMARK                            x       y       z     vdW  Elec       q    Type
REMARK                         _______ _______ _______ _____ _____    ______ ____
ROOT
ATOM      1  C   UNL     1      26.071   0.034  53.752  0.00  0.00    +0.000 A 
ATOM      2  C   UNL     1      26.246   1.040  52.788  0.00  0.00    +0.000 A 
ATOM      3  C   UNL     1      25.193   1.840  52.392  0.00  0.00    +0.000 A 
ATOM      4  C   UNL     1      23.911   1.521  52.794  0.00  0.00    +0.000 A 
ATOM      5  C   UNL     1      23.624   0.371  53.549  0.00  0.00    +0.000 A 
ATOM      6  C   UNL     1      22.297  -0.099  53.771  0.00  0.00    +0.000 A 
ATOM      7  C   UNL     1      22.042  -1.011  54.801  0.00  0.00    +0.000 A 
ATOM      8  C   UNL     1      23.103  -1.541  55.533  0.00  0.00    +0.000 A 
ATOM      9  C   UNL     1      24.424  -1.238  55.174  0.00  0.00    +0.000 A 
ATOM     10  C   UNL     1      24.729  -0.300  54.159  0.00  0.00    +0.000 A 
ENDROOT
BRANCH   6  11
ATOM     11  S   UNL     1      20.900   0.489  52.793  0.00  0.00    +0.000 S 
ATOM     12  O   UNL     1      19.775  -0.340  53.181  0.00  0.00    +0.000 OA
ATOM     13  O   UNL     1      20.784   1.929  52.835  0.00  0.00    +0.000 OA
BRANCH  11  14
ATOM     14  N   UNL     1      21.196   0.084  51.177  0.00  0.00    +0.000 N 
ATOM     15  C   UNL     1      21.165   1.151  50.226  0.00  0.00    +0.000 A 
ATOM     16  N   UNL     1      22.396   1.651  49.976  0.00  0.00    +0.000 NA
ATOM     17  C   UNL     1      22.453   2.579  48.985  0.00  0.00    +0.000 A 
ATOM     18  C   UNL     1      21.328   3.008  48.285  0.00  0.00    +0.000 A 
ATOM     19 BR   UNL     1      21.508   4.280  46.893  0.00  0.00    +0.000 Br
ATOM     20  N   UNL     1      20.100   2.524  48.540  0.00  0.00    +0.000 NA
ATOM     21  C   UNL     1      20.010   1.595  49.529  0.00  0.00    +0.000 A 
ATOM     22  H   UNL     1      21.382  -0.844  50.905  0.00  0.00    +0.000 HD
BRANCH  21  23
ATOM     23  O   UNL     1      18.783   1.032  49.790  0.00  0.00    +0.000 OA
ATOM     24  C   UNL     1      17.958   1.881  50.596  0.00  0.00    +0.000 C 
ENDBRANCH  21  23
ENDBRANCH  11  14
ENDBRANCH   6  11
BRANCH   1  25
ATOM     25  N   UNL     1      27.199  -0.706  54.196  0.00  0.00    +0.000 N 
ATOM     26  H   UNL     1      27.144  -1.674  54.363  0.00  0.00    +0.000 HD
BRANCH  25  28
ATOM     27  C   UNL     1      29.601  -0.602  53.636  0.00  0.00    +0.000 C 
ATOM     28  C   UNL     1      28.451   0.033  54.394  0.00  0.00    +0.000 C 
ENDBRANCH  25  28
ENDBRANCH   1  25
TORSDOF 5
ENDMDL
MODEL 6
REMARK VINA RESULT:    -7.850      3.638      5.647
REMARK INTER + INTRA:         -10.681
REMARK INTER:                 -10.066
REMARK INTRA:                  -0.614
REMARK UNBOUND:                -0.537
REMARK  Name = 
REMARK  7 active torsions:
REMARK  status: ('A' for Active; 'I' for Inactive)
REMARK    1  A    between atoms: C_1  and  C_2
REMARK    2  A    between atoms: C_2  and  N_3
REMARK    3  A    between atoms: N_3  and  C_4
REMARK    4  A    between atoms: C_9  and  S_10
REMARK    5  A    between atoms: S_10  and  N_13
REMARK    6  A    between atoms: C_20  and  O_21
REMARK    7  A    between atoms: O_21  and  C_22
REMARK                            x       y       z     vdW  Elec       q    Type
REMARK                         _______ _______ _______ _____ _____    ______ ____
ROOT
ATOM      1  C   UNL     1      18.938  -0.711  53.048  0.00  0.00    +0.000 A 
ATOM      2  C   UNL     1      18.539   0.024  51.920  0.00  0.00    +0.000 A 
ATOM      3  C   UNL     1      19.467   0.534  51.034  0.00  0.00    +0.000 A 
ATOM      4  C   UNL     1      20.808   0.498  51.363  0.00  0.00    +0.000 A 
ATOM      5  C   UNL     1      21.266   0.011  52.599  0.00  0.00    +0.000 A 
ATOM      6  C   UNL     1      22.607   0.181  53.049  0.00  0.00    +0.000 A 
ATOM      7  C   UNL     1      23.101  -0.613  54.092  0.00  0.00    +0.000 A 
ATOM      8  C   UNL     1      22.244  -1.487  54.758  0.00  0.00    +0.000 A 
ATOM      9  C   UNL     1      20.876  -1.499  54.453  0.00  0.00    +0.000 A 
ATOM     10  C   UNL     1      20.338  -0.735  53.390  0.00  0.00    +0.000 A 
ENDROOT
BRANCH   6  11
ATOM     11  S   UNL     1      23.732   1.362  52.277  0.00  0.00    +0.000 S 
ATOM     12  O   UNL     1      25.043   1.066  52.821  0.00  0.00    +0.000 OA
ATOM     13  O   UNL     1      23.541   1.427  50.847  0.00  0.00    +0.000 OA
BRANCH  11  14
ATOM     14  N   UNL     1      23.355   2.899  52.877  0.00  0.00    +0.000 N 
ATOM     15  C   UNL     1      22.725   3.809  51.972  0.00  0.00    +0.000 A 
ATOM     16  N   UNL     1      21.378   3.801  52.091  0.00  0.00    +0.000 NA
ATOM     17  C   UNL     1      20.727   4.737  51.352  0.00  0.00    +0.000 A 
ATOM     18  C   UNL     1      21.386   5.632  50.514  0.00  0.00    +0.000 A 
ATOM     19 BR   UNL     1      20.398   6.929  49.550  0.00  0.00    +0.000 Br
ATOM     20  N   UNL     1      22.724   5.635  50.382  0.00  0.00    +0.000 NA
ATOM     21  C   UNL     1      23.404   4.708  51.107  0.00  0.00    +0.000 A 
ATOM     22  H   UNL     1      23.559   3.153  53.806  0.00  0.00    +0.000 HD
BRANCH  21  23
ATOM     23  O   UNL     1      24.778   4.706  51.046  0.00  0.00    +0.000 OA
ATOM     24  C   UNL     1      25.261   4.464  49.720  0.00  0.00    +0.000 C 
ENDBRANCH  21  23
ENDBRANCH  11  14
ENDBRANCH   6  11
BRANCH   1  25
ATOM     25  N   UNL     1      17.948  -1.293  53.884  0.00  0.00    +0.000 N 
ATOM     26  H   UNL     1      17.902  -1.086  54.845  0.00  0.00    +0.000 HD
BRANCH  25  28
ATOM     27  C   UNL     1      17.300  -3.658  53.602  0.00  0.00    +0.000 C 
ATOM     28  C   UNL     1      16.995  -2.214  53.254  0.00  0.00    +0.000 C 
ENDBRANCH  25  28
ENDBRANCH   1  25
TORSDOF 5
ENDMDL
MODEL 7
REMARK VINA RESULT:    -7.748      2.788      6.877
REMARK INTER + INTRA:         -10.550
REMARK INTER:                 -10.058
REMARK INTRA:                  -0.492
REMARK UNBOUND:                -0.537
REMARK  Name = 
REMARK  7 active torsions:
REMARK  status: ('A' for Active; 'I' for Inactive)
REMARK    1  A    between atoms: C_1  and  C_2
REMARK    2  A    between atoms: C_2  and  N_3
REMARK    3  A    between atoms: N_3  and  C_4
REMARK    4  A    between atoms: C_9  and  S_10
REMARK    5  A    between atoms: S_10  and  N_13
REMARK    6  A    between atoms: C_20  and  O_21
REMARK    7  A    between atoms: O_21  and  C_22
REMARK                            x       y       z     vdW  Elec       q    Type
REMARK                         _______ _______ _______ _____ _____    ______ ____
ROOT
ATOM      1  C   UNL     1      26.813   6.579  49.050  0.00  0.00    +0.000 A 
ATOM      2  C   UNL     1      27.631   5.507  48.655  0.00  0.00    +0.000 A 
ATOM      3  C   UNL     1      27.218   4.199  48.809  0.00  0.00    +0.000 A 
ATOM      4  C   UNL     1      26.079   3.930  49.543  0.00  0.00    +0.000 A 
ATOM      5  C   UNL     1      25.347   4.938  50.193  0.00  0.00    +0.000 A 
ATOM      6  C   UNL     1      24.318   4.661  51.138  0.00  0.00    +0.000 A 
ATOM      7  C   UNL     1      23.395   5.657  51.478  0.00  0.00    +0.000 A 
ATOM      8  C   UNL     1      23.555   6.947  50.976  0.00  0.00    +0.000 A 
ATOM      9  C   UNL     1      24.687   7.269  50.215  0.00  0.00    +0.000 A 
ATOM     10  C   UNL     1      25.631   6.290  49.823  0.00  0.00    +0.000 A 
ENDROOT
BRANCH   6  11
ATOM     11  S   UNL     1      24.121   3.031  51.885  0.00  0.00    +0.000 S 
ATOM     12  O   UNL     1      22.776   3.009  52.426  0.00  0.00    +0.000 OA
ATOM     13  O   UNL     1      24.561   1.978  50.999  0.00  0.00    +0.000 OA
BRANCH  11  14
ATOM     14  N   UNL     1      25.131   2.962  53.242  0.00  0.00    +0.000 N 
ATOM     15  C   UNL     1      26.113   1.922  53.265  0.00  0.00    +0.000 A 
ATOM     16  N   UNL     1      27.315   2.342  52.810  0.00  0.00    +0.000 NA
ATOM     17  C   UNL     1      28.324   1.440  52.928  0.00  0.00    +0.000 A 
ATOM     18  C   UNL     1      28.142   0.166  53.458  0.00  0.00    +0.000 A 
ATOM     19 BR   UNL     1      29.617  -1.011  53.619  0.00  0.00    +0.000 Br
ATOM     20  N   UNL     1      26.946  -0.260  53.899  0.00  0.00    +0.000 NA
ATOM     21  C   UNL     1      25.915   0.618  53.792  0.00  0.00    +0.000 A 
ATOM     22  H   UNL     1      25.046   3.608  53.980  0.00  0.00    +0.000 HD
BRANCH  21  23
ATOM     23  O   UNL     1      24.683   0.247  54.278  0.00  0.00    +0.000 OA
ATOM     24  C   UNL     1      23.960  -0.572  53.354  0.00  0.00    +0.000 C 
ENDBRANCH  21  23
ENDBRANCH  11  14
ENDBRANCH   6  11
BRANCH   1  25
ATOM     25  N   UNL     1      27.238   7.909  48.791  0.00  0.00    +0.000 N 
ATOM     26  H   UNL     1      26.590   8.641  48.680  0.00  0.00    +0.000 HD
BRANCH  25  28
ATOM     27  C   UNL     1      29.080   9.449  49.363  0.00  0.00    +0.000 C 
ATOM     28  C   UNL     1      28.683   8.146  48.697  0.00  0.00    +0.000 C 
ENDBRANCH  25  28
ENDBRANCH   1  25
TORSDOF 5
ENDMDL
MODEL 8
REMARK VINA RESULT:    -7.706      3.300      4.386
REMARK INTER + INTRA:         -10.495
REMARK INTER:                 -10.613
REMARK INTRA:                   0.118
REMARK UNBOUND:                -0.537
REMARK  Name = 
REMARK  7 active torsions:
REMARK  status: ('A' for Active; 'I' for Inactive)
REMARK    1  A    between atoms: C_1  and  C_2
REMARK    2  A    between atoms: C_2  and  N_3
REMARK    3  A    between atoms: N_3  and  C_4
REMARK    4  A    between atoms: C_9  and  S_10
REMARK    5  A    between atoms: S_10  and  N_13
REMARK    6  A    between atoms: C_20  and  O_21
REMARK    7  A    between atoms: O_21  and  C_22
REMARK                            x       y       z     vdW  Elec       q    Type
REMARK                         _______ _______ _______ _____ _____    ______ ____
ROOT
ATOM      1  C   UNL     1      26.212  -0.203  53.422  0.00  0.00    +0.000 A 
ATOM      2  C   UNL     1      26.332   0.596  52.273  0.00  0.00    +0.000 A 
ATOM      3  C   UNL     1      25.262   1.327  51.796  0.00  0.00    +0.000 A 
ATOM      4  C   UNL     1      24.006   1.117  52.331  0.00  0.00    +0.000 A 
ATOM      5  C   UNL     1      23.760   0.140  53.310  0.00  0.00    +0.000 A 
ATOM      6  C   UNL     1      22.447  -0.251  53.701  0.00  0.00    +0.000 A 
ATOM      7  C   UNL     1      22.251  -0.944  54.902  0.00  0.00    +0.000 A 
ATOM      8  C   UNL     1      23.354  -1.345  55.654  0.00  0.00    +0.000 A 
ATOM      9  C   UNL     1      24.650  -1.144  55.162  0.00  0.00    +0.000 A 
ATOM     10  C   UNL     1      24.897  -0.425  53.968  0.00  0.00    +0.000 A 
ENDROOT
BRANCH   6  11
ATOM     11  S   UNL     1      20.993   0.167  52.717  0.00  0.00    +0.000 S 
ATOM     12  O   UNL     1      21.483   0.391  51.371  0.00  0.00    +0.000 OA
ATOM     13  O   UNL     1      19.907  -0.758  52.945  0.00  0.00    +0.000 OA
BRANCH  11  14
ATOM     14  N   UNL     1      20.442   1.682  53.232  0.00  0.00    +0.000 N 
ATOM     15  C   UNL     1      20.228   2.670  52.220  0.00  0.00    +0.000 A 
ATOM     16  N   UNL     1      18.940   2.715  51.811  0.00  0.00    +0.000 NA
ATOM     17  C   UNL     1      18.643   3.720  50.946  0.00  0.00    +0.000 A 
ATOM     18  C   UNL     1      19.592   4.631  50.491  0.00  0.00    +0.000 A 
ATOM     19 BR   UNL     1      19.078   6.024  49.315  0.00  0.00    +0.000 Br
ATOM     20  N   UNL     1      20.877   4.583  50.885  0.00  0.00    +0.000 NA
ATOM     21  C   UNL     1      21.206   3.586  51.748  0.00  0.00    +0.000 A 
ATOM     22  H   UNL     1      20.276   1.873  54.183  0.00  0.00    +0.000 HD
BRANCH  21  23
ATOM     23  O   UNL     1      22.496   3.526  52.221  0.00  0.00    +0.000 OA
ATOM     24  C   UNL     1      23.048   4.826  52.454  0.00  0.00    +0.000 C 
ENDBRANCH  21  23
ENDBRANCH  11  14
ENDBRANCH   6  11
BRANCH   1  25
ATOM     25  N   UNL     1      27.361  -0.867  53.929  0.00  0.00    +0.000 N 
ATOM     26  H   UNL     1      27.306  -1.780  54.292  0.00  0.00    +0.000 HD
BRANCH  25  28
ATOM     27  C   UNL     1      29.812  -1.074  53.720  0.00  0.00    +0.000 C 
ATOM     28  C   UNL     1      28.632  -0.136  53.887  0.00  0.00    +0.000 C 
ENDBRANCH  25  28
ENDBRANCH   1  25
TORSDOF 5
ENDMDL
MODEL 9
REMARK VINA RESULT:    -7.507      3.175      7.598
REMARK INTER + INTRA:         -10.238
REMARK INTER:                  -9.435
REMARK INTRA:                  -0.803
REMARK UNBOUND:                -0.537
REMARK  Name = 
REMARK  7 active torsions:
REMARK  status: ('A' for Active; 'I' for Inactive)
REMARK    1  A    between atoms: C_1  and  C_2
REMARK    2  A    between atoms: C_2  and  N_3
REMARK    3  A    between atoms: N_3  and  C_4
REMARK    4  A    between atoms: C_9  and  S_10
REMARK    5  A    between atoms: S_10  and  N_13
REMARK    6  A    between atoms: C_20  and  O_21
REMARK    7  A    between atoms: O_21  and  C_22
REMARK                            x       y       z     vdW  Elec       q    Type
REMARK                         _______ _______ _______ _____ _____    ______ ____
ROOT
ATOM      1  C   UNL     1      26.762   8.213  48.476  0.00  0.00    +0.000 A 
ATOM      2  C   UNL     1      25.776   9.082  48.970  0.00  0.00    +0.000 A 
ATOM      3  C   UNL     1      24.874   8.668  49.930  0.00  0.00    +0.000 A 
ATOM      4  C   UNL     1      24.806   7.330  50.263  0.00  0.00    +0.000 A 
ATOM      5  C   UNL     1      25.585   6.354  49.619  0.00  0.00    +0.000 A 
ATOM      6  C   UNL     1      25.363   4.956  49.779  0.00  0.00    +0.000 A 
ATOM      7  C   UNL     1      26.362   4.044  49.418  0.00  0.00    +0.000 A 
ATOM      8  C   UNL     1      27.524   4.501  48.800  0.00  0.00    +0.000 A 
ATOM      9  C   UNL     1      27.649   5.853  48.452  0.00  0.00    +0.000 A 
ATOM     10  C   UNL     1      26.679   6.815  48.821  0.00  0.00    +0.000 A 
ENDROOT
BRANCH   6  11
ATOM     11  S   UNL     1      23.839   4.306  50.493  0.00  0.00    +0.000 S 
ATOM     12  O   UNL     1      23.978   4.471  51.927  0.00  0.00    +0.000 OA
ATOM     13  O   UNL     1      22.670   4.817  49.817  0.00  0.00    +0.000 OA
BRANCH  11  14
ATOM     14  N   UNL     1      23.832   2.631  50.253  0.00  0.00    +0.000 N 
ATOM     15  C   UNL     1      23.525   1.816  51.387  0.00  0.00    +0.000 A 
ATOM     16  N   UNL     1      22.216   1.476  51.435  0.00  0.00    +0.000 NA
ATOM     17  C   UNL     1      21.884   0.596  52.416  0.00  0.00    +0.000 A 
ATOM     18  C   UNL     1      22.810   0.090  53.324  0.00  0.00    +0.000 A 
ATOM     19 BR   UNL     1      22.261  -1.163  54.634  0.00  0.00    +0.000 Br
ATOM     20  N   UNL     1      24.108   0.435  53.288  0.00  0.00    +0.000 NA
ATOM     21  C   UNL     1      24.472   1.316  52.320  0.00  0.00    +0.000 A 
ATOM     22  H   UNL     1      24.030   2.236  49.372  0.00  0.00    +0.000 HD
BRANCH  21  23
ATOM     23  O   UNL     1      25.800   1.660  52.210  0.00  0.00    +0.000 OA
ATOM     24  C   UNL     1      26.649   0.512  52.107  0.00  0.00    +0.000 C 
ENDBRANCH  21  23
ENDBRANCH  11  14
ENDBRANCH   6  11
BRANCH   1  25
ATOM     25  N   UNL     1      27.726   8.705  47.557  0.00  0.00    +0.000 N 
ATOM     26  H   UNL     1      27.732   8.415  46.617  0.00  0.00    +0.000 HD
BRANCH  25  28
ATOM     27  C   UNL     1      29.509   9.091  49.219  0.00  0.00    +0.000 C 
ATOM     28  C   UNL     1      28.709   9.667  48.067  0.00  0.00    +0.000 C 
ENDBRANCH  25  28
ENDBRANCH   1  25
TORSDOF 5
ENDMDL
