MODEL 1
REMARK VINA RESULT:    -8.896      0.000      0.000
REMARK INTER + INTRA:         -14.179
REMARK INTER:                 -12.796
REMARK INTRA:                  -1.383
REMARK UNBOUND:                -1.383
REMARK  Name = 
REMARK  10 active torsions:
REMARK  status: ('A' for Active; 'I' for Inactive)
REMARK    1  A    between atoms: C_2  and  C_3
REMARK    2  A    between atoms: C_3  and  N_4
REMARK    3  A    between atoms: N_4  and  C_5
REMARK    4  A    between atoms: N_4  and  C_18
REMARK    5  A    between atoms: C_5  and  C_6
REMARK    6  A    between atoms: C_11  and  C_12
REMARK    7  A    between atoms: C_14  and  O_15
REMARK    8  A    between atoms: C_21  and  C_22
REMARK    9  A    between atoms: N_24  and  C_25
REMARK   10  A    between atoms: C_25  and  C_26
REMARK                            x       y       z     vdW  Elec       q    Type
REMARK                         _______ _______ _______ _____ _____    ______ ____
ROOT
ATOM      1  N   UNL     1      23.780   3.489  51.231  0.00  0.00    +0.000 N 
ENDROOT
BRANCH   1   2
ATOM      2  C   UNL     1      24.756   4.114  50.464  0.00  0.00    +0.000 A 
ATOM      3  C   UNL     1      25.809   3.407  49.857  0.00  0.00    +0.000 A 
ATOM      4  C   UNL     1      26.858   4.053  49.180  0.00  0.00    +0.000 A 
ATOM      5  C   UNL     1      26.872   5.442  49.041  0.00  0.00    +0.000 A 
ATOM      6  C   UNL     1      25.802   6.162  49.569  0.00  0.00    +0.000 A 
ATOM      7  C   UNL     1      24.789   5.507  50.287  0.00  0.00    +0.000 A 
BRANCH   5   8
ATOM      8  C   UNL     1      28.064   6.083  48.400  0.00  0.00    +0.000 C 
ATOM      9  O   UNL     1      27.906   6.943  47.539  0.00  0.00    +0.000 OA
ATOM     10  N   UNL     1      29.314   5.634  48.781  0.00  0.00    +0.000 N 
ATOM     11  H   UNL     1      29.385   4.999  49.530  0.00  0.00    +0.000 HD
BRANCH  10  12
ATOM     12  C   UNL     1      30.522   6.069  48.112  0.00  0.00    +0.000 C 
ATOM     13  C   UNL     1      31.370   4.901  47.642  0.00  0.00    +0.000 C 
ENDBRANCH  10  12
ENDBRANCH   5   8
ENDBRANCH   1   2
BRANCH   1  14
ATOM     14  C   UNL     1      22.397   3.366  50.771  0.00  0.00    +0.000 C 
BRANCH  14  16
ATOM     15  C   UNL     1      22.363   2.080  48.258  0.00  0.00    +0.000 C 
ATOM     16  C   UNL     1      22.379   2.674  49.418  0.00  0.00    +0.000 C 
ENDBRANCH  14  16
ENDBRANCH   1  14
BRANCH   1  17
ATOM     17  C   UNL     1      23.985   3.132  52.639  0.00  0.00    +0.000 C 
BRANCH  17  18
ATOM     18  C   UNL     1      24.975   1.999  52.825  0.00  0.00    +0.000 A 
ATOM     19  C   UNL     1      24.702   0.672  52.469  0.00  0.00    +0.000 A 
ATOM     20  C   UNL     1      25.694  -0.313  52.562  0.00  0.00    +0.000 A 
ATOM     21  C   UNL     1      26.961  -0.032  53.043  0.00  0.00    +0.000 A 
ATOM     22  N   UNL     1      27.873  -1.011  53.138  0.00  0.00    +0.000 NA
ATOM     23  C   UNL     1      29.076  -0.701  53.656  0.00  0.00    +0.000 A 
ATOM     24  C   UNL     1      30.054  -1.821  53.810  0.00  0.00    +0.000 C 
ATOM     25  N   UNL     1      29.445   0.523  54.072  0.00  0.00    +0.000 NA
ATOM     26  C   UNL     1      28.507   1.466  53.938  0.00  0.00    +0.000 A 
ATOM     27  C   UNL     1      27.232   1.279  53.434  0.00  0.00    +0.000 A 
ATOM     28  C   UNL     1      26.253   2.291  53.309  0.00  0.00    +0.000 A 
BRANCH  26  29
ATOM     29  O   UNL     1      28.911   2.687  54.389  0.00  0.00    +0.000 OA
ATOM     30  H   UNL     1      28.872   2.885  55.303  0.00  0.00    +0.000 HD
ENDBRANCH  26  29
ENDBRANCH  17  18
ENDBRANCH   1  17
TORSDOF 8
ENDMDL
MODEL 2
REMARK VINA RESULT:    -8.327      1.223      1.539
REMARK INTER + INTRA:         -13.361
REMARK INTER:                 -11.954
REMARK INTRA:                  -1.407
REMARK UNBOUND:                -1.383
REMARK  Name = 
REMARK  10 active torsions:
REMARK  status: ('A' for Active; 'I' for Inactive)
REMARK    1  A    between atoms: C_2  and  C_3
REMARK    2  A    between atoms: C_3  and  N_4
REMARK    3  A    between atoms: N_4  and  C_5
REMARK    4  A    between atoms: N_4  and  C_18
REMARK    5  A    between atoms: C_5  and  C_6
REMARK    6  A    between atoms: C_11  and  C_12
REMARK    7  A    between atoms: C_14  and  O_15
REMARK    8  A    between atoms: C_21  and  C_22
REMARK    9  A    between atoms: N_24  and  C_25
REMARK   10  A    between atoms: C_25  and  C_26
REMARK                            x       y       z     vdW  Elec       q    Type
REMARK                         _______ _______ _______ _____ _____    ______ ____
ROOT
ATOM      1  N   UNL     1      22.981   3.514  51.450  0.00  0.00    +0.000 N 
ENDROOT
BRANCH   1   2
ATOM      2  C   UNL     1      23.963   4.291  50.846  0.00  0.00    +0.000 A 
ATOM      3  C   UNL     1      24.144   5.652  51.147  0.00  0.00    +0.000 A 
ATOM      4  C   UNL     1      25.058   6.462  50.452  0.00  0.00    +0.000 A 
ATOM      5  C   UNL     1      25.869   5.929  49.449  0.00  0.00    +0.000 A 
ATOM      6  C   UNL     1      25.763   4.566  49.180  0.00  0.00    +0.000 A 
ATOM      7  C   UNL     1      24.808   3.781  49.847  0.00  0.00    +0.000 A 
BRANCH   5   8
ATOM      8  C   UNL     1      26.750   6.858  48.674  0.00  0.00    +0.000 C 
ATOM      9  O   UNL     1      26.322   7.404  47.662  0.00  0.00    +0.000 OA
ATOM     10  N   UNL     1      28.048   7.028  49.117  0.00  0.00    +0.000 N 
ATOM     11  H   UNL     1      28.315   6.629  49.976  0.00  0.00    +0.000 HD
BRANCH  10  12
ATOM     12  C   UNL     1      29.027   7.775  48.355  0.00  0.00    +0.000 C 
ATOM     13  C   UNL     1      30.415   7.686  48.962  0.00  0.00    +0.000 C 
ENDBRANCH  10  12
ENDBRANCH   5   8
ENDBRANCH   1   2
BRANCH   1  14
ATOM     14  C   UNL     1      21.648   3.364  50.868  0.00  0.00    +0.000 C 
BRANCH  14  16
ATOM     15  C   UNL     1      21.470   0.856  49.584  0.00  0.00    +0.000 C 
ATOM     16  C   UNL     1      21.553   2.014  50.177  0.00  0.00    +0.000 C 
ENDBRANCH  14  16
ENDBRANCH   1  14
BRANCH   1  17
ATOM     17  C   UNL     1      23.109   2.995  52.816  0.00  0.00    +0.000 C 
BRANCH  17  18
ATOM     18  C   UNL     1      24.202   1.953  52.954  0.00  0.00    +0.000 A 
ATOM     19  C   UNL     1      24.006   0.592  52.689  0.00  0.00    +0.000 A 
ATOM     20  C   UNL     1      25.079  -0.307  52.727  0.00  0.00    +0.000 A 
ATOM     21  C   UNL     1      26.359   0.095  53.067  0.00  0.00    +0.000 A 
ATOM     22  N   UNL     1      27.353  -0.804  53.115  0.00  0.00    +0.000 NA
ATOM     23  C   UNL     1      28.571  -0.374  53.496  0.00  0.00    +0.000 A 
ATOM     24  C   UNL     1      29.647  -1.406  53.603  0.00  0.00    +0.000 C 
ATOM     25  N   UNL     1      28.876   0.895  53.817  0.00  0.00    +0.000 NA
ATOM     26  C   UNL     1      27.855   1.754  53.734  0.00  0.00    +0.000 A 
ATOM     27  C   UNL     1      26.558   1.442  53.368  0.00  0.00    +0.000 A 
ATOM     28  C   UNL     1      25.492   2.368  53.295  0.00  0.00    +0.000 A 
BRANCH  26  29
ATOM     29  O   UNL     1      28.199   3.025  54.086  0.00  0.00    +0.000 OA
ATOM     30  H   UNL     1      27.830   3.414  54.854  0.00  0.00    +0.000 HD
ENDBRANCH  26  29
ENDBRANCH  17  18
ENDBRANCH   1  17
TORSDOF 8
ENDMDL
MODEL 3
REMARK VINA RESULT:    -8.050      2.876      3.786
REMARK INTER + INTRA:         -12.963
REMARK INTER:                 -11.581
REMARK INTRA:                  -1.383
REMARK UNBOUND:                -1.383
REMARK  Name = 
REMARK  10 active torsions:
REMARK  status: ('A' for Active; 'I' for Inactive)
REMARK    1  A    between atoms: C_2  and  C_3
REMARK    2  A    between atoms: C_3  and  N_4
REMARK    3  A    between atoms: N_4  and  C_5
REMARK    4  A    between atoms: N_4  and  C_18
REMARK    5  A    between atoms: C_5  and  C_6
REMARK    6  A    between atoms: C_11  and  C_12
REMARK    7  A    between atoms: C_14  and  O_15
REMARK    8  A    between atoms: C_21  and  C_22
REMARK    9  A    between atoms: N_24  and  C_25
REMARK   10  A    between atoms: C_25  and  C_26
REMARK                            x       y       z     vdW  Elec       q    Type
REMARK                         _______ _______ _______ _____ _____    ______ ____
ROOT
ATOM      1  N   UNL     1      23.767   5.072  49.659  0.00  0.00    +0.000 N 
ENDROOT
BRANCH   1   2
ATOM      2  C   UNL     1      25.060   5.294  49.199  0.00  0.00    +0.000 A 
ATOM      3  C   UNL     1      26.082   4.337  49.323  0.00  0.00    +0.000 A 
ATOM      4  C   UNL     1      27.414   4.608  48.963  0.00  0.00    +0.000 A 
ATOM      5  C   UNL     1      27.772   5.841  48.416  0.00  0.00    +0.000 A 
ATOM      6  C   UNL     1      26.764   6.782  48.214  0.00  0.00    +0.000 A 
ATOM      7  C   UNL     1      25.448   6.516  48.626  0.00  0.00    +0.000 A 
BRANCH   5   8
ATOM      8  C   UNL     1      29.220   6.109  48.147  0.00  0.00    +0.000 C 
ATOM      9  O   UNL     1      29.550   6.721  47.136  0.00  0.00    +0.000 OA
ATOM     10  N   UNL     1      30.142   5.604  49.043  0.00  0.00    +0.000 N 
ATOM     11  H   UNL     1      29.819   5.189  49.876  0.00  0.00    +0.000 HD
BRANCH  10  12
ATOM     12  C   UNL     1      31.567   5.666  48.796  0.00  0.00    +0.000 C 
ATOM     13  C   UNL     1      32.049   4.517  47.930  0.00  0.00    +0.000 C 
ENDBRANCH  10  12
ENDBRANCH   5   8
ENDBRANCH   1   2
BRANCH   1  14
ATOM     14  C   UNL     1      22.647   4.859  48.743  0.00  0.00    +0.000 C 
BRANCH  14  16
ATOM     15  C   UNL     1      22.584   2.145  47.968  0.00  0.00    +0.000 C 
ATOM     16  C   UNL     1      22.613   3.398  48.326  0.00  0.00    +0.000 C 
ENDBRANCH  14  16
ENDBRANCH   1  14
BRANCH   1  17
ATOM     17  C   UNL     1      23.376   5.276  51.058  0.00  0.00    +0.000 C 
BRANCH  17  18
ATOM     18  C   UNL     1      22.819   4.025  51.708  0.00  0.00    +0.000 A 
ATOM     19  C   UNL     1      21.463   3.858  52.019  0.00  0.00    +0.000 A 
ATOM     20  C   UNL     1      20.988   2.639  52.516  0.00  0.00    +0.000 A 
ATOM     21  C   UNL     1      21.831   1.569  52.761  0.00  0.00    +0.000 A 
ATOM     22  N   UNL     1      21.337   0.427  53.261  0.00  0.00    +0.000 NA
ATOM     23  C   UNL     1      22.203  -0.569  53.527  0.00  0.00    +0.000 A 
ATOM     24  C   UNL     1      21.637  -1.808  54.142  0.00  0.00    +0.000 C 
ATOM     25  N   UNL     1      23.529  -0.517  53.313  0.00  0.00    +0.000 NA
ATOM     26  C   UNL     1      23.967   0.635  52.796  0.00  0.00    +0.000 A 
ATOM     27  C   UNL     1      23.189   1.737  52.488  0.00  0.00    +0.000 A 
ATOM     28  C   UNL     1      23.677   2.949  51.949  0.00  0.00    +0.000 A 
BRANCH  26  29
ATOM     29  O   UNL     1      25.318   0.657  52.613  0.00  0.00    +0.000 OA
ATOM     30  H   UNL     1      25.774   1.474  52.594  0.00  0.00    +0.000 HD
ENDBRANCH  26  29
ENDBRANCH  17  18
ENDBRANCH   1  17
TORSDOF 8
ENDMDL
MODEL 4
REMARK VINA RESULT:    -7.854      3.469      6.194
REMARK INTER + INTRA:         -12.681
REMARK INTER:                 -11.786
REMARK INTRA:                  -0.895
REMARK UNBOUND:                -1.383
REMARK  Name = 
REMARK  10 active torsions:
REMARK  status: ('A' for Active; 'I' for Inactive)
REMARK    1  A    between atoms: C_2  and  C_3
REMARK    2  A    between atoms: C_3  and  N_4
REMARK    3  A    between atoms: N_4  and  C_5
REMARK    4  A    between atoms: N_4  and  C_18
REMARK    5  A    between atoms: C_5  and  C_6
REMARK    6  A    between atoms: C_11  and  C_12
REMARK    7  A    between atoms: C_14  and  O_15
REMARK    8  A    between atoms: C_21  and  C_22
REMARK    9  A    between atoms: N_24  and  C_25
REMARK   10  A    between atoms: C_25  and  C_26
REMARK                            x       y       z     vdW  Elec       q    Type
REMARK                         _______ _______ _______ _____ _____    ______ ____
ROOT
ATOM      1  N   UNL     1      25.612   0.674  53.606  0.00  0.00    +0.000 N 
ENDROOT
BRANCH   1   2
ATOM      2  C   UNL     1      25.566   1.613  52.582  0.00  0.00    +0.000 A 
ATOM      3  C   UNL     1      26.457   1.592  51.495  0.00  0.00    +0.000 A 
ATOM      4  C   UNL     1      26.484   2.608  50.524  0.00  0.00    +0.000 A 
ATOM      5  C   UNL     1      25.581   3.671  50.574  0.00  0.00    +0.000 A 
ATOM      6  C   UNL     1      24.637   3.677  51.600  0.00  0.00    +0.000 A 
ATOM      7  C   UNL     1      24.657   2.684  52.592  0.00  0.00    +0.000 A 
BRANCH   5   8
ATOM      8  C   UNL     1      25.722   4.775  49.572  0.00  0.00    +0.000 C 
ATOM      9  O   UNL     1      24.774   5.069  48.851  0.00  0.00    +0.000 OA
ATOM     10  N   UNL     1      26.952   5.394  49.472  0.00  0.00    +0.000 N 
ATOM     11  H   UNL     1      27.653   5.173  50.128  0.00  0.00    +0.000 HD
BRANCH  10  12
ATOM     12  C   UNL     1      27.243   6.359  48.432  0.00  0.00    +0.000 C 
ATOM     13  C   UNL     1      28.687   6.287  47.971  0.00  0.00    +0.000 C 
ENDBRANCH  10  12
ENDBRANCH   5   8
ENDBRANCH   1   2
BRANCH   1  14
ATOM     14  C   UNL     1      26.453   0.861  54.788  0.00  0.00    +0.000 C 
BRANCH  14  16
ATOM     15  C   UNL     1      28.975  -0.323  54.333  0.00  0.00    +0.000 C 
ATOM     16  C   UNL     1      27.810   0.224  54.543  0.00  0.00    +0.000 C 
ENDBRANCH  14  16
ENDBRANCH   1  14
BRANCH   1  17
ATOM     17  C   UNL     1      25.032  -0.667  53.480  0.00  0.00    +0.000 C 
BRANCH  17  18
ATOM     18  C   UNL     1      23.517  -0.655  53.421  0.00  0.00    +0.000 A 
ATOM     19  C   UNL     1      22.702  -1.016  54.501  0.00  0.00    +0.000 A 
ATOM     20  C   UNL     1      21.310  -0.880  54.425  0.00  0.00    +0.000 A 
ATOM     21  C   UNL     1      20.680  -0.430  53.278  0.00  0.00    +0.000 A 
ATOM     22  N   UNL     1      19.343  -0.338  53.240  0.00  0.00    +0.000 NA
ATOM     23  C   UNL     1      18.773   0.060  52.087  0.00  0.00    +0.000 A 
ATOM     24  C   UNL     1      17.279   0.093  52.049  0.00  0.00    +0.000 C 
ATOM     25  N   UNL     1      19.442   0.392  50.969  0.00  0.00    +0.000 NA
ATOM     26  C   UNL     1      20.773   0.302  51.066  0.00  0.00    +0.000 A 
ATOM     27  C   UNL     1      21.481  -0.102  52.184  0.00  0.00    +0.000 A 
ATOM     28  C   UNL     1      22.890  -0.197  52.259  0.00  0.00    +0.000 A 
BRANCH  26  29
ATOM     29  O   UNL     1      21.414   0.627  49.908  0.00  0.00    +0.000 OA
ATOM     30  H   UNL     1      22.333   0.470  49.822  0.00  0.00    +0.000 HD
ENDBRANCH  26  29
ENDBRANCH  17  18
ENDBRANCH   1  17
TORSDOF 8
ENDMDL
MODEL 5
REMARK VINA RESULT:    -7.801      2.857      4.036
REMARK INTER + INTRA:         -12.605
REMARK INTER:                 -11.458
REMARK INTRA:                  -1.147
REMARK UNBOUND:                -1.383
REMARK  Name = 
REMARK  10 active torsions:
REMARK  status: ('A' for Active; 'I' for Inactive)
REMARK    1  A    between atoms: C_2  and  C_3
REMARK    2  A    between atoms: C_3  and  N_4
REMARK    3  A    between atoms: N_4  and  C_5
REMARK    4  A    between atoms: N_4  and  C_18
REMARK    5  A    between atoms: C_5  and  C_6
REMARK    6  A    between atoms: C_11  and  C_12
REMARK    7  A    between atoms: C_14  and  O_15
REMARK    8  A    between atoms: C_21  and  C_22
REMARK    9  A    between atoms: N_24  and  C_25
REMARK   10  A    between atoms: C_25  and  C_26
REMARK                            x       y       z     vdW  Elec       q    Type
REMARK                         _______ _______ _______ _____ _____    ______ ____
ROOT
ATOM      1  N   UNL     1      23.454   4.469  49.287  0.00  0.00    +0.000 N 
ENDROOT
BRANCH   1   2
ATOM      2  C   UNL     1      24.773   4.879  49.135  0.00  0.00    +0.000 A 
ATOM      3  C   UNL     1      25.120   6.179  48.729  0.00  0.00    +0.000 A 
ATOM      4  C   UNL     1      26.448   6.556  48.463  0.00  0.00    +0.000 A 
ATOM      5  C   UNL     1      27.498   5.652  48.639  0.00  0.00    +0.000 A 
ATOM      6  C   UNL     1      27.190   4.378  49.112  0.00  0.00    +0.000 A 
ATOM      7  C   UNL     1      25.854   4.001  49.323  0.00  0.00    +0.000 A 
BRANCH   5   8
ATOM      8  C   UNL     1      28.878   6.077  48.244  0.00  0.00    +0.000 C 
ATOM      9  O   UNL     1      29.045   6.741  47.225  0.00  0.00    +0.000 OA
ATOM     10  N   UNL     1      29.928   5.656  49.036  0.00  0.00    +0.000 N 
ATOM     11  H   UNL     1      29.732   5.193  49.883  0.00  0.00    +0.000 HD
BRANCH  10  12
ATOM     12  C   UNL     1      31.310   5.873  48.660  0.00  0.00    +0.000 C 
ATOM     13  C   UNL     1      31.903   7.097  49.332  0.00  0.00    +0.000 C 
ENDBRANCH  10  12
ENDBRANCH   5   8
ENDBRANCH   1   2
BRANCH   1  14
ATOM     14  C   UNL     1      22.522   5.176  50.165  0.00  0.00    +0.000 C 
BRANCH  14  16
ATOM     15  C   UNL     1      23.475   5.059  52.820  0.00  0.00    +0.000 C 
ATOM     16  C   UNL     1      23.035   5.113  51.594  0.00  0.00    +0.000 C 
ENDBRANCH  14  16
ENDBRANCH   1  14
BRANCH   1  17
ATOM     17  C   UNL     1      22.961   3.180  48.791  0.00  0.00    +0.000 C 
BRANCH  17  18
ATOM     18  C   UNL     1      22.522   2.245  49.901  0.00  0.00    +0.000 A 
ATOM     19  C   UNL     1      21.236   1.696  49.981  0.00  0.00    +0.000 A 
ATOM     20  C   UNL     1      20.921   0.753  50.967  0.00  0.00    +0.000 A 
ATOM     21  C   UNL     1      21.840   0.357  51.922  0.00  0.00    +0.000 A 
ATOM     22  N   UNL     1      21.488  -0.531  52.864  0.00  0.00    +0.000 NA
ATOM     23  C   UNL     1      22.402  -0.850  53.799  0.00  0.00    +0.000 A 
ATOM     24  C   UNL     1      21.966  -1.794  54.874  0.00  0.00    +0.000 C 
ATOM     25  N   UNL     1      23.653  -0.360  53.856  0.00  0.00    +0.000 NA
ATOM     26  C   UNL     1      23.959   0.505  52.884  0.00  0.00    +0.000 A 
ATOM     27  C   UNL     1      23.113   0.925  51.873  0.00  0.00    +0.000 A 
ATOM     28  C   UNL     1      23.458   1.849  50.860  0.00  0.00    +0.000 A 
BRANCH  26  29
ATOM     29  O   UNL     1      25.227   0.994  52.987  0.00  0.00    +0.000 OA
ATOM     30  H   UNL     1      25.505   1.695  52.431  0.00  0.00    +0.000 HD
ENDBRANCH  26  29
ENDBRANCH  17  18
ENDBRANCH   1  17
TORSDOF 8
ENDMDL
MODEL 6
REMARK VINA RESULT:    -7.677      4.237      7.549
REMARK INTER + INTRA:         -12.427
REMARK INTER:                 -11.538
REMARK INTRA:                  -0.889
REMARK UNBOUND:                -1.383
REMARK  Name = 
REMARK  10 active torsions:
REMARK  status: ('A' for Active; 'I' for Inactive)
REMARK    1  A    between atoms: C_2  and  C_3
REMARK    2  A    between atoms: C_3  and  N_4
REMARK    3  A    between atoms: N_4  and  C_5
REMARK    4  A    between atoms: N_4  and  C_18
REMARK    5  A    between atoms: C_5  and  C_6
REMARK    6  A    between atoms: C_11  and  C_12
REMARK    7  A    between atoms: C_14  and  O_15
REMARK    8  A    between atoms: C_21  and  C_22
REMARK    9  A    between atoms: N_24  and  C_25
REMARK   10  A    between atoms: C_25  and  C_26
REMARK                            x       y       z     vdW  Elec       q    Type
REMARK                         _______ _______ _______ _____ _____    ______ ____
ROOT
ATOM      1  N   UNL     1      22.798   2.048  51.888  0.00  0.00    +0.000 N 
ENDROOT
BRANCH   1   2
ATOM      2  C   UNL     1      21.616   1.366  52.151  0.00  0.00    +0.000 A 
ATOM      3  C   UNL     1      21.307   0.848  53.421  0.00  0.00    +0.000 A 
ATOM      4  C   UNL     1      20.167   0.059  53.655  0.00  0.00    +0.000 A 
ATOM      5  C   UNL     1      19.257  -0.208  52.631  0.00  0.00    +0.000 A 
ATOM      6  C   UNL     1      19.501   0.355  51.379  0.00  0.00    +0.000 A 
ATOM      7  C   UNL     1      20.670   1.097  51.148  0.00  0.00    +0.000 A 
BRANCH   5   8
ATOM      8  C   UNL     1      18.117  -1.136  52.913  0.00  0.00    +0.000 C 
ATOM      9  O   UNL     1      18.280  -2.091  53.667  0.00  0.00    +0.000 OA
ATOM     10  N   UNL     1      16.922  -0.897  52.264  0.00  0.00    +0.000 N 
ATOM     11  H   UNL     1      16.823  -0.073  51.733  0.00  0.00    +0.000 HD
BRANCH  10  12
ATOM     12  C   UNL     1      15.809  -1.820  52.340  0.00  0.00    +0.000 C 
ATOM     13  C   UNL     1      14.896  -1.718  51.133  0.00  0.00    +0.000 C 
ENDBRANCH  10  12
ENDBRANCH   5   8
ENDBRANCH   1   2
BRANCH   1  14
ATOM     14  C   UNL     1      23.315   2.201  50.528  0.00  0.00    +0.000 C 
BRANCH  14  16
ATOM     15  C   UNL     1      23.381   4.944  49.861  0.00  0.00    +0.000 C 
ATOM     16  C   UNL     1      23.350   3.677  50.169  0.00  0.00    +0.000 C 
ENDBRANCH  14  16
ENDBRANCH   1  14
BRANCH   1  17
ATOM     17  C   UNL     1      23.736   2.447  52.942  0.00  0.00    +0.000 C 
BRANCH  17  18
ATOM     18  C   UNL     1      24.881   1.468  53.119  0.00  0.00    +0.000 A 
ATOM     19  C   UNL     1      24.752   0.089  52.911  0.00  0.00    +0.000 A 
ATOM     20  C   UNL     1      25.869  -0.753  52.982  0.00  0.00    +0.000 A 
ATOM     21  C   UNL     1      27.128  -0.274  53.300  0.00  0.00    +0.000 A 
ATOM     22  N   UNL     1      28.166  -1.119  53.381  0.00  0.00    +0.000 NA
ATOM     23  C   UNL     1      29.361  -0.614  53.738  0.00  0.00    +0.000 A 
ATOM     24  C   UNL     1      30.488  -1.585  53.883  0.00  0.00    +0.000 C 
ATOM     25  N   UNL     1      29.604   0.681  54.005  0.00  0.00    +0.000 NA
ATOM     26  C   UNL     1      28.541   1.484  53.891  0.00  0.00    +0.000 A 
ATOM     27  C   UNL     1      27.260   1.093  53.543  0.00  0.00    +0.000 A 
ATOM     28  C   UNL     1      26.149   1.961  53.437  0.00  0.00    +0.000 A 
BRANCH  26  29
ATOM     29  O   UNL     1      28.821   2.785  54.188  0.00  0.00    +0.000 OA
ATOM     30  H   UNL     1      28.680   3.452  53.547  0.00  0.00    +0.000 HD
ENDBRANCH  26  29
ENDBRANCH  17  18
ENDBRANCH   1  17
TORSDOF 8
ENDMDL
MODEL 7
REMARK VINA RESULT:    -7.558      3.164      4.347
REMARK INTER + INTRA:         -12.254
REMARK INTER:                 -10.983
REMARK INTRA:                  -1.272
REMARK UNBOUND:                -1.383
REMARK  Name = 
REMARK  10 active torsions:
REMARK  status: ('A' for Active; 'I' for Inactive)
REMARK    1  A    between atoms: C_2  and  C_3
REMARK    2  A    between atoms: C_3  and  N_4
REMARK    3  A    between atoms: N_4  and  C_5
REMARK    4  A    between atoms: N_4  and  C_18
REMARK    5  A    between atoms: C_5  and  C_6
REMARK    6  A    between atoms: C_11  and  C_12
REMARK    7  A    between atoms: C_14  and  O_15
REMARK    8  A    between atoms: C_21  and  C_22
REMARK    9  A    between atoms: N_24  and  C_25
REMARK   10  A    between atoms: C_25  and  C_26
REMARK                            x       y       z     vdW  Elec       q    Type
REMARK                         _______ _______ _______ _____ _____    ______ ____
ROOT
ATOM      1  N   UNL     1      24.013   5.028  49.559  0.00  0.00    +0.000 N 
ENDROOT
BRANCH   1   2
ATOM      2  C   UNL     1      25.318   5.267  49.144  0.00  0.00    +0.000 A 
ATOM      3  C   UNL     1      26.306   4.268  49.140  0.00  0.00    +0.000 A 
ATOM      4  C   UNL     1      27.650   4.540  48.831  0.00  0.00    +0.000 A 
ATOM      5  C   UNL     1      28.056   5.825  48.465  0.00  0.00    +0.000 A 
ATOM      6  C   UNL     1      27.082   6.819  48.389  0.00  0.00    +0.000 A 
ATOM      7  C   UNL     1      25.753   6.543  48.750  0.00  0.00    +0.000 A 
BRANCH   5   8
ATOM      8  C   UNL     1      29.515   6.078  48.246  0.00  0.00    +0.000 C 
ATOM      9  O   UNL     1      30.191   5.258  47.632  0.00  0.00    +0.000 OA
ATOM     10  N   UNL     1      30.055   7.224  48.796  0.00  0.00    +0.000 N 
ATOM     11  H   UNL     1      29.453   7.884  49.210  0.00  0.00    +0.000 HD
BRANCH  10  12
ATOM     12  C   UNL     1      31.480   7.484  48.782  0.00  0.00    +0.000 C 
ATOM     13  C   UNL     1      31.829   8.727  47.984  0.00  0.00    +0.000 C 
ENDBRANCH  10  12
ENDBRANCH   5   8
ENDBRANCH   1   2
BRANCH   1  14
ATOM     14  C   UNL     1      22.901   4.961  48.612  0.00  0.00    +0.000 C 
BRANCH  14  16
ATOM     15  C   UNL     1      22.501   2.276  47.834  0.00  0.00    +0.000 C 
ATOM     16  C   UNL     1      22.686   3.516  48.193  0.00  0.00    +0.000 C 
ENDBRANCH  14  16
ENDBRANCH   1  14
BRANCH   1  17
ATOM     17  C   UNL     1      23.608   5.071  50.968  0.00  0.00    +0.000 C 
BRANCH  17  18
ATOM     18  C   UNL     1      23.474   3.694  51.589  0.00  0.00    +0.000 A 
ATOM     19  C   UNL     1      24.571   2.897  51.937  0.00  0.00    +0.000 A 
ATOM     20  C   UNL     1      24.389   1.681  52.608  0.00  0.00    +0.000 A 
ATOM     21  C   UNL     1      23.130   1.197  52.916  0.00  0.00    +0.000 A 
ATOM     22  N   UNL     1      23.000   0.016  53.538  0.00  0.00    +0.000 NA
ATOM     23  C   UNL     1      21.754  -0.436  53.774  0.00  0.00    +0.000 A 
ATOM     24  C   UNL     1      21.635  -1.784  54.411  0.00  0.00    +0.000 C 
ATOM     25  N   UNL     1      20.623   0.213  53.451  0.00  0.00    +0.000 NA
ATOM     26  C   UNL     1      20.808   1.394  52.851  0.00  0.00    +0.000 A 
ATOM     27  C   UNL     1      22.029   1.966  52.542  0.00  0.00    +0.000 A 
ATOM     28  C   UNL     1      22.198   3.214  51.899  0.00  0.00    +0.000 A 
BRANCH  26  29
ATOM     29  O   UNL     1      19.639   2.012  52.522  0.00  0.00    +0.000 OA
ATOM     30  H   UNL     1      19.621   2.641  51.828  0.00  0.00    +0.000 HD
ENDBRANCH  26  29
ENDBRANCH  17  18
ENDBRANCH   1  17
TORSDOF 8
ENDMDL
MODEL 8
REMARK VINA RESULT:    -7.556      5.248      8.553
REMARK INTER + INTRA:         -12.252
REMARK INTER:                 -11.301
REMARK INTRA:                  -0.951
REMARK UNBOUND:                -1.383
REMARK  Name = 
REMARK  10 active torsions:
REMARK  status: ('A' for Active; 'I' for Inactive)
REMARK    1  A    between atoms: C_2  and  C_3
REMARK    2  A    between atoms: C_3  and  N_4
REMARK    3  A    between atoms: N_4  and  C_5
REMARK    4  A    between atoms: N_4  and  C_18
REMARK    5  A    between atoms: C_5  and  C_6
REMARK    6  A    between atoms: C_11  and  C_12
REMARK    7  A    between atoms: C_14  and  O_15
REMARK    8  A    between atoms: C_21  and  C_22
REMARK    9  A    between atoms: N_24  and  C_25
REMARK   10  A    between atoms: C_25  and  C_26
REMARK                            x       y       z     vdW  Elec       q    Type
REMARK                         _______ _______ _______ _____ _____    ______ ____
ROOT
ATOM      1  N   UNL     1      20.991   1.786  52.047  0.00  0.00    +0.000 N 
ENDROOT
BRANCH   1   2
ATOM      2  C   UNL     1      20.004   0.856  52.357  0.00  0.00    +0.000 A 
ATOM      3  C   UNL     1      20.104  -0.017  53.454  0.00  0.00    +0.000 A 
ATOM      4  C   UNL     1      19.163  -1.032  53.696  0.00  0.00    +0.000 A 
ATOM      5  C   UNL     1      18.049  -1.188  52.870  0.00  0.00    +0.000 A 
ATOM      6  C   UNL     1      17.886  -0.290  51.817  0.00  0.00    +0.000 A 
ATOM      7  C   UNL     1      18.862   0.686  51.558  0.00  0.00    +0.000 A 
BRANCH   5   8
ATOM      8  C   UNL     1      17.135  -2.349  53.116  0.00  0.00    +0.000 C 
ATOM      9  O   UNL     1      17.550  -3.336  53.716  0.00  0.00    +0.000 OA
ATOM     10  N   UNL     1      15.854  -2.273  52.606  0.00  0.00    +0.000 N 
ATOM     11  H   UNL     1      15.550  -1.428  52.202  0.00  0.00    +0.000 HD
BRANCH  10  12
ATOM     12  C   UNL     1      14.944  -3.399  52.646  0.00  0.00    +0.000 C 
ATOM     13  C   UNL     1      14.629  -3.932  51.261  0.00  0.00    +0.000 C 
ENDBRANCH  10  12
ENDBRANCH   5   8
ENDBRANCH   1   2
BRANCH   1  14
ATOM     14  C   UNL     1      20.832   3.209  52.346  0.00  0.00    +0.000 C 
BRANCH  14  16
ATOM     15  C   UNL     1      20.690   4.657  49.926  0.00  0.00    +0.000 C 
ATOM     16  C   UNL     1      20.756   3.988  51.043  0.00  0.00    +0.000 C 
ENDBRANCH  14  16
ENDBRANCH   1  14
BRANCH   1  17
ATOM     17  C   UNL     1      22.138   1.470  51.191  0.00  0.00    +0.000 C 
BRANCH  17  18
ATOM     18  C   UNL     1      23.381   1.098  51.976  0.00  0.00    +0.000 A 
ATOM     19  C   UNL     1      23.414   0.060  52.916  0.00  0.00    +0.000 A 
ATOM     20  C   UNL     1      24.617  -0.311  53.531  0.00  0.00    +0.000 A 
ATOM     21  C   UNL     1      25.804   0.351  53.274  0.00  0.00    +0.000 A 
ATOM     22  N   UNL     1      26.928  -0.021  53.904  0.00  0.00    +0.000 NA
ATOM     23  C   UNL     1      28.049   0.683  53.657  0.00  0.00    +0.000 A 
ATOM     24  C   UNL     1      29.274   0.289  54.418  0.00  0.00    +0.000 C 
ATOM     25  N   UNL     1      28.137   1.724  52.812  0.00  0.00    +0.000 NA
ATOM     26  C   UNL     1      26.994   2.042  52.195  0.00  0.00    +0.000 A 
ATOM     27  C   UNL     1      25.775   1.410  52.366  0.00  0.00    +0.000 A 
ATOM     28  C   UNL     1      24.576   1.770  51.709  0.00  0.00    +0.000 A 
BRANCH  26  29
ATOM     29  O   UNL     1      27.118   3.113  51.362  0.00  0.00    +0.000 OA
ATOM     30  H   UNL     1      27.131   3.981  51.714  0.00  0.00    +0.000 HD
ENDBRANCH  26  29
ENDBRANCH  17  18
ENDBRANCH   1  17
TORSDOF 8
ENDMDL
MODEL 9
REMARK VINA RESULT:    -7.464      2.524      3.162
REMARK INTER + INTRA:         -12.120
REMARK INTER:                 -10.956
REMARK INTRA:                  -1.164
REMARK UNBOUND:                -1.383
REMARK  Name = 
REMARK  10 active torsions:
REMARK  status: ('A' for Active; 'I' for Inactive)
REMARK    1  A    between atoms: C_2  and  C_3
REMARK    2  A    between atoms: C_3  and  N_4
REMARK    3  A    between atoms: N_4  and  C_5
REMARK    4  A    between atoms: N_4  and  C_18
REMARK    5  A    between atoms: C_5  and  C_6
REMARK    6  A    between atoms: C_11  and  C_12
REMARK    7  A    between atoms: C_14  and  O_15
REMARK    8  A    between atoms: C_21  and  C_22
REMARK    9  A    between atoms: N_24  and  C_25
REMARK   10  A    between atoms: C_25  and  C_26
REMARK                            x       y       z     vdW  Elec       q    Type
REMARK                         _______ _______ _______ _____ _____    ______ ____
ROOT
ATOM      1  N   UNL     1      21.635   2.875  51.335  0.00  0.00    +0.000 N 
ENDROOT
BRANCH   1   2
ATOM      2  C   UNL     1      22.293   4.074  51.088  0.00  0.00    +0.000 A 
ATOM      3  C   UNL     1      22.536   4.551  49.789  0.00  0.00    +0.000 A 
ATOM      4  C   UNL     1      23.302   5.703  49.541  0.00  0.00    +0.000 A 
ATOM      5  C   UNL     1      23.823   6.457  50.593  0.00  0.00    +0.000 A 
ATOM      6  C   UNL     1      23.535   6.048  51.894  0.00  0.00    +0.000 A 
ATOM      7  C   UNL     1      22.812   4.867  52.125  0.00  0.00    +0.000 A 
BRANCH   5   8
ATOM      8  C   UNL     1      24.715   7.615  50.268  0.00  0.00    +0.000 C 
ATOM      9  O   UNL     1      24.254   8.602  49.703  0.00  0.00    +0.000 OA
ATOM     10  N   UNL     1      26.055   7.499  50.585  0.00  0.00    +0.000 N 
ATOM     11  H   UNL     1      26.356   6.720  51.107  0.00  0.00    +0.000 HD
BRANCH  10  12
ATOM     12  C   UNL     1      27.030   8.486  50.172  0.00  0.00    +0.000 C 
ATOM     13  C   UNL     1      27.659   8.147  48.833  0.00  0.00    +0.000 C 
ENDBRANCH  10  12
ENDBRANCH   5   8
ENDBRANCH   1   2
BRANCH   1  14
ATOM     14  C   UNL     1      20.453   2.805  52.194  0.00  0.00    +0.000 C 
BRANCH  14  16
ATOM     15  C   UNL     1      18.973   0.487  51.552  0.00  0.00    +0.000 C 
ATOM     16  C   UNL     1      19.656   1.558  51.849  0.00  0.00    +0.000 C 
ENDBRANCH  14  16
ENDBRANCH   1  14
BRANCH   1  17
ATOM     17  C   UNL     1      22.198   1.570  50.970  0.00  0.00    +0.000 C 
BRANCH  17  18
ATOM     18  C   UNL     1      23.361   1.159  51.852  0.00  0.00    +0.000 A 
ATOM     19  C   UNL     1      23.274   0.149  52.819  0.00  0.00    +0.000 A 
ATOM     20  C   UNL     1      24.409  -0.263  53.527  0.00  0.00    +0.000 A 
ATOM     21  C   UNL     1      25.645   0.330  53.338  0.00  0.00    +0.000 A 
ATOM     22  N   UNL     1      26.702  -0.080  54.056  0.00  0.00    +0.000 NA
ATOM     23  C   UNL     1      27.873   0.558  53.871  0.00  0.00    +0.000 A 
ATOM     24  C   UNL     1      29.019   0.125  54.727  0.00  0.00    +0.000 C 
ATOM     25  N   UNL     1      28.074   1.567  53.006  0.00  0.00    +0.000 NA
ATOM     26  C   UNL     1      26.995   1.924  52.302  0.00  0.00    +0.000 A 
ATOM     27  C   UNL     1      25.735   1.360  52.403  0.00  0.00    +0.000 A 
ATOM     28  C   UNL     1      24.606   1.761  51.652  0.00  0.00    +0.000 A 
BRANCH  26  29
ATOM     29  O   UNL     1      27.233   2.963  51.452  0.00  0.00    +0.000 OA
ATOM     30  H   UNL     1      26.517   3.451  51.099  0.00  0.00    +0.000 HD
ENDBRANCH  26  29
ENDBRANCH  17  18
ENDBRANCH   1  17
TORSDOF 8
ENDMDL
