MODEL 1
REMARK VINA RESULT:    -8.343      0.000      0.000
REMARK INTER + INTRA:         -14.012
REMARK INTER:                 -12.733
REMARK INTRA:                  -1.280
REMARK UNBOUND:                -1.280
REMARK  Name = 
REMARK  13 active torsions:
REMARK  status: ('A' for Active; 'I' for Inactive)
REMARK    1  A    between atoms: C_1  and  C_2
REMARK    2  A    between atoms: C_2  and  C_3
REMARK    3  A    between atoms: C_3  and  C_4
REMARK    4  A    between atoms: C_4  and  C_5
REMARK    5  A    between atoms: C_5  and  O_7
REMARK    6  A    between atoms: O_7  and  C_8
REMARK    7  A    between atoms: C_8  and  C_9
REMARK    8  A    between atoms: C_8  and  C_14
REMARK    9  A    between atoms: C_9  and  C_10
REMARK   10  A    between atoms: C_11  and  C_12
REMARK   11  A    between atoms: C_11  and  C_13
REMARK   12  A    between atoms: C_19  and  O_20
REMARK   13  A    between atoms: C_23  and  O_24
REMARK                            x       y       z     vdW  Elec       q    Type
REMARK                         _______ _______ _______ _____ _____    ______ ____
ROOT
ATOM      1  C   UNL     1      26.247   1.280  52.072  0.00  0.00    +0.000 C 
ATOM      2  C   UNL     1      25.706   0.055  52.119  0.00  0.00    +0.000 C 
ATOM      3  C   UNL     1      26.470  -1.120  52.559  0.00  0.00    +0.000 C 
ATOM      4  O   UNL     1      25.997  -2.246  52.462  0.00  0.00    +0.000 OA
ATOM      5  C   UNL     1      27.851  -0.919  53.013  0.00  0.00    +0.000 A 
ATOM      6  C   UNL     1      28.709  -2.015  53.162  0.00  0.00    +0.000 A 
ATOM      7  C   UNL     1      29.979  -1.850  53.689  0.00  0.00    +0.000 A 
ATOM      8  C   UNL     1      30.409  -0.576  54.072  0.00  0.00    +0.000 A 
ATOM      9  C   UNL     1      29.568   0.529  53.882  0.00  0.00    +0.000 A 
ATOM     10  C   UNL     1      28.298   0.371  53.307  0.00  0.00    +0.000 A 
ATOM     11  C   UNL     1      27.426   1.525  52.965  0.00  0.00    +0.000 C 
ATOM     12  O   UNL     1      27.602   2.642  53.432  0.00  0.00    +0.000 OA
ENDROOT
BRANCH   6  13
ATOM     13  O   UNL     1      28.377  -3.288  52.777  0.00  0.00    +0.000 OA
ATOM     14  H   UNL     1      27.535  -3.460  52.405  0.00  0.00    +0.000 HD
ENDBRANCH   6  13
BRANCH   9  15
ATOM     15  O   UNL     1      30.030   1.760  54.245  0.00  0.00    +0.000 OA
ATOM     16  H   UNL     1      29.520   2.302  54.816  0.00  0.00    +0.000 HD
ENDBRANCH   9  15
BRANCH   1  17
ATOM     17  C   UNL     1      25.667   2.486  51.346  0.00  0.00    +0.000 C 
BRANCH  17  18
ATOM     18  O   UNL     1      24.197   2.530  51.202  0.00  0.00    +0.000 OA
BRANCH  18  19
ATOM     19  C   UNL     1      23.347   3.101  52.088  0.00  0.00    +0.000 C 
ATOM     20  O   UNL     1      23.388   4.264  52.464  0.00  0.00    +0.000 OA
BRANCH  19  21
ATOM     21  C   UNL     1      22.236   2.141  52.514  0.00  0.00    +0.000 C 
BRANCH  21  22
ATOM     22  C   UNL     1      22.178   0.876  51.675  0.00  0.00    +0.000 C 
BRANCH  22  24
ATOM     23  C   UNL     1      22.522  -0.361  53.882  0.00  0.00    +0.000 C 
ATOM     24  C   UNL     1      21.820  -0.332  52.542  0.00  0.00    +0.000 C 
ENDBRANCH  22  24
ENDBRANCH  21  22
ENDBRANCH  19  21
ENDBRANCH  18  19
ENDBRANCH  17  18
BRANCH  17  25
ATOM     25  C   UNL     1      26.430   3.120  50.122  0.00  0.00    +0.000 C 
BRANCH  25  26
ATOM     26  C   UNL     1      26.253   4.436  49.375  0.00  0.00    +0.000 C 
ATOM     27  C   UNL     1      27.026   5.332  48.732  0.00  0.00    +0.000 C 
ATOM     28  C   UNL     1      26.460   6.698  48.376  0.00  0.00    +0.000 C 
ATOM     29  C   UNL     1      28.462   5.175  48.368  0.00  0.00    +0.000 C 
ENDBRANCH  25  26
ENDBRANCH  17  25
ENDBRANCH   1  17
TORSDOF 10
ENDMDL
MODEL 2
REMARK VINA RESULT:    -8.221      1.969      6.271
REMARK INTER + INTRA:         -13.827
REMARK INTER:                 -12.492
REMARK INTRA:                  -1.334
REMARK UNBOUND:                -1.280
REMARK  Name = 
REMARK  13 active torsions:
REMARK  status: ('A' for Active; 'I' for Inactive)
REMARK    1  A    between atoms: C_1  and  C_2
REMARK    2  A    between atoms: C_2  and  C_3
REMARK    3  A    between atoms: C_3  and  C_4
REMARK    4  A    between atoms: C_4  and  C_5
REMARK    5  A    between atoms: C_5  and  O_7
REMARK    6  A    between atoms: O_7  and  C_8
REMARK    7  A    between atoms: C_8  and  C_9
REMARK    8  A    between atoms: C_8  and  C_14
REMARK    9  A    between atoms: C_9  and  C_10
REMARK   10  A    between atoms: C_11  and  C_12
REMARK   11  A    between atoms: C_11  and  C_13
REMARK   12  A    between atoms: C_19  and  O_20
REMARK   13  A    between atoms: C_23  and  O_24
REMARK                            x       y       z     vdW  Elec       q    Type
REMARK                         _______ _______ _______ _____ _____    ______ ____
ROOT
ATOM      1  C   UNL     1      24.383   1.063  53.086  0.00  0.00    +0.000 C 
ATOM      2  C   UNL     1      23.595   2.077  52.703  0.00  0.00    +0.000 C 
ATOM      3  C   UNL     1      22.132   1.957  52.660  0.00  0.00    +0.000 C 
ATOM      4  O   UNL     1      21.444   2.849  52.178  0.00  0.00    +0.000 OA
ATOM      5  C   UNL     1      21.526   0.696  53.106  0.00  0.00    +0.000 A 
ATOM      6  C   UNL     1      20.185   0.419  52.817  0.00  0.00    +0.000 A 
ATOM      7  C   UNL     1      19.575  -0.717  53.322  0.00  0.00    +0.000 A 
ATOM      8  C   UNL     1      20.307  -1.595  54.126  0.00  0.00    +0.000 A 
ATOM      9  C   UNL     1      21.662  -1.343  54.381  0.00  0.00    +0.000 A 
ATOM     10  C   UNL     1      22.294  -0.216  53.832  0.00  0.00    +0.000 A 
ATOM     11  C   UNL     1      23.755   0.023  53.964  0.00  0.00    +0.000 C 
ATOM     12  O   UNL     1      24.442  -0.551  54.798  0.00  0.00    +0.000 OA
ENDROOT
BRANCH   6  13
ATOM     13  O   UNL     1      19.412   1.210  52.008  0.00  0.00    +0.000 OA
ATOM     14  H   UNL     1      19.719   2.055  51.747  0.00  0.00    +0.000 HD
ENDBRANCH   6  13
BRANCH   9  15
ATOM     15  O   UNL     1      22.351  -2.235  55.149  0.00  0.00    +0.000 OA
ATOM     16  H   UNL     1      21.918  -2.995  55.486  0.00  0.00    +0.000 HD
ENDBRANCH   9  15
BRANCH   1  17
ATOM     17  C   UNL     1      25.886   0.968  52.868  0.00  0.00    +0.000 C 
BRANCH  17  18
ATOM     18  O   UNL     1      26.748   1.399  53.989  0.00  0.00    +0.000 OA
BRANCH  18  19
ATOM     19  C   UNL     1      28.102   1.367  53.983  0.00  0.00    +0.000 C 
ATOM     20  O   UNL     1      28.834   2.306  53.703  0.00  0.00    +0.000 OA
BRANCH  19  21
ATOM     21  C   UNL     1      28.644   0.023  54.470  0.00  0.00    +0.000 C 
BRANCH  21  22
ATOM     22  C   UNL     1      29.509  -0.686  53.441  0.00  0.00    +0.000 C 
BRANCH  22  24
ATOM     23  C   UNL     1      27.589  -2.221  52.750  0.00  0.00    +0.000 C 
ATOM     24  C   UNL     1      29.023  -2.119  53.222  0.00  0.00    +0.000 C 
ENDBRANCH  22  24
ENDBRANCH  21  22
ENDBRANCH  19  21
ENDBRANCH  18  19
ENDBRANCH  17  18
BRANCH  17  25
ATOM     25  C   UNL     1      26.507   1.281  51.453  0.00  0.00    +0.000 C 
BRANCH  25  26
ATOM     26  C   UNL     1      26.746   2.586  50.706  0.00  0.00    +0.000 C 
ATOM     27  C   UNL     1      26.078   3.387  49.854  0.00  0.00    +0.000 C 
ATOM     28  C   UNL     1      26.827   4.474  49.098  0.00  0.00    +0.000 C 
ATOM     29  C   UNL     1      24.638   3.294  49.483  0.00  0.00    +0.000 C 
ENDBRANCH  25  26
ENDBRANCH  17  25
ENDBRANCH   1  17
TORSDOF 10
ENDMDL
MODEL 3
REMARK VINA RESULT:    -8.044      1.161      4.922
REMARK INTER + INTRA:         -13.556
REMARK INTER:                 -12.476
REMARK INTRA:                  -1.080
REMARK UNBOUND:                -1.280
REMARK  Name = 
REMARK  13 active torsions:
REMARK  status: ('A' for Active; 'I' for Inactive)
REMARK    1  A    between atoms: C_1  and  C_2
REMARK    2  A    between atoms: C_2  and  C_3
REMARK    3  A    between atoms: C_3  and  C_4
REMARK    4  A    between atoms: C_4  and  C_5
REMARK    5  A    between atoms: C_5  and  O_7
REMARK    6  A    between atoms: O_7  and  C_8
REMARK    7  A    between atoms: C_8  and  C_9
REMARK    8  A    between atoms: C_8  and  C_14
REMARK    9  A    between atoms: C_9  and  C_10
REMARK   10  A    between atoms: C_11  and  C_12
REMARK   11  A    between atoms: C_11  and  C_13
REMARK   12  A    between atoms: C_19  and  O_20
REMARK   13  A    between atoms: C_23  and  O_24
REMARK                            x       y       z     vdW  Elec       q    Type
REMARK                         _______ _______ _______ _____ _____    ______ ____
ROOT
ATOM      1  C   UNL     1      25.279   0.739  52.559  0.00  0.00    +0.000 C 
ATOM      2  C   UNL     1      25.283  -0.601  52.549  0.00  0.00    +0.000 C 
ATOM      3  C   UNL     1      26.493  -1.381  52.841  0.00  0.00    +0.000 C 
ATOM      4  O   UNL     1      26.506  -2.597  52.691  0.00  0.00    +0.000 OA
ATOM      5  C   UNL     1      27.714  -0.654  53.209  0.00  0.00    +0.000 A 
ATOM      6  C   UNL     1      28.950  -1.311  53.211  0.00  0.00    +0.000 A 
ATOM      7  C   UNL     1      30.091  -0.665  53.657  0.00  0.00    +0.000 A 
ATOM      8  C   UNL     1      30.008   0.655  54.107  0.00  0.00    +0.000 A 
ATOM      9  C   UNL     1      28.780   1.330  54.065  0.00  0.00    +0.000 A 
ATOM     10  C   UNL     1      27.631   0.692  53.570  0.00  0.00    +0.000 A 
ATOM     11  C   UNL     1      26.340   1.404  53.382  0.00  0.00    +0.000 C 
ATOM     12  O   UNL     1      26.096   2.476  53.921  0.00  0.00    +0.000 OA
ENDROOT
BRANCH   6  13
ATOM     13  O   UNL     1      29.122  -2.591  52.753  0.00  0.00    +0.000 OA
ATOM     14  H   UNL     1      28.386  -3.165  52.680  0.00  0.00    +0.000 HD
ENDBRANCH   6  13
BRANCH   9  15
ATOM     15  O   UNL     1      28.740   2.626  54.488  0.00  0.00    +0.000 OA
ATOM     16  H   UNL     1      28.154   2.876  55.176  0.00  0.00    +0.000 HD
ENDBRANCH   9  15
BRANCH   1  17
ATOM     17  C   UNL     1      24.196   1.633  51.973  0.00  0.00    +0.000 C 
BRANCH  17  18
ATOM     18  O   UNL     1      24.651   2.804  51.194  0.00  0.00    +0.000 OA
BRANCH  18  19
ATOM     19  C   UNL     1      24.221   3.122  49.950  0.00  0.00    +0.000 C 
ATOM     20  O   UNL     1      23.255   2.629  49.384  0.00  0.00    +0.000 OA
BRANCH  19  21
ATOM     21  C   UNL     1      25.032   4.266  49.340  0.00  0.00    +0.000 C 
BRANCH  21  22
ATOM     22  C   UNL     1      26.494   4.255  49.754  0.00  0.00    +0.000 C 
BRANCH  22  24
ATOM     23  C   UNL     1      27.174   6.336  48.440  0.00  0.00    +0.000 C 
ATOM     24  C   UNL     1      27.371   4.851  48.652  0.00  0.00    +0.000 C 
ENDBRANCH  22  24
ENDBRANCH  21  22
ENDBRANCH  19  21
ENDBRANCH  18  19
ENDBRANCH  17  18
BRANCH  17  25
ATOM     25  C   UNL     1      22.865   1.900  52.773  0.00  0.00    +0.000 C 
BRANCH  25  26
ATOM     26  C   UNL     1      21.634   1.040  53.029  0.00  0.00    +0.000 C 
ATOM     27  C   UNL     1      21.326  -0.092  53.692  0.00  0.00    +0.000 C 
ATOM     28  C   UNL     1      19.993  -0.777  53.433  0.00  0.00    +0.000 C 
ATOM     29  C   UNL     1      22.198  -0.836  54.644  0.00  0.00    +0.000 C 
ENDBRANCH  25  26
ENDBRANCH  17  25
ENDBRANCH   1  17
TORSDOF 10
ENDMDL
MODEL 4
REMARK VINA RESULT:    -7.903      2.435      4.624
REMARK INTER + INTRA:         -13.340
REMARK INTER:                 -12.024
REMARK INTRA:                  -1.316
REMARK UNBOUND:                -1.280
REMARK  Name = 
REMARK  13 active torsions:
REMARK  status: ('A' for Active; 'I' for Inactive)
REMARK    1  A    between atoms: C_1  and  C_2
REMARK    2  A    between atoms: C_2  and  C_3
REMARK    3  A    between atoms: C_3  and  C_4
REMARK    4  A    between atoms: C_4  and  C_5
REMARK    5  A    between atoms: C_5  and  O_7
REMARK    6  A    between atoms: O_7  and  C_8
REMARK    7  A    between atoms: C_8  and  C_9
REMARK    8  A    between atoms: C_8  and  C_14
REMARK    9  A    between atoms: C_9  and  C_10
REMARK   10  A    between atoms: C_11  and  C_12
REMARK   11  A    between atoms: C_11  and  C_13
REMARK   12  A    between atoms: C_19  and  O_20
REMARK   13  A    between atoms: C_23  and  O_24
REMARK                            x       y       z     vdW  Elec       q    Type
REMARK                         _______ _______ _______ _____ _____    ______ ____
ROOT
ATOM      1  C   UNL     1      24.773   1.796  52.083  0.00  0.00    +0.000 C 
ATOM      2  C   UNL     1      25.824   1.185  52.648  0.00  0.00    +0.000 C 
ATOM      3  C   UNL     1      25.664   0.118  53.645  0.00  0.00    +0.000 C 
ATOM      4  O   UNL     1      26.634  -0.329  54.245  0.00  0.00    +0.000 OA
ATOM      5  C   UNL     1      24.303  -0.320  53.979  0.00  0.00    +0.000 A 
ATOM      6  C   UNL     1      24.078  -1.110  55.112  0.00  0.00    +0.000 A 
ATOM      7  C   UNL     1      22.816  -1.616  55.379  0.00  0.00    +0.000 A 
ATOM      8  C   UNL     1      21.759  -1.332  54.510  0.00  0.00    +0.000 A 
ATOM      9  C   UNL     1      21.972  -0.504  53.399  0.00  0.00    +0.000 A 
ATOM     10  C   UNL     1      23.240   0.046  53.152  0.00  0.00    +0.000 A 
ATOM     11  C   UNL     1      23.485   1.031  52.066  0.00  0.00    +0.000 C 
ATOM     12  O   UNL     1      22.705   1.193  51.137  0.00  0.00    +0.000 OA
ENDROOT
BRANCH   6  13
ATOM     13  O   UNL     1      25.051  -1.403  56.031  0.00  0.00    +0.000 OA
ATOM     14  H   UNL     1      25.547  -0.713  56.423  0.00  0.00    +0.000 HD
ENDBRANCH   6  13
BRANCH   9  15
ATOM     15  O   UNL     1      20.913  -0.228  52.587  0.00  0.00    +0.000 OA
ATOM     16  H   UNL     1      21.047  -0.106  51.667  0.00  0.00    +0.000 HD
ENDBRANCH   9  15
BRANCH   1  17
ATOM     17  C   UNL     1      24.814   3.101  51.300  0.00  0.00    +0.000 C 
BRANCH  17  18
ATOM     18  O   UNL     1      23.609   3.954  51.367  0.00  0.00    +0.000 OA
BRANCH  18  19
ATOM     19  C   UNL     1      23.548   5.243  50.957  0.00  0.00    +0.000 C 
ATOM     20  O   UNL     1      24.087   6.191  51.511  0.00  0.00    +0.000 OA
BRANCH  19  21
ATOM     21  C   UNL     1      22.793   5.387  49.636  0.00  0.00    +0.000 C 
BRANCH  21  22
ATOM     22  C   UNL     1      21.993   4.151  49.261  0.00  0.00    +0.000 C 
BRANCH  22  24
ATOM     23  C   UNL     1      22.383   2.109  47.778  0.00  0.00    +0.000 C 
ATOM     24  C   UNL     1      22.432   3.617  47.896  0.00  0.00    +0.000 C 
ENDBRANCH  22  24
ENDBRANCH  21  22
ENDBRANCH  19  21
ENDBRANCH  18  19
ENDBRANCH  17  18
BRANCH  17  25
ATOM     25  C   UNL     1      25.546   3.169  49.906  0.00  0.00    +0.000 C 
BRANCH  25  26
ATOM     26  C   UNL     1      26.803   3.895  49.444  0.00  0.00    +0.000 C 
ATOM     27  C   UNL     1      27.124   5.064  48.857  0.00  0.00    +0.000 C 
ATOM     28  C   UNL     1      28.521   5.263  48.289  0.00  0.00    +0.000 C 
ATOM     29  C   UNL     1      26.217   6.221  48.615  0.00  0.00    +0.000 C 
ENDBRANCH  25  26
ENDBRANCH  17  25
ENDBRANCH   1  17
TORSDOF 10
ENDMDL
MODEL 5
REMARK VINA RESULT:    -7.819      1.827      4.157
REMARK INTER + INTRA:         -13.213
REMARK INTER:                 -11.732
REMARK INTRA:                  -1.481
REMARK UNBOUND:                -1.280
REMARK  Name = 
REMARK  13 active torsions:
REMARK  status: ('A' for Active; 'I' for Inactive)
REMARK    1  A    between atoms: C_1  and  C_2
REMARK    2  A    between atoms: C_2  and  C_3
REMARK    3  A    between atoms: C_3  and  C_4
REMARK    4  A    between atoms: C_4  and  C_5
REMARK    5  A    between atoms: C_5  and  O_7
REMARK    6  A    between atoms: O_7  and  C_8
REMARK    7  A    between atoms: C_8  and  C_9
REMARK    8  A    between atoms: C_8  and  C_14
REMARK    9  A    between atoms: C_9  and  C_10
REMARK   10  A    between atoms: C_11  and  C_12
REMARK   11  A    between atoms: C_11  and  C_13
REMARK   12  A    between atoms: C_19  and  O_20
REMARK   13  A    between atoms: C_23  and  O_24
REMARK                            x       y       z     vdW  Elec       q    Type
REMARK                         _______ _______ _______ _____ _____    ______ ____
ROOT
ATOM      1  C   UNL     1      25.427   0.879  52.557  0.00  0.00    +0.000 C 
ATOM      2  C   UNL     1      25.352  -0.459  52.551  0.00  0.00    +0.000 C 
ATOM      3  C   UNL     1      26.511  -1.308  52.860  0.00  0.00    +0.000 C 
ATOM      4  O   UNL     1      26.454  -2.523  52.713  0.00  0.00    +0.000 OA
ATOM      5  C   UNL     1      27.769  -0.652  53.241  0.00  0.00    +0.000 A 
ATOM      6  C   UNL     1      28.963  -1.381  53.260  0.00  0.00    +0.000 A 
ATOM      7  C   UNL     1      30.135  -0.801  53.718  0.00  0.00    +0.000 A 
ATOM      8  C   UNL     1      30.124   0.523  54.163  0.00  0.00    +0.000 A 
ATOM      9  C   UNL     1      28.938   1.269  54.104  0.00  0.00    +0.000 A 
ATOM     10  C   UNL     1      27.760   0.698  53.597  0.00  0.00    +0.000 A 
ATOM     11  C   UNL     1      26.515   1.484  53.391  0.00  0.00    +0.000 C 
ATOM     12  O   UNL     1      26.329   2.570  53.924  0.00  0.00    +0.000 OA
ENDROOT
BRANCH   6  13
ATOM     13  O   UNL     1      29.065  -2.670  52.807  0.00  0.00    +0.000 OA
ATOM     14  H   UNL     1      29.264  -2.836  51.907  0.00  0.00    +0.000 HD
ENDBRANCH   6  13
BRANCH   9  15
ATOM     15  O   UNL     1      28.970   2.566  54.523  0.00  0.00    +0.000 OA
ATOM     16  H   UNL     1      28.333   2.875  55.138  0.00  0.00    +0.000 HD
ENDBRANCH   9  15
BRANCH   1  17
ATOM     17  C   UNL     1      24.405   1.833  51.955  0.00  0.00    +0.000 C 
BRANCH  17  18
ATOM     18  O   UNL     1      24.938   2.989  51.204  0.00  0.00    +0.000 OA
BRANCH  18  19
ATOM     19  C   UNL     1      24.218   3.761  50.355  0.00  0.00    +0.000 C 
ATOM     20  O   UNL     1      24.012   4.959  50.486  0.00  0.00    +0.000 OA
BRANCH  19  21
ATOM     21  C   UNL     1      23.755   2.979  49.126  0.00  0.00    +0.000 C 
BRANCH  21  22
ATOM     22  C   UNL     1      22.290   3.203  48.787  0.00  0.00    +0.000 C 
BRANCH  22  24
ATOM     23  C   UNL     1      21.425   0.850  49.272  0.00  0.00    +0.000 C 
ATOM     24  C   UNL     1      21.663   1.923  48.232  0.00  0.00    +0.000 C 
ENDBRANCH  22  24
ENDBRANCH  21  22
ENDBRANCH  19  21
ENDBRANCH  18  19
ENDBRANCH  17  18
BRANCH  17  25
ATOM     25  C   UNL     1      23.069   2.156  52.724  0.00  0.00    +0.000 C 
BRANCH  25  26
ATOM     26  C   UNL     1      21.757   1.394  52.863  0.00  0.00    +0.000 C 
ATOM     27  C   UNL     1      21.305   0.288  53.484  0.00  0.00    +0.000 C 
ATOM     28  C   UNL     1      19.951  -0.290  53.102  0.00  0.00    +0.000 C 
ATOM     29  C   UNL     1      22.030  -0.526  54.500  0.00  0.00    +0.000 C 
ENDBRANCH  25  26
ENDBRANCH  17  25
ENDBRANCH   1  17
TORSDOF 10
ENDMDL
MODEL 6
REMARK VINA RESULT:    -7.766      2.689      4.582
REMARK INTER + INTRA:         -13.131
REMARK INTER:                 -11.254
REMARK INTRA:                  -1.877
REMARK UNBOUND:                -1.280
REMARK  Name = 
REMARK  13 active torsions:
REMARK  status: ('A' for Active; 'I' for Inactive)
REMARK    1  A    between atoms: C_1  and  C_2
REMARK    2  A    between atoms: C_2  and  C_3
REMARK    3  A    between atoms: C_3  and  C_4
REMARK    4  A    between atoms: C_4  and  C_5
REMARK    5  A    between atoms: C_5  and  O_7
REMARK    6  A    between atoms: O_7  and  C_8
REMARK    7  A    between atoms: C_8  and  C_9
REMARK    8  A    between atoms: C_8  and  C_14
REMARK    9  A    between atoms: C_9  and  C_10
REMARK   10  A    between atoms: C_11  and  C_12
REMARK   11  A    between atoms: C_11  and  C_13
REMARK   12  A    between atoms: C_19  and  O_20
REMARK   13  A    between atoms: C_23  and  O_24
REMARK                            x       y       z     vdW  Elec       q    Type
REMARK                         _______ _______ _______ _____ _____    ______ ____
ROOT
ATOM      1  C   UNL     1      23.528   1.294  52.247  0.00  0.00    +0.000 C 
ATOM      2  C   UNL     1      24.284   1.933  51.343  0.00  0.00    +0.000 C 
ATOM      3  C   UNL     1      25.730   2.117  51.526  0.00  0.00    +0.000 C 
ATOM      4  O   UNL     1      26.374   2.820  50.756  0.00  0.00    +0.000 OA
ATOM      5  C   UNL     1      26.360   1.527  52.713  0.00  0.00    +0.000 A 
ATOM      6  C   UNL     1      27.653   1.910  53.087  0.00  0.00    +0.000 A 
ATOM      7  C   UNL     1      28.296   1.284  54.142  0.00  0.00    +0.000 A 
ATOM      8  C   UNL     1      27.647   0.263  54.841  0.00  0.00    +0.000 A 
ATOM      9  C   UNL     1      26.336  -0.092  54.497  0.00  0.00    +0.000 A 
ATOM     10  C   UNL     1      25.665   0.571  53.457  0.00  0.00    +0.000 A 
ATOM     11  C   UNL     1      24.234   0.322  53.143  0.00  0.00    +0.000 C 
ATOM     12  O   UNL     1      23.637  -0.670  53.538  0.00  0.00    +0.000 OA
ENDROOT
BRANCH   6  13
ATOM     13  O   UNL     1      28.342   2.925  52.477  0.00  0.00    +0.000 OA
ATOM     14  H   UNL     1      29.257   2.830  52.300  0.00  0.00    +0.000 HD
ENDBRANCH   6  13
BRANCH   9  15
ATOM     15  O   UNL     1      25.724  -1.076  55.216  0.00  0.00    +0.000 OA
ATOM     16  H   UNL     1      24.985  -0.872  55.755  0.00  0.00    +0.000 HD
ENDBRANCH   9  15
BRANCH   1  17
ATOM     17  C   UNL     1      22.007   1.324  52.319  0.00  0.00    +0.000 C 
BRANCH  17  18
ATOM     18  O   UNL     1      21.282   0.379  51.443  0.00  0.00    +0.000 OA
BRANCH  18  19
ATOM     19  C   UNL     1      20.071   0.613  50.886  0.00  0.00    +0.000 C 
ATOM     20  O   UNL     1      18.990   0.394  51.417  0.00  0.00    +0.000 OA
BRANCH  19  21
ATOM     21  C   UNL     1      20.190   1.290  49.521  0.00  0.00    +0.000 C 
BRANCH  21  22
ATOM     22  C   UNL     1      21.552   1.102  48.873  0.00  0.00    +0.000 C 
BRANCH  22  24
ATOM     23  C   UNL     1      22.799   3.282  48.411  0.00  0.00    +0.000 C 
ATOM     24  C   UNL     1      21.841   2.235  47.887  0.00  0.00    +0.000 C 
ENDBRANCH  22  24
ENDBRANCH  21  22
ENDBRANCH  19  21
ENDBRANCH  18  19
ENDBRANCH  17  18
BRANCH  17  25
ATOM     25  C   UNL     1      21.247   2.689  52.523  0.00  0.00    +0.000 C 
BRANCH  25  26
ATOM     26  C   UNL     1      21.299   4.012  51.771  0.00  0.00    +0.000 C 
ATOM     27  C   UNL     1      22.112   5.083  51.686  0.00  0.00    +0.000 C 
ATOM     28  C   UNL     1      21.617   6.352  51.010  0.00  0.00    +0.000 C 
ATOM     29  C   UNL     1      23.479   5.215  52.264  0.00  0.00    +0.000 C 
ENDBRANCH  25  26
ENDBRANCH  17  25
ENDBRANCH   1  17
TORSDOF 10
ENDMDL
MODEL 7
REMARK VINA RESULT:    -7.613      2.857      7.225
REMARK INTER + INTRA:         -12.898
REMARK INTER:                 -11.220
REMARK INTRA:                  -1.679
REMARK UNBOUND:                -1.280
REMARK  Name = 
REMARK  13 active torsions:
REMARK  status: ('A' for Active; 'I' for Inactive)
REMARK    1  A    between atoms: C_1  and  C_2
REMARK    2  A    between atoms: C_2  and  C_3
REMARK    3  A    between atoms: C_3  and  C_4
REMARK    4  A    between atoms: C_4  and  C_5
REMARK    5  A    between atoms: C_5  and  O_7
REMARK    6  A    between atoms: O_7  and  C_8
REMARK    7  A    between atoms: C_8  and  C_9
REMARK    8  A    between atoms: C_8  and  C_14
REMARK    9  A    between atoms: C_9  and  C_10
REMARK   10  A    between atoms: C_11  and  C_12
REMARK   11  A    between atoms: C_11  and  C_13
REMARK   12  A    between atoms: C_19  and  O_20
REMARK   13  A    between atoms: C_23  and  O_24
REMARK                            x       y       z     vdW  Elec       q    Type
REMARK                         _______ _______ _______ _____ _____    ______ ____
ROOT
ATOM      1  C   UNL     1      22.784   0.895  52.575  0.00  0.00    +0.000 C 
ATOM      2  C   UNL     1      22.503  -0.041  53.491  0.00  0.00    +0.000 C 
ATOM      3  C   UNL     1      21.173  -0.657  53.597  0.00  0.00    +0.000 C 
ATOM      4  O   UNL     1      20.903  -1.407  54.527  0.00  0.00    +0.000 OA
ATOM      5  C   UNL     1      20.148  -0.263  52.623  0.00  0.00    +0.000 A 
ATOM      6  C   UNL     1      18.805  -0.587  52.847  0.00  0.00    +0.000 A 
ATOM      7  C   UNL     1      17.844  -0.313  51.887  0.00  0.00    +0.000 A 
ATOM      8  C   UNL     1      18.220   0.293  50.686  0.00  0.00    +0.000 A 
ATOM      9  C   UNL     1      19.557   0.658  50.477  0.00  0.00    +0.000 A 
ATOM     10  C   UNL     1      20.525   0.423  51.467  0.00  0.00    +0.000 A 
ATOM     11  C   UNL     1      21.924   0.909  51.348  0.00  0.00    +0.000 C 
ATOM     12  O   UNL     1      22.409   1.259  50.280  0.00  0.00    +0.000 OA
ENDROOT
BRANCH   6  13
ATOM     13  O   UNL     1      18.351  -1.148  54.012  0.00  0.00    +0.000 OA
ATOM     14  H   UNL     1      18.911  -1.707  54.512  0.00  0.00    +0.000 HD
ENDBRANCH   6  13
BRANCH   9  15
ATOM     15  O   UNL     1      19.884   1.270  49.303  0.00  0.00    +0.000 OA
ATOM     16  H   UNL     1      20.777   1.486  49.120  0.00  0.00    +0.000 HD
ENDBRANCH   9  15
BRANCH   1  17
ATOM     17  C   UNL     1      23.999   1.813  52.579  0.00  0.00    +0.000 C 
BRANCH  17  18
ATOM     18  O   UNL     1      25.296   1.196  52.927  0.00  0.00    +0.000 OA
BRANCH  18  19
ATOM     19  C   UNL     1      26.323   1.012  52.064  0.00  0.00    +0.000 C 
ATOM     20  O   UNL     1      26.760  -0.071  51.700  0.00  0.00    +0.000 OA
BRANCH  19  21
ATOM     21  C   UNL     1      26.837   2.335  51.497  0.00  0.00    +0.000 C 
BRANCH  21  22
ATOM     22  C   UNL     1      26.521   2.522  50.022  0.00  0.00    +0.000 C 
BRANCH  22  24
ATOM     23  C   UNL     1      25.289   4.652  49.341  0.00  0.00    +0.000 C 
ATOM     24  C   UNL     1      26.621   3.997  49.631  0.00  0.00    +0.000 C 
ENDBRANCH  22  24
ENDBRANCH  21  22
ENDBRANCH  19  21
ENDBRANCH  18  19
ENDBRANCH  17  18
BRANCH  17  25
ATOM     25  C   UNL     1      23.869   3.303  53.074  0.00  0.00    +0.000 C 
BRANCH  25  26
ATOM     26  C   UNL     1      23.292   4.553  52.421  0.00  0.00    +0.000 C 
ATOM     27  C   UNL     1      22.142   4.933  51.833  0.00  0.00    +0.000 C 
ATOM     28  C   UNL     1      22.097   6.223  51.029  0.00  0.00    +0.000 C 
ATOM     29  C   UNL     1      20.859   4.176  51.807  0.00  0.00    +0.000 C 
ENDBRANCH  25  26
ENDBRANCH  17  25
ENDBRANCH   1  17
TORSDOF 10
ENDMDL
MODEL 8
REMARK VINA RESULT:    -7.602      2.895      7.320
REMARK INTER + INTRA:         -12.882
REMARK INTER:                 -11.666
REMARK INTRA:                  -1.216
REMARK UNBOUND:                -1.280
REMARK  Name = 
REMARK  13 active torsions:
REMARK  status: ('A' for Active; 'I' for Inactive)
REMARK    1  A    between atoms: C_1  and  C_2
REMARK    2  A    between atoms: C_2  and  C_3
REMARK    3  A    between atoms: C_3  and  C_4
REMARK    4  A    between atoms: C_4  and  C_5
REMARK    5  A    between atoms: C_5  and  O_7
REMARK    6  A    between atoms: O_7  and  C_8
REMARK    7  A    between atoms: C_8  and  C_9
REMARK    8  A    between atoms: C_8  and  C_14
REMARK    9  A    between atoms: C_9  and  C_10
REMARK   10  A    between atoms: C_11  and  C_12
REMARK   11  A    between atoms: C_11  and  C_13
REMARK   12  A    between atoms: C_19  and  O_20
REMARK   13  A    between atoms: C_23  and  O_24
REMARK                            x       y       z     vdW  Elec       q    Type
REMARK                         _______ _______ _______ _____ _____    ______ ____
ROOT
ATOM      1  C   UNL     1      22.708   0.857  52.326  0.00  0.00    +0.000 C 
ATOM      2  C   UNL     1      22.465  -0.059  53.273  0.00  0.00    +0.000 C 
ATOM      3  C   UNL     1      21.135  -0.654  53.461  0.00  0.00    +0.000 C 
ATOM      4  O   UNL     1      20.905  -1.384  54.418  0.00  0.00    +0.000 OA
ATOM      5  C   UNL     1      20.064  -0.264  52.536  0.00  0.00    +0.000 A 
ATOM      6  C   UNL     1      18.731  -0.565  52.837  0.00  0.00    +0.000 A 
ATOM      7  C   UNL     1      17.724  -0.296  51.924  0.00  0.00    +0.000 A 
ATOM      8  C   UNL     1      18.043   0.283  50.693  0.00  0.00    +0.000 A 
ATOM      9  C   UNL     1      19.371   0.625  50.407  0.00  0.00    +0.000 A 
ATOM     10  C   UNL     1      20.387   0.395  51.348  0.00  0.00    +0.000 A 
ATOM     11  C   UNL     1      21.785   0.860  51.146  0.00  0.00    +0.000 C 
ATOM     12  O   UNL     1      22.217   1.184  50.048  0.00  0.00    +0.000 OA
ENDROOT
BRANCH   6  13
ATOM     13  O   UNL     1      18.332  -1.099  54.034  0.00  0.00    +0.000 OA
ATOM     14  H   UNL     1      17.772  -0.608  54.602  0.00  0.00    +0.000 HD
ENDBRANCH   6  13
BRANCH   9  15
ATOM     15  O   UNL     1      19.643   1.211  49.206  0.00  0.00    +0.000 OA
ATOM     16  H   UNL     1      19.817   0.679  48.454  0.00  0.00    +0.000 HD
ENDBRANCH   9  15
BRANCH   1  17
ATOM     17  C   UNL     1      23.933   1.757  52.248  0.00  0.00    +0.000 C 
BRANCH  17  18
ATOM     18  O   UNL     1      25.248   1.108  52.435  0.00  0.00    +0.000 OA
BRANCH  18  19
ATOM     19  C   UNL     1      26.434   1.633  52.047  0.00  0.00    +0.000 C 
ATOM     20  O   UNL     1      26.657   2.165  50.969  0.00  0.00    +0.000 OA
BRANCH  19  21
ATOM     21  C   UNL     1      27.476   1.579  53.165  0.00  0.00    +0.000 C 
BRANCH  21  22
ATOM     22  C   UNL     1      27.640   0.195  53.770  0.00  0.00    +0.000 C 
BRANCH  22  24
ATOM     23  C   UNL     1      29.853  -1.068  53.610  0.00  0.00    +0.000 C 
ATOM     24  C   UNL     1      29.056   0.008  54.315  0.00  0.00    +0.000 C 
ENDBRANCH  22  24
ENDBRANCH  21  22
ENDBRANCH  19  21
ENDBRANCH  18  19
ENDBRANCH  17  18
BRANCH  17  25
ATOM     25  C   UNL     1      23.880   3.225  52.819  0.00  0.00    +0.000 C 
BRANCH  25  26
ATOM     26  C   UNL     1      23.246   4.506  52.292  0.00  0.00    +0.000 C 
ATOM     27  C   UNL     1      22.053   4.907  51.812  0.00  0.00    +0.000 C 
ATOM     28  C   UNL     1      21.938   6.247  51.103  0.00  0.00    +0.000 C 
ATOM     29  C   UNL     1      20.779   4.134  51.825  0.00  0.00    +0.000 C 
ENDBRANCH  25  26
ENDBRANCH  17  25
ENDBRANCH   1  17
TORSDOF 10
ENDMDL
MODEL 9
REMARK VINA RESULT:    -7.560      2.942      6.831
REMARK INTER + INTRA:         -12.817
REMARK INTER:                 -11.013
REMARK INTRA:                  -1.804
REMARK UNBOUND:                -1.280
REMARK  Name = 
REMARK  13 active torsions:
REMARK  status: ('A' for Active; 'I' for Inactive)
REMARK    1  A    between atoms: C_1  and  C_2
REMARK    2  A    between atoms: C_2  and  C_3
REMARK    3  A    between atoms: C_3  and  C_4
REMARK    4  A    between atoms: C_4  and  C_5
REMARK    5  A    between atoms: C_5  and  O_7
REMARK    6  A    between atoms: O_7  and  C_8
REMARK    7  A    between atoms: C_8  and  C_9
REMARK    8  A    between atoms: C_8  and  C_14
REMARK    9  A    between atoms: C_9  and  C_10
REMARK   10  A    between atoms: C_11  and  C_12
REMARK   11  A    between atoms: C_11  and  C_13
REMARK   12  A    between atoms: C_19  and  O_20
REMARK   13  A    between atoms: C_23  and  O_24
REMARK                            x       y       z     vdW  Elec       q    Type
REMARK                         _______ _______ _______ _____ _____    ______ ____
ROOT
ATOM      1  C   UNL     1      24.284   3.494  49.930  0.00  0.00    +0.000 C 
ATOM      2  C   UNL     1      23.323   4.096  49.216  0.00  0.00    +0.000 C 
ATOM      3  C   UNL     1      23.558   5.352  48.491  0.00  0.00    +0.000 C 
ATOM      4  O   UNL     1      22.631   5.952  47.961  0.00  0.00    +0.000 OA
ATOM      5  C   UNL     1      24.911   5.921  48.513  0.00  0.00    +0.000 A 
ATOM      6  C   UNL     1      25.125   7.240  48.096  0.00  0.00    +0.000 A 
ATOM      7  C   UNL     1      26.409   7.754  48.012  0.00  0.00    +0.000 A 
ATOM      8  C   UNL     1      27.499   6.948  48.350  0.00  0.00    +0.000 A 
ATOM      9  C   UNL     1      27.285   5.641  48.809  0.00  0.00    +0.000 A 
ATOM     10  C   UNL     1      25.982   5.134  48.938  0.00  0.00    +0.000 A 
ATOM     11  C   UNL     1      25.698   3.806  49.544  0.00  0.00    +0.000 C 
ATOM     12  O   UNL     1      26.560   2.948  49.680  0.00  0.00    +0.000 OA
ENDROOT
BRANCH   6  13
ATOM     13  O   UNL     1      24.109   8.104  47.783  0.00  0.00    +0.000 OA
ATOM     14  H   UNL     1      23.795   8.710  48.425  0.00  0.00    +0.000 HD
ENDBRANCH   6  13
BRANCH   9  15
ATOM     15  O   UNL     1      28.371   4.892  49.153  0.00  0.00    +0.000 OA
ATOM     16  H   UNL     1      29.024   4.691  48.511  0.00  0.00    +0.000 HD
ENDBRANCH   9  15
BRANCH   1  17
ATOM     17  C   UNL     1      24.075   2.392  50.959  0.00  0.00    +0.000 C 
BRANCH  17  18
ATOM     18  O   UNL     1      22.908   1.507  50.757  0.00  0.00    +0.000 OA
BRANCH  18  19
ATOM     19  C   UNL     1      21.843   1.429  51.588  0.00  0.00    +0.000 C 
ATOM     20  O   UNL     1      21.011   2.309  51.763  0.00  0.00    +0.000 OA
BRANCH  19  21
ATOM     21  C   UNL     1      21.723   0.049  52.235  0.00  0.00    +0.000 C 
BRANCH  21  22
ATOM     22  C   UNL     1      21.969   0.063  53.735  0.00  0.00    +0.000 C 
BRANCH  22  24
ATOM     23  C   UNL     1      23.057  -1.434  55.495  0.00  0.00    +0.000 C 
ATOM     24  C   UNL     1      22.185  -1.357  54.260  0.00  0.00    +0.000 C 
ENDBRANCH  22  24
ENDBRANCH  21  22
ENDBRANCH  19  21
ENDBRANCH  18  19
ENDBRANCH  17  18
BRANCH  17  25
ATOM     25  C   UNL     1      24.403   2.649  52.479  0.00  0.00    +0.000 C 
BRANCH  25  26
ATOM     26  C   UNL     1      25.309   1.928  53.467  0.00  0.00    +0.000 C 
ATOM     27  C   UNL     1      25.750   0.674  53.688  0.00  0.00    +0.000 C 
ATOM     28  C   UNL     1      26.429   0.336  55.006  0.00  0.00    +0.000 C 
ATOM     29  C   UNL     1      25.586  -0.502  52.790  0.00  0.00    +0.000 C 
ENDBRANCH  25  26
ENDBRANCH  17  25
ENDBRANCH   1  17
TORSDOF 10
ENDMDL
