MODEL 1
REMARK VINA RESULT:    -9.910      0.000      0.000
REMARK INTER + INTRA:         -12.347
REMARK INTER:                 -11.648
REMARK INTRA:                  -0.700
REMARK UNBOUND:                -0.700
REMARK  Name = 
REMARK  5 active torsions:
REMARK  status: ('A' for Active; 'I' for Inactive)
REMARK    1  A    between atoms: C_1  and  N_2
REMARK    2  A    between atoms: C_5  and  C_6
REMARK    3  A    between atoms: C_7  and  O_8
REMARK    4  A    between atoms: C_10  and  O_11
REMARK    5  A    between atoms: C_16  and  C_17
REMARK                            x       y       z     vdW  Elec       q    Type
REMARK                         _______ _______ _______ _____ _____    ______ ____
ROOT
ATOM      1  C   UNL     1      24.467  -0.215  53.656  0.00  0.00    +0.000 A 
ATOM      2  C   UNL     1      24.395  -0.921  54.868  0.00  0.00    +0.000 A 
ATOM      3  C   UNL     1      23.194  -1.458  55.334  0.00  0.00    +0.000 A 
ATOM      4  C   UNL     1      22.015  -1.242  54.621  0.00  0.00    +0.000 A 
ATOM      5  C   UNL     1      22.032  -0.480  53.447  0.00  0.00    +0.000 A 
ATOM      6  C   UNL     1      20.792  -0.156  52.700  0.00  0.00    +0.000 A 
ATOM      7  O   UNL     1      19.669  -0.552  52.998  0.00  0.00    +0.000 OA
ATOM      8  C   UNL     1      20.939   0.716  51.527  0.00  0.00    +0.000 A 
ATOM      9  C   UNL     1      22.161   1.125  51.176  0.00  0.00    +0.000 A 
ATOM     10  O   UNL     1      23.329   0.790  51.825  0.00  0.00    +0.000 OA
ATOM     11  C   UNL     1      23.254   0.022  52.967  0.00  0.00    +0.000 A 
ENDROOT
BRANCH   1  16
ATOM     12  C   UNL     1      28.900   0.588  55.054  0.00  0.00    +0.000 C 
ATOM     13  N   UNL     1      28.632   1.010  53.681  0.00  0.00    +0.000 N 
ATOM     14  C   UNL     1      27.616   2.060  53.589  0.00  0.00    +0.000 C 
ATOM     15  C   UNL     1      26.209   1.573  53.934  0.00  0.00    +0.000 C 
ATOM     16  C   UNL     1      25.790   0.340  53.123  0.00  0.00    +0.000 C 
ATOM     17  C   UNL     1      26.928  -0.681  52.998  0.00  0.00    +0.000 C 
ATOM     18  O   UNL     1      26.732  -1.891  52.848  0.00  0.00    +0.000 OA
ATOM     19  C   UNL     1      28.323  -0.112  52.788  0.00  0.00    +0.000 C 
ATOM     20  H   UNL     1      29.508   1.420  53.356  0.00  0.00    +0.000 HD
ENDBRANCH   1  16
BRANCH   9  21
ATOM     21  C   UNL     1      22.345   1.999  50.010  0.00  0.00    +0.000 A 
ATOM     22  C   UNL     1      21.971   1.514  48.746  0.00  0.00    +0.000 A 
ATOM     23  C   UNL     1      22.121   2.309  47.608  0.00  0.00    +0.000 A 
ATOM     24  C   UNL     1      22.643   3.597  47.720  0.00  0.00    +0.000 A 
ATOM     25  C   UNL     1      23.012   4.093  48.971  0.00  0.00    +0.000 A 
ATOM     26  C   UNL     1      22.866   3.298  50.111  0.00  0.00    +0.000 A 
ATOM     27 CL   UNL     1      23.345   3.972  51.631  0.00  0.00    +0.000 Cl
ENDBRANCH   9  21
BRANCH   2  28
ATOM     28  O   UNL     1      25.515  -1.045  55.637  0.00  0.00    +0.000 OA
ATOM     29  H   UNL     1      26.354  -1.135  55.231  0.00  0.00    +0.000 HD
ENDBRANCH   2  28
BRANCH   4  30
ATOM     30  O   UNL     1      20.850  -1.763  55.104  0.00  0.00    +0.000 OA
ATOM     31  H   UNL     1      20.473  -2.519  54.701  0.00  0.00    +0.000 HD
ENDBRANCH   4  30
TORSDOF 4
ENDMDL
MODEL 2
REMARK VINA RESULT:    -9.560      2.536      6.093
REMARK INTER + INTRA:         -11.936
REMARK INTER:                 -11.251
REMARK INTRA:                  -0.685
REMARK UNBOUND:                -0.700
REMARK  Name = 
REMARK  5 active torsions:
REMARK  status: ('A' for Active; 'I' for Inactive)
REMARK    1  A    between atoms: C_1  and  N_2
REMARK    2  A    between atoms: C_5  and  C_6
REMARK    3  A    between atoms: C_7  and  O_8
REMARK    4  A    between atoms: C_10  and  O_11
REMARK    5  A    between atoms: C_16  and  C_17
REMARK                            x       y       z     vdW  Elec       q    Type
REMARK                         _______ _______ _______ _____ _____    ______ ____
ROOT
ATOM      1  C   UNL     1      22.791   2.061  52.344  0.00  0.00    +0.000 A 
ATOM      2  C   UNL     1      21.402   2.157  52.165  0.00  0.00    +0.000 A 
ATOM      3  C   UNL     1      20.515   1.313  52.833  0.00  0.00    +0.000 A 
ATOM      4  C   UNL     1      21.009   0.301  53.656  0.00  0.00    +0.000 A 
ATOM      5  C   UNL     1      22.389   0.124  53.804  0.00  0.00    +0.000 A 
ATOM      6  C   UNL     1      22.960  -0.988  54.602  0.00  0.00    +0.000 A 
ATOM      7  O   UNL     1      22.302  -1.809  55.235  0.00  0.00    +0.000 OA
ATOM      8  C   UNL     1      24.424  -1.106  54.614  0.00  0.00    +0.000 A 
ATOM      9  C   UNL     1      25.151  -0.198  53.955  0.00  0.00    +0.000 A 
ATOM     10  O   UNL     1      24.640   0.871  53.254  0.00  0.00    +0.000 OA
ATOM     11  C   UNL     1      23.271   1.006  53.156  0.00  0.00    +0.000 A 
ENDROOT
BRANCH   1  16
ATOM     12  C   UNL     1      22.878   5.288  48.906  0.00  0.00    +0.000 C 
ATOM     13  N   UNL     1      24.180   5.057  49.525  0.00  0.00    +0.000 N 
ATOM     14  C   UNL     1      24.665   3.686  49.354  0.00  0.00    +0.000 C 
ATOM     15  C   UNL     1      23.868   2.657  50.155  0.00  0.00    +0.000 C 
ATOM     16  C   UNL     1      23.764   3.013  51.644  0.00  0.00    +0.000 C 
ATOM     17  C   UNL     1      23.493   4.507  51.862  0.00  0.00    +0.000 C 
ATOM     18  O   UNL     1      22.904   4.946  52.855  0.00  0.00    +0.000 OA
ATOM     19  C   UNL     1      24.224   5.466  50.934  0.00  0.00    +0.000 C 
ATOM     20  H   UNL     1      24.825   5.662  49.018  0.00  0.00    +0.000 HD
ENDBRANCH   1  16
BRANCH   9  21
ATOM     21  C   UNL     1      26.616  -0.287  53.943  0.00  0.00    +0.000 A 
ATOM     22  C   UNL     1      27.342   0.525  54.830  0.00  0.00    +0.000 A 
ATOM     23  C   UNL     1      28.737   0.474  54.861  0.00  0.00    +0.000 A 
ATOM     24  C   UNL     1      29.421  -0.392  54.008  0.00  0.00    +0.000 A 
ATOM     25  C   UNL     1      28.712  -1.208  53.128  0.00  0.00    +0.000 A 
ATOM     26  C   UNL     1      27.316  -1.156  53.092  0.00  0.00    +0.000 A 
ATOM     27 CL   UNL     1      26.497  -2.194  51.975  0.00  0.00    +0.000 Cl
ENDBRANCH   9  21
BRANCH   2  28
ATOM     28  O   UNL     1      20.904   3.066  51.277  0.00  0.00    +0.000 OA
ATOM     29  H   UNL     1      19.982   3.111  51.120  0.00  0.00    +0.000 HD
ENDBRANCH   2  28
BRANCH   4  30
ATOM     30  O   UNL     1      20.123  -0.524  54.287  0.00  0.00    +0.000 OA
ATOM     31  H   UNL     1      20.220  -0.704  55.201  0.00  0.00    +0.000 HD
ENDBRANCH   4  30
TORSDOF 4
ENDMDL
MODEL 3
REMARK VINA RESULT:    -9.146      2.406      6.212
REMARK INTER + INTRA:         -11.449
REMARK INTER:                 -10.867
REMARK INTRA:                  -0.582
REMARK UNBOUND:                -0.700
REMARK  Name = 
REMARK  5 active torsions:
REMARK  status: ('A' for Active; 'I' for Inactive)
REMARK    1  A    between atoms: C_1  and  N_2
REMARK    2  A    between atoms: C_5  and  C_6
REMARK    3  A    between atoms: C_7  and  O_8
REMARK    4  A    between atoms: C_10  and  O_11
REMARK    5  A    between atoms: C_16  and  C_17
REMARK                            x       y       z     vdW  Elec       q    Type
REMARK                         _______ _______ _______ _____ _____    ______ ____
ROOT
ATOM      1  C   UNL     1      21.042   1.063  50.905  0.00  0.00    +0.000 A 
ATOM      2  C   UNL     1      19.673   0.803  50.734  0.00  0.00    +0.000 A 
ATOM      3  C   UNL     1      18.941   0.078  51.675  0.00  0.00    +0.000 A 
ATOM      4  C   UNL     1      19.585  -0.464  52.787  0.00  0.00    +0.000 A 
ATOM      5  C   UNL     1      20.963  -0.291  52.956  0.00  0.00    +0.000 A 
ATOM      6  C   UNL     1      21.705  -0.915  54.078  0.00  0.00    +0.000 A 
ATOM      7  O   UNL     1      21.193  -1.585  54.971  0.00  0.00    +0.000 OA
ATOM      8  C   UNL     1      23.160  -0.717  54.097  0.00  0.00    +0.000 A 
ATOM      9  C   UNL     1      23.722   0.036  53.147  0.00  0.00    +0.000 A 
ATOM     10  O   UNL     1      23.043   0.668  52.129  0.00  0.00    +0.000 OA
ATOM     11  C   UNL     1      21.682   0.475  52.022  0.00  0.00    +0.000 A 
ENDROOT
BRANCH   1  16
ATOM     12  C   UNL     1      20.426   3.503  46.916  0.00  0.00    +0.000 C 
ATOM     13  N   UNL     1      21.813   3.469  47.373  0.00  0.00    +0.000 N 
ATOM     14  C   UNL     1      22.374   2.117  47.411  0.00  0.00    +0.000 C 
ATOM     15  C   UNL     1      21.771   1.240  48.508  0.00  0.00    +0.000 C 
ATOM     16  C   UNL     1      21.838   1.893  49.895  0.00  0.00    +0.000 C 
ATOM     17  C   UNL     1      21.484   3.385  49.847  0.00  0.00    +0.000 C 
ATOM     18  O   UNL     1      21.000   3.993  50.807  0.00  0.00    +0.000 OA
ATOM     19  C   UNL     1      22.011   4.164  48.651  0.00  0.00    +0.000 C 
ATOM     20  H   UNL     1      22.337   3.985  46.667  0.00  0.00    +0.000 HD
ENDBRANCH   1  16
BRANCH   9  21
ATOM     21  C   UNL     1      25.174   0.253  53.134  0.00  0.00    +0.000 A 
ATOM     22  C   UNL     1      26.013  -0.855  52.932  0.00  0.00    +0.000 A 
ATOM     23  C   UNL     1      27.401  -0.700  52.906  0.00  0.00    +0.000 A 
ATOM     24  C   UNL     1      27.964   0.563  53.079  0.00  0.00    +0.000 A 
ATOM     25  C   UNL     1      27.142   1.673  53.274  0.00  0.00    +0.000 A 
ATOM     26  C   UNL     1      25.753   1.520  53.304  0.00  0.00    +0.000 A 
ATOM     27 CL   UNL     1      24.790   2.936  53.552  0.00  0.00    +0.000 Cl
ENDBRANCH   9  21
BRANCH   2  28
ATOM     28  O   UNL     1      19.049   1.226  49.597  0.00  0.00    +0.000 OA
ATOM     29  H   UNL     1      19.372   1.975  49.137  0.00  0.00    +0.000 HD
ENDBRANCH   2  28
BRANCH   4  30
ATOM     30  O   UNL     1      18.852  -1.184  53.685  0.00  0.00    +0.000 OA
ATOM     31  H   UNL     1      18.894  -0.976  54.598  0.00  0.00    +0.000 HD
ENDBRANCH   4  30
TORSDOF 4
ENDMDL
MODEL 4
REMARK VINA RESULT:    -8.647      3.024      5.803
REMARK INTER + INTRA:         -10.863
REMARK INTER:                 -10.433
REMARK INTRA:                  -0.431
REMARK UNBOUND:                -0.700
REMARK  Name = 
REMARK  5 active torsions:
REMARK  status: ('A' for Active; 'I' for Inactive)
REMARK    1  A    between atoms: C_1  and  N_2
REMARK    2  A    between atoms: C_5  and  C_6
REMARK    3  A    between atoms: C_7  and  O_8
REMARK    4  A    between atoms: C_10  and  O_11
REMARK    5  A    between atoms: C_16  and  C_17
REMARK                            x       y       z     vdW  Elec       q    Type
REMARK                         _______ _______ _______ _____ _____    ______ ____
ROOT
ATOM      1  C   UNL     1      22.819   0.952  52.120  0.00  0.00    +0.000 A 
ATOM      2  C   UNL     1      22.516  -0.204  52.857  0.00  0.00    +0.000 A 
ATOM      3  C   UNL     1      23.476  -0.849  53.638  0.00  0.00    +0.000 A 
ATOM      4  C   UNL     1      24.791  -0.383  53.645  0.00  0.00    +0.000 A 
ATOM      5  C   UNL     1      25.150   0.722  52.865  0.00  0.00    +0.000 A 
ATOM      6  C   UNL     1      26.550   1.204  52.778  0.00  0.00    +0.000 A 
ATOM      7  O   UNL     1      27.497   0.728  53.400  0.00  0.00    +0.000 OA
ATOM      8  C   UNL     1      26.806   2.325  51.864  0.00  0.00    +0.000 A 
ATOM      9  C   UNL     1      25.778   2.870  51.208  0.00  0.00    +0.000 A 
ATOM     10  O   UNL     1      24.464   2.471  51.317  0.00  0.00    +0.000 OA
ATOM     11  C   UNL     1      24.165   1.387  52.114  0.00  0.00    +0.000 A 
ENDROOT
BRANCH   1  16
ATOM     12  C   UNL     1      18.440   0.351  50.472  0.00  0.00    +0.000 C 
ATOM     13  N   UNL     1      19.045   1.621  50.079  0.00  0.00    +0.000 N 
ATOM     14  C   UNL     1      20.244   1.457  49.254  0.00  0.00    +0.000 C 
ATOM     15  C   UNL     1      21.436   0.889  50.024  0.00  0.00    +0.000 C 
ATOM     16  C   UNL     1      21.757   1.685  51.296  0.00  0.00    +0.000 C 
ATOM     17  C   UNL     1      20.489   2.082  52.063  0.00  0.00    +0.000 C 
ATOM     18  O   UNL     1      20.472   2.268  53.284  0.00  0.00    +0.000 OA
ATOM     19  C   UNL     1      19.299   2.510  51.218  0.00  0.00    +0.000 C 
ATOM     20  H   UNL     1      18.346   2.076  49.493  0.00  0.00    +0.000 HD
ENDBRANCH   1  16
BRANCH   9  21
ATOM     21  C   UNL     1      25.997   3.990  50.285  0.00  0.00    +0.000 A 
ATOM     22  C   UNL     1      27.119   3.952  49.442  0.00  0.00    +0.000 A 
ATOM     23  C   UNL     1      27.369   4.991  48.543  0.00  0.00    +0.000 A 
ATOM     24  C   UNL     1      26.498   6.078  48.475  0.00  0.00    +0.000 A 
ATOM     25  C   UNL     1      25.376   6.126  49.302  0.00  0.00    +0.000 A 
ATOM     26  C   UNL     1      25.126   5.088  50.206  0.00  0.00    +0.000 A 
ATOM     27 CL   UNL     1      23.719   5.210  51.205  0.00  0.00    +0.000 Cl
ENDBRANCH   9  21
BRANCH   2  28
ATOM     28  O   UNL     1      21.265  -0.742  52.773  0.00  0.00    +0.000 OA
ATOM     29  H   UNL     1      20.671  -0.661  53.493  0.00  0.00    +0.000 HD
ENDBRANCH   2  28
BRANCH   4  30
ATOM     30  O   UNL     1      25.717  -1.040  54.402  0.00  0.00    +0.000 OA
ATOM     31  H   UNL     1      26.145  -0.596  55.107  0.00  0.00    +0.000 HD
ENDBRANCH   4  30
TORSDOF 4
ENDMDL
MODEL 5
REMARK VINA RESULT:    -8.583      2.224      5.427
REMARK INTER + INTRA:         -10.788
REMARK INTER:                 -10.186
REMARK INTRA:                  -0.602
REMARK UNBOUND:                -0.700
REMARK  Name = 
REMARK  5 active torsions:
REMARK  status: ('A' for Active; 'I' for Inactive)
REMARK    1  A    between atoms: C_1  and  N_2
REMARK    2  A    between atoms: C_5  and  C_6
REMARK    3  A    between atoms: C_7  and  O_8
REMARK    4  A    between atoms: C_10  and  O_11
REMARK    5  A    between atoms: C_16  and  C_17
REMARK                            x       y       z     vdW  Elec       q    Type
REMARK                         _______ _______ _______ _____ _____    ______ ____
ROOT
ATOM      1  C   UNL     1      20.453   1.391  51.238  0.00  0.00    +0.000 A 
ATOM      2  C   UNL     1      19.098   1.028  51.173  0.00  0.00    +0.000 A 
ATOM      3  C   UNL     1      18.539   0.116  52.068  0.00  0.00    +0.000 A 
ATOM      4  C   UNL     1      19.348  -0.508  53.018  0.00  0.00    +0.000 A 
ATOM      5  C   UNL     1      20.719  -0.229  53.067  0.00  0.00    +0.000 A 
ATOM      6  C   UNL     1      21.632  -0.927  54.005  0.00  0.00    +0.000 A 
ATOM      7  O   UNL     1      21.282  -1.758  54.839  0.00  0.00    +0.000 OA
ATOM      8  C   UNL     1      23.060  -0.597  53.902  0.00  0.00    +0.000 A 
ATOM      9  C   UNL     1      23.447   0.328  53.019  0.00  0.00    +0.000 A 
ATOM     10  O   UNL     1      22.607   1.025  52.179  0.00  0.00    +0.000 OA
ATOM     11  C   UNL     1      21.263   0.721  52.185  0.00  0.00    +0.000 A 
ENDROOT
BRANCH   1  16
ATOM     12  C   UNL     1      24.651   2.999  49.810  0.00  0.00    +0.000 C 
ATOM     13  N   UNL     1      23.520   3.690  49.197  0.00  0.00    +0.000 N 
ATOM     14  C   UNL     1      22.678   4.391  50.168  0.00  0.00    +0.000 C 
ATOM     15  C   UNL     1      21.881   3.450  51.071  0.00  0.00    +0.000 C 
ATOM     16  C   UNL     1      21.059   2.423  50.283  0.00  0.00    +0.000 C 
ATOM     17  C   UNL     1      21.844   1.841  49.100  0.00  0.00    +0.000 C 
ATOM     18  O   UNL     1      21.631   0.716  48.639  0.00  0.00    +0.000 OA
ATOM     19  C   UNL     1      22.720   2.818  48.329  0.00  0.00    +0.000 C 
ATOM     20  H   UNL     1      23.938   4.404  48.601  0.00  0.00    +0.000 HD
ENDBRANCH   1  16
BRANCH   9  21
ATOM     21  C   UNL     1      24.866   0.681  52.888  0.00  0.00    +0.000 A 
ATOM     22  C   UNL     1      25.776  -0.330  52.540  0.00  0.00    +0.000 A 
ATOM     23  C   UNL     1      27.136  -0.044  52.399  0.00  0.00    +0.000 A 
ATOM     24  C   UNL     1      27.599   1.256  52.601  0.00  0.00    +0.000 A 
ATOM     25  C   UNL     1      26.705   2.270  52.940  0.00  0.00    +0.000 A 
ATOM     26  C   UNL     1      25.344   1.985  53.086  0.00  0.00    +0.000 A 
ATOM     27 CL   UNL     1      24.287   3.288  53.512  0.00  0.00    +0.000 Cl
ENDBRANCH   9  21
BRANCH   2  28
ATOM     28  O   UNL     1      18.316   1.541  50.180  0.00  0.00    +0.000 OA
ATOM     29  H   UNL     1      17.905   0.966  49.564  0.00  0.00    +0.000 HD
ENDBRANCH   2  28
BRANCH   4  30
ATOM     30  O   UNL     1      18.784  -1.410  53.873  0.00  0.00    +0.000 OA
ATOM     31  H   UNL     1      17.852  -1.459  53.952  0.00  0.00    +0.000 HD
ENDBRANCH   4  30
TORSDOF 4
ENDMDL
MODEL 6
REMARK VINA RESULT:    -8.571      1.902      2.435
REMARK INTER + INTRA:         -10.773
REMARK INTER:                 -10.832
REMARK INTRA:                   0.059
REMARK UNBOUND:                -0.700
REMARK  Name = 
REMARK  5 active torsions:
REMARK  status: ('A' for Active; 'I' for Inactive)
REMARK    1  A    between atoms: C_1  and  N_2
REMARK    2  A    between atoms: C_5  and  C_6
REMARK    3  A    between atoms: C_7  and  O_8
REMARK    4  A    between atoms: C_10  and  O_11
REMARK    5  A    between atoms: C_16  and  C_17
REMARK                            x       y       z     vdW  Elec       q    Type
REMARK                         _______ _______ _______ _____ _____    ______ ____
ROOT
ATOM      1  C   UNL     1      23.964  -0.445  53.961  0.00  0.00    +0.000 A 
ATOM      2  C   UNL     1      23.173  -1.203  54.840  0.00  0.00    +0.000 A 
ATOM      3  C   UNL     1      21.787  -1.060  54.889  0.00  0.00    +0.000 A 
ATOM      4  C   UNL     1      21.160  -0.098  54.097  0.00  0.00    +0.000 A 
ATOM      5  C   UNL     1      21.919   0.729  53.262  0.00  0.00    +0.000 A 
ATOM      6  C   UNL     1      21.308   1.819  52.463  0.00  0.00    +0.000 A 
ATOM      7  O   UNL     1      20.105   2.065  52.418  0.00  0.00    +0.000 OA
ATOM      8  C   UNL     1      22.226   2.663  51.688  0.00  0.00    +0.000 A 
ATOM      9  C   UNL     1      23.532   2.383  51.707  0.00  0.00    +0.000 A 
ATOM     10  O   UNL     1      24.112   1.343  52.398  0.00  0.00    +0.000 OA
ATOM     11  C   UNL     1      23.312   0.549  53.192  0.00  0.00    +0.000 A 
ENDROOT
BRANCH   1  16
ATOM     12  C   UNL     1      27.882   2.024  53.069  0.00  0.00    +0.000 C 
ATOM     13  N   UNL     1      28.128   0.608  53.330  0.00  0.00    +0.000 N 
ATOM     14  C   UNL     1      27.495  -0.277  52.350  0.00  0.00    +0.000 C 
ATOM     15  C   UNL     1      25.971  -0.308  52.458  0.00  0.00    +0.000 C 
ATOM     16  C   UNL     1      25.481  -0.629  53.876  0.00  0.00    +0.000 C 
ATOM     17  C   UNL     1      26.294   0.108  54.948  0.00  0.00    +0.000 C 
ATOM     18  O   UNL     1      25.832   0.410  56.053  0.00  0.00    +0.000 OA
ATOM     19  C   UNL     1      27.792   0.213  54.702  0.00  0.00    +0.000 C 
ATOM     20  H   UNL     1      29.136   0.492  53.223  0.00  0.00    +0.000 HD
ENDBRANCH   1  16
BRANCH   9  21
ATOM     21  C   UNL     1      24.478   3.207  50.945  0.00  0.00    +0.000 A 
ATOM     22  C   UNL     1      25.522   2.565  50.258  0.00  0.00    +0.000 A 
ATOM     23  C   UNL     1      26.445   3.304  49.516  0.00  0.00    +0.000 A 
ATOM     24  C   UNL     1      26.334   4.693  49.449  0.00  0.00    +0.000 A 
ATOM     25  C   UNL     1      25.299   5.342  50.121  0.00  0.00    +0.000 A 
ATOM     26  C   UNL     1      24.375   4.605  50.868  0.00  0.00    +0.000 A 
ATOM     27 CL   UNL     1      23.117   5.472  51.680  0.00  0.00    +0.000 Cl
ENDBRANCH   9  21
BRANCH   2  28
ATOM     28  O   UNL     1      23.778  -2.069  55.704  0.00  0.00    +0.000 OA
ATOM     29  H   UNL     1      23.260  -2.582  56.292  0.00  0.00    +0.000 HD
ENDBRANCH   2  28
BRANCH   4  30
ATOM     30  O   UNL     1      19.804   0.036  54.174  0.00  0.00    +0.000 OA
ATOM     31  H   UNL     1      19.258  -0.725  54.174  0.00  0.00    +0.000 HD
ENDBRANCH   4  30
TORSDOF 4
ENDMDL
MODEL 7
REMARK VINA RESULT:    -8.446      2.713      3.827
REMARK INTER + INTRA:         -10.627
REMARK INTER:                 -10.766
REMARK INTRA:                   0.139
REMARK UNBOUND:                -0.700
REMARK  Name = 
REMARK  5 active torsions:
REMARK  status: ('A' for Active; 'I' for Inactive)
REMARK    1  A    between atoms: C_1  and  N_2
REMARK    2  A    between atoms: C_5  and  C_6
REMARK    3  A    between atoms: C_7  and  O_8
REMARK    4  A    between atoms: C_10  and  O_11
REMARK    5  A    between atoms: C_16  and  C_17
REMARK                            x       y       z     vdW  Elec       q    Type
REMARK                         _______ _______ _______ _____ _____    ______ ____
ROOT
ATOM      1  C   UNL     1      25.179   1.309  52.233  0.00  0.00    +0.000 A 
ATOM      2  C   UNL     1      24.279   0.507  52.953  0.00  0.00    +0.000 A 
ATOM      3  C   UNL     1      22.900   0.604  52.768  0.00  0.00    +0.000 A 
ATOM      4  C   UNL     1      22.383   1.562  51.896  0.00  0.00    +0.000 A 
ATOM      5  C   UNL     1      23.243   2.432  51.216  0.00  0.00    +0.000 A 
ATOM      6  C   UNL     1      22.736   3.518  50.342  0.00  0.00    +0.000 A 
ATOM      7  O   UNL     1      21.551   3.726  50.096  0.00  0.00    +0.000 OA
ATOM      8  C   UNL     1      23.742   4.408  49.747  0.00  0.00    +0.000 A 
ATOM      9  C   UNL     1      25.035   4.170  49.982  0.00  0.00    +0.000 A 
ATOM     10  O   UNL     1      25.526   3.134  50.746  0.00  0.00    +0.000 OA
ATOM     11  C   UNL     1      24.632   2.298  51.380  0.00  0.00    +0.000 A 
ENDROOT
BRANCH   1  16
ATOM     12  C   UNL     1      28.376   0.007  55.447  0.00  0.00    +0.000 C 
ATOM     13  N   UNL     1      28.962   0.470  54.192  0.00  0.00    +0.000 N 
ATOM     14  C   UNL     1      28.648   1.868  53.890  0.00  0.00    +0.000 C 
ATOM     15  C   UNL     1      27.180   2.096  53.530  0.00  0.00    +0.000 C 
ATOM     16  C   UNL     1      26.695   1.176  52.403  0.00  0.00    +0.000 C 
ATOM     17  C   UNL     1      27.213  -0.259  52.565  0.00  0.00    +0.000 C 
ATOM     18  O   UNL     1      26.615  -1.245  52.124  0.00  0.00    +0.000 OA
ATOM     19  C   UNL     1      28.646  -0.404  53.057  0.00  0.00    +0.000 C 
ATOM     20  H   UNL     1      29.970   0.420  54.337  0.00  0.00    +0.000 HD
ENDBRANCH   1  16
BRANCH   9  21
ATOM     21  C   UNL     1      26.067   5.040  49.405  0.00  0.00    +0.000 A 
ATOM     22  C   UNL     1      27.237   4.447  48.904  0.00  0.00    +0.000 A 
ATOM     23  C   UNL     1      28.246   5.232  48.341  0.00  0.00    +0.000 A 
ATOM     24  C   UNL     1      28.095   6.616  48.270  0.00  0.00    +0.000 A 
ATOM     25  C   UNL     1      26.935   7.217  48.758  0.00  0.00    +0.000 A 
ATOM     26  C   UNL     1      25.925   6.434  49.326  0.00  0.00    +0.000 A 
ATOM     27 CL   UNL     1      24.512   7.241  49.915  0.00  0.00    +0.000 Cl
ENDBRANCH   9  21
BRANCH   2  28
ATOM     28  O   UNL     1      24.759  -0.357  53.893  0.00  0.00    +0.000 OA
ATOM     29  H   UNL     1      24.172  -0.762  54.500  0.00  0.00    +0.000 HD
ENDBRANCH   2  28
BRANCH   4  30
ATOM     30  O   UNL     1      21.029   1.651  51.744  0.00  0.00    +0.000 OA
ATOM     31  H   UNL     1      20.465   1.481  52.472  0.00  0.00    +0.000 HD
ENDBRANCH   4  30
TORSDOF 4
ENDMDL
MODEL 8
REMARK VINA RESULT:    -8.441      2.454      4.967
REMARK INTER + INTRA:         -10.620
REMARK INTER:                 -10.570
REMARK INTRA:                  -0.051
REMARK UNBOUND:                -0.700
REMARK  Name = 
REMARK  5 active torsions:
REMARK  status: ('A' for Active; 'I' for Inactive)
REMARK    1  A    between atoms: C_1  and  N_2
REMARK    2  A    between atoms: C_5  and  C_6
REMARK    3  A    between atoms: C_7  and  O_8
REMARK    4  A    between atoms: C_10  and  O_11
REMARK    5  A    between atoms: C_16  and  C_17
REMARK                            x       y       z     vdW  Elec       q    Type
REMARK                         _______ _______ _______ _____ _____    ______ ____
ROOT
ATOM      1  C   UNL     1      24.931   1.874  51.680  0.00  0.00    +0.000 A 
ATOM      2  C   UNL     1      25.930   2.616  51.029  0.00  0.00    +0.000 A 
ATOM      3  C   UNL     1      25.621   3.594  50.084  0.00  0.00    +0.000 A 
ATOM      4  C   UNL     1      24.292   3.808  49.718  0.00  0.00    +0.000 A 
ATOM      5  C   UNL     1      23.272   3.039  50.289  0.00  0.00    +0.000 A 
ATOM      6  C   UNL     1      21.855   3.175  49.873  0.00  0.00    +0.000 A 
ATOM      7  O   UNL     1      21.440   3.985  49.047  0.00  0.00    +0.000 OA
ATOM      8  C   UNL     1      20.894   2.254  50.495  0.00  0.00    +0.000 A 
ATOM      9  C   UNL     1      21.330   1.392  51.417  0.00  0.00    +0.000 A 
ATOM     10  O   UNL     1      22.632   1.288  51.855  0.00  0.00    +0.000 OA
ATOM     11  C   UNL     1      23.593   2.084  51.269  0.00  0.00    +0.000 A 
ENDROOT
BRANCH   1  16
ATOM     12  C   UNL     1      28.652  -0.290  53.607  0.00  0.00    +0.000 C 
ATOM     13  N   UNL     1      27.370  -0.740  54.143  0.00  0.00    +0.000 N 
ATOM     14  C   UNL     1      26.511  -1.363  53.135  0.00  0.00    +0.000 C 
ATOM     15  C   UNL     1      25.969  -0.373  52.104  0.00  0.00    +0.000 C 
ATOM     16  C   UNL     1      25.266   0.830  52.748  0.00  0.00    +0.000 C 
ATOM     17  C   UNL     1      26.030   1.360  53.968  0.00  0.00    +0.000 C 
ATOM     18  O   UNL     1      25.971   2.536  54.340  0.00  0.00    +0.000 OA
ATOM     19  C   UNL     1      26.656   0.312  54.876  0.00  0.00    +0.000 C 
ATOM     20  H   UNL     1      27.607  -1.467  54.817  0.00  0.00    +0.000 HD
ENDBRANCH   1  16
BRANCH   9  21
ATOM     21  C   UNL     1      20.398   0.456  52.057  0.00  0.00    +0.000 A 
ATOM     22  C   UNL     1      19.131   0.273  51.479  0.00  0.00    +0.000 A 
ATOM     23  C   UNL     1      18.211  -0.609  52.048  0.00  0.00    +0.000 A 
ATOM     24  C   UNL     1      18.547  -1.321  53.199  0.00  0.00    +0.000 A 
ATOM     25  C   UNL     1      19.804  -1.154  53.779  0.00  0.00    +0.000 A 
ATOM     26  C   UNL     1      20.726  -0.268  53.214  0.00  0.00    +0.000 A 
ATOM     27 CL   UNL     1      22.267  -0.105  53.985  0.00  0.00    +0.000 Cl
ENDBRANCH   9  21
BRANCH   2  28
ATOM     28  O   UNL     1      27.241   2.342  51.289  0.00  0.00    +0.000 OA
ATOM     29  H   UNL     1      27.657   1.610  50.878  0.00  0.00    +0.000 HD
ENDBRANCH   2  28
BRANCH   4  30
ATOM     30  O   UNL     1      24.013   4.758  48.778  0.00  0.00    +0.000 OA
ATOM     31  H   UNL     1      24.712   5.211  48.350  0.00  0.00    +0.000 HD
ENDBRANCH   4  30
TORSDOF 4
ENDMDL
MODEL 9
REMARK VINA RESULT:    -8.415      2.619      5.149
REMARK INTER + INTRA:         -10.591
REMARK INTER:                 -10.088
REMARK INTRA:                  -0.503
REMARK UNBOUND:                -0.700
REMARK  Name = 
REMARK  5 active torsions:
REMARK  status: ('A' for Active; 'I' for Inactive)
REMARK    1  A    between atoms: C_1  and  N_2
REMARK    2  A    between atoms: C_5  and  C_6
REMARK    3  A    between atoms: C_7  and  O_8
REMARK    4  A    between atoms: C_10  and  O_11
REMARK    5  A    between atoms: C_16  and  C_17
REMARK                            x       y       z     vdW  Elec       q    Type
REMARK                         _______ _______ _______ _____ _____    ______ ____
ROOT
ATOM      1  C   UNL     1      21.248   0.453  53.072  0.00  0.00    +0.000 A 
ATOM      2  C   UNL     1      20.709  -0.600  53.829  0.00  0.00    +0.000 A 
ATOM      3  C   UNL     1      21.491  -1.341  54.716  0.00  0.00    +0.000 A 
ATOM      4  C   UNL     1      22.858  -1.082  54.818  0.00  0.00    +0.000 A 
ATOM      5  C   UNL     1      23.447  -0.090  54.027  0.00  0.00    +0.000 A 
ATOM      6  C   UNL     1      24.908   0.166  54.041  0.00  0.00    +0.000 A 
ATOM      7  O   UNL     1      25.715  -0.415  54.762  0.00  0.00    +0.000 OA
ATOM      8  C   UNL     1      25.409   1.182  53.106  0.00  0.00    +0.000 A 
ATOM      9  C   UNL     1      24.535   1.841  52.340  0.00  0.00    +0.000 A 
ATOM     10  O   UNL     1      23.170   1.655  52.352  0.00  0.00    +0.000 OA
ATOM     11  C   UNL     1      22.642   0.675  53.165  0.00  0.00    +0.000 A 
ENDROOT
BRANCH   1  16
ATOM     12  C   UNL     1      21.637   3.949  49.930  0.00  0.00    +0.000 C 
ATOM     13  N   UNL     1      20.264   3.495  50.134  0.00  0.00    +0.000 N 
ATOM     14  C   UNL     1      19.788   3.694  51.504  0.00  0.00    +0.000 C 
ATOM     15  C   UNL     1      20.464   2.774  52.521  0.00  0.00    +0.000 C 
ATOM     16  C   UNL     1      20.383   1.293  52.129  0.00  0.00    +0.000 C 
ATOM     17  C   UNL     1      20.644   1.078  50.632  0.00  0.00    +0.000 C 
ATOM     18  O   UNL     1      21.107   0.029  50.174  0.00  0.00    +0.000 OA
ATOM     19  C   UNL     1      20.047   2.113  49.690  0.00  0.00    +0.000 C 
ATOM     20  H   UNL     1      19.696   4.095  49.536  0.00  0.00    +0.000 HD
ENDBRANCH   1  16
BRANCH   9  21
ATOM     21  C   UNL     1      25.000   2.862  51.393  0.00  0.00    +0.000 A 
ATOM     22  C   UNL     1      25.878   2.472  50.369  0.00  0.00    +0.000 A 
ATOM     23  C   UNL     1      26.345   3.404  49.440  0.00  0.00    +0.000 A 
ATOM     24  C   UNL     1      25.938   4.735  49.524  0.00  0.00    +0.000 A 
ATOM     25  C   UNL     1      25.061   5.134  50.532  0.00  0.00    +0.000 A 
ATOM     26  C   UNL     1      24.595   4.203  51.465  0.00  0.00    +0.000 A 
ATOM     27 CL   UNL     1      23.511   4.764  52.692  0.00  0.00    +0.000 Cl
ENDBRANCH   9  21
BRANCH   2  28
ATOM     28  O   UNL     1      19.400  -0.944  53.659  0.00  0.00    +0.000 OA
ATOM     29  H   UNL     1      18.920  -1.325  54.368  0.00  0.00    +0.000 HD
ENDBRANCH   2  28
BRANCH   4  30
ATOM     30  O   UNL     1      23.606  -1.830  55.680  0.00  0.00    +0.000 OA
ATOM     31  H   UNL     1      24.440  -1.516  55.970  0.00  0.00    +0.000 HD
ENDBRANCH   4  30
TORSDOF 4
ENDMDL
