MODEL 1
REMARK VINA RESULT:    -7.927      0.000      0.000
REMARK INTER + INTRA:         -10.137
REMARK INTER:                  -9.780
REMARK INTRA:                  -0.356
REMARK UNBOUND:                -0.356
REMARK  Name = 
REMARK  6 active torsions:
REMARK  status: ('A' for Active; 'I' for Inactive)
REMARK    1  A    between atoms: C_1  and  N_2
REMARK    2  A    between atoms: N_2  and  C_3
REMARK    3  A    between atoms: N_2  and  C_4
REMARK    4  A    between atoms: C_9  and  S_10
REMARK    5  A    between atoms: S_10  and  N_13
REMARK    6  A    between atoms: C_20  and  C_21
REMARK                            x       y       z     vdW  Elec       q    Type
REMARK                         _______ _______ _______ _____ _____    ______ ____
ROOT
ATOM      1  S   UNL     1      24.055   2.139  52.306  0.00  0.00    +0.000 S 
ATOM      2  O   UNL     1      22.793   1.795  52.912  0.00  0.00    +0.000 OA
ATOM      3  O   UNL     1      24.718   1.195  51.429  0.00  0.00    +0.000 OA
ENDROOT
BRANCH   1   9
ATOM      4  C   UNL     1      26.018   6.120  49.440  0.00  0.00    +0.000 A 
ATOM      5  C   UNL     1      26.994   5.204  48.995  0.00  0.00    +0.000 A 
ATOM      6  C   UNL     1      26.865   3.834  49.173  0.00  0.00    +0.000 A 
ATOM      7  C   UNL     1      25.809   3.336  49.917  0.00  0.00    +0.000 A 
ATOM      8  C   UNL     1      24.873   4.185  50.535  0.00  0.00    +0.000 A 
ATOM      9  C   UNL     1      23.867   3.696  51.421  0.00  0.00    +0.000 A 
ATOM     10  C   UNL     1      22.838   4.529  51.867  0.00  0.00    +0.000 A 
ATOM     11  C   UNL     1      22.801   5.851  51.460  0.00  0.00    +0.000 A 
ATOM     12  C   UNL     1      23.828   6.362  50.662  0.00  0.00    +0.000 A 
ATOM     13  C   UNL     1      24.922   5.585  50.215  0.00  0.00    +0.000 A 
BRANCH   4  15
ATOM     14  C   UNL     1      26.208   7.742  47.600  0.00  0.00    +0.000 C 
ATOM     15  N   UNL     1      26.114   7.477  49.040  0.00  0.00    +0.000 N 
ATOM     16  C   UNL     1      26.853   8.432  49.873  0.00  0.00    +0.000 C 
ENDBRANCH   4  15
ENDBRANCH   1   9
BRANCH   1  17
ATOM     17  N   UNL     1      25.089   2.471  53.603  0.00  0.00    +0.000 N 
ATOM     18  C   UNL     1      26.249   1.656  53.656  0.00  0.00    +0.000 A 
ATOM     19  N   UNL     1      27.356   2.317  53.240  0.00  0.00    +0.000 NA
ATOM     20  C   UNL     1      28.511   1.601  53.260  0.00  0.00    +0.000 A 
ATOM     21  C   UNL     1      28.566   0.273  53.667  0.00  0.00    +0.000 A 
ATOM     22 BR   UNL     1      30.222  -0.644  53.639  0.00  0.00    +0.000 Br
ATOM     23  N   UNL     1      27.470  -0.394  54.089  0.00  0.00    +0.000 NA
ATOM     24  C   UNL     1      26.308   0.318  54.078  0.00  0.00    +0.000 A 
ATOM     25  H   UNL     1      24.901   3.173  54.267  0.00  0.00    +0.000 HD
BRANCH  24  26
ATOM     26  C   UNL     1      25.150  -0.384  54.572  0.00  0.00    +0.000 C 
ATOM     27  N   UNL     1      24.236  -0.994  54.946  0.00  0.00    +0.000 NA
ENDBRANCH  24  26
ENDBRANCH   1  17
TORSDOF 4
ENDMDL
MODEL 2
REMARK VINA RESULT:    -7.779      5.066      7.920
REMARK INTER + INTRA:          -9.955
REMARK INTER:                  -9.392
REMARK INTRA:                  -0.563
REMARK UNBOUND:                -0.356
REMARK  Name = 
REMARK  6 active torsions:
REMARK  status: ('A' for Active; 'I' for Inactive)
REMARK    1  A    between atoms: C_1  and  N_2
REMARK    2  A    between atoms: N_2  and  C_3
REMARK    3  A    between atoms: N_2  and  C_4
REMARK    4  A    between atoms: C_9  and  S_10
REMARK    5  A    between atoms: S_10  and  N_13
REMARK    6  A    between atoms: C_20  and  C_21
REMARK                            x       y       z     vdW  Elec       q    Type
REMARK                         _______ _______ _______ _____ _____    ______ ____
ROOT
ATOM      1  S   UNL     1      21.577   2.307  51.882  0.00  0.00    +0.000 S 
ATOM      2  O   UNL     1      21.897   3.700  52.068  0.00  0.00    +0.000 OA
ATOM      3  O   UNL     1      21.529   1.748  50.546  0.00  0.00    +0.000 OA
ENDROOT
BRANCH   1   9
ATOM      4  C   UNL     1      26.287   0.051  52.679  0.00  0.00    +0.000 A 
ATOM      5  C   UNL     1      26.817   1.072  51.861  0.00  0.00    +0.000 A 
ATOM      6  C   UNL     1      26.100   2.214  51.536  0.00  0.00    +0.000 A 
ATOM      7  C   UNL     1      24.773   2.321  51.917  0.00  0.00    +0.000 A 
ATOM      8  C   UNL     1      24.112   1.282  52.599  0.00  0.00    +0.000 A 
ATOM      9  C   UNL     1      22.711   1.317  52.869  0.00  0.00    +0.000 A 
ATOM     10  C   UNL     1      22.120   0.371  53.709  0.00  0.00    +0.000 A 
ATOM     11  C   UNL     1      22.898  -0.626  54.274  0.00  0.00    +0.000 A 
ATOM     12  C   UNL     1      24.252  -0.720  53.948  0.00  0.00    +0.000 A 
ATOM     13  C   UNL     1      24.902   0.178  53.068  0.00  0.00    +0.000 A 
BRANCH   4  15
ATOM     14  C   UNL     1      28.462  -0.572  53.647  0.00  0.00    +0.000 C 
ATOM     15  N   UNL     1      27.147  -0.978  53.139  0.00  0.00    +0.000 N 
ATOM     16  C   UNL     1      27.142  -2.284  52.470  0.00  0.00    +0.000 C 
ENDBRANCH   4  15
ENDBRANCH   1   9
BRANCH   1  17
ATOM     17  N   UNL     1      20.056   2.107  52.593  0.00  0.00    +0.000 N 
ATOM     18  C   UNL     1      19.067   1.569  51.729  0.00  0.00    +0.000 A 
ATOM     19  N   UNL     1      18.818   0.263  51.990  0.00  0.00    +0.000 NA
ATOM     20  C   UNL     1      17.881  -0.326  51.202  0.00  0.00    +0.000 A 
ATOM     21  C   UNL     1      17.221   0.352  50.183  0.00  0.00    +0.000 A 
ATOM     22 BR   UNL     1      15.946  -0.565  49.126  0.00  0.00    +0.000 Br
ATOM     23  N   UNL     1      17.457   1.654  49.919  0.00  0.00    +0.000 NA
ATOM     24  C   UNL     1      18.391   2.255  50.708  0.00  0.00    +0.000 A 
ATOM     25  H   UNL     1      19.871   2.345  53.531  0.00  0.00    +0.000 HD
BRANCH  24  26
ATOM     26  C   UNL     1      18.606   3.657  50.451  0.00  0.00    +0.000 C 
ATOM     27  N   UNL     1      18.827   4.774  50.223  0.00  0.00    +0.000 NA
ENDBRANCH  24  26
ENDBRANCH   1  17
TORSDOF 4
ENDMDL
MODEL 3
REMARK VINA RESULT:    -7.720      4.858      7.777
REMARK INTER + INTRA:          -9.882
REMARK INTER:                  -9.409
REMARK INTRA:                  -0.473
REMARK UNBOUND:                -0.356
REMARK  Name = 
REMARK  6 active torsions:
REMARK  status: ('A' for Active; 'I' for Inactive)
REMARK    1  A    between atoms: C_1  and  N_2
REMARK    2  A    between atoms: N_2  and  C_3
REMARK    3  A    between atoms: N_2  and  C_4
REMARK    4  A    between atoms: C_9  and  S_10
REMARK    5  A    between atoms: S_10  and  N_13
REMARK    6  A    between atoms: C_20  and  C_21
REMARK                            x       y       z     vdW  Elec       q    Type
REMARK                         _______ _______ _______ _____ _____    ______ ____
ROOT
ATOM      1  S   UNL     1      20.455   0.608  52.812  0.00  0.00    +0.000 S 
ATOM      2  O   UNL     1      19.403  -0.293  53.211  0.00  0.00    +0.000 OA
ATOM      3  O   UNL     1      20.255   2.040  52.904  0.00  0.00    +0.000 OA
ENDROOT
BRANCH   1   9
ATOM      4  C   UNL     1      25.693  -0.020  53.095  0.00  0.00    +0.000 A 
ATOM      5  C   UNL     1      25.776   0.936  52.059  0.00  0.00    +0.000 A 
ATOM      6  C   UNL     1      24.705   1.744  51.704  0.00  0.00    +0.000 A 
ATOM      7  C   UNL     1      23.468   1.538  52.290  0.00  0.00    +0.000 A 
ATOM      8  C   UNL     1      23.251   0.503  53.218  0.00  0.00    +0.000 A 
ATOM      9  C   UNL     1      21.952   0.187  53.719  0.00  0.00    +0.000 A 
ATOM     10  C   UNL     1      21.791  -0.712  54.776  0.00  0.00    +0.000 A 
ATOM     11  C   UNL     1      22.902  -1.320  55.334  0.00  0.00    +0.000 A 
ATOM     12  C   UNL     1      24.169  -1.085  54.794  0.00  0.00    +0.000 A 
ATOM     13  C   UNL     1      24.395  -0.222  53.696  0.00  0.00    +0.000 A 
BRANCH   4  15
ATOM     14  C   UNL     1      27.883   0.190  54.197  0.00  0.00    +0.000 C 
ATOM     15  N   UNL     1      26.879  -0.655  53.541  0.00  0.00    +0.000 N 
ATOM     16  C   UNL     1      27.446  -1.765  52.766  0.00  0.00    +0.000 C 
ENDBRANCH   4  15
ENDBRANCH   1   9
BRANCH   1  17
ATOM     17  N   UNL     1      20.774   0.223  51.197  0.00  0.00    +0.000 N 
ATOM     18  C   UNL     1      20.283   1.166  50.257  0.00  0.00    +0.000 A 
ATOM     19  N   UNL     1      21.269   1.947  49.755  0.00  0.00    +0.000 NA
ATOM     20  C   UNL     1      20.876   2.878  48.847  0.00  0.00    +0.000 A 
ATOM     21  C   UNL     1      19.551   3.038  48.457  0.00  0.00    +0.000 A 
ATOM     22 BR   UNL     1      19.104   4.381  47.200  0.00  0.00    +0.000 Br
ATOM     23  N   UNL     1      18.562   2.262  48.947  0.00  0.00    +0.000 NA
ATOM     24  C   UNL     1      18.947   1.320  49.854  0.00  0.00    +0.000 A 
ATOM     25  H   UNL     1      21.262  -0.590  50.929  0.00  0.00    +0.000 HD
BRANCH  24  26
ATOM     26  C   UNL     1      17.893   0.464  50.339  0.00  0.00    +0.000 C 
ATOM     27  N   UNL     1      17.075  -0.236  50.774  0.00  0.00    +0.000 NA
ENDBRANCH  24  26
ENDBRANCH   1  17
TORSDOF 4
ENDMDL
MODEL 4
REMARK VINA RESULT:    -7.580      2.783      4.218
REMARK INTER + INTRA:          -9.709
REMARK INTER:                  -9.359
REMARK INTRA:                  -0.349
REMARK UNBOUND:                -0.356
REMARK  Name = 
REMARK  6 active torsions:
REMARK  status: ('A' for Active; 'I' for Inactive)
REMARK    1  A    between atoms: C_1  and  N_2
REMARK    2  A    between atoms: N_2  and  C_3
REMARK    3  A    between atoms: N_2  and  C_4
REMARK    4  A    between atoms: C_9  and  S_10
REMARK    5  A    between atoms: S_10  and  N_13
REMARK    6  A    between atoms: C_20  and  C_21
REMARK                            x       y       z     vdW  Elec       q    Type
REMARK                         _______ _______ _______ _____ _____    ______ ____
ROOT
ATOM      1  S   UNL     1      23.445   3.936  50.573  0.00  0.00    +0.000 S 
ATOM      2  O   UNL     1      23.288   4.011  52.004  0.00  0.00    +0.000 OA
ATOM      3  O   UNL     1      22.444   4.521  49.703  0.00  0.00    +0.000 OA
ENDROOT
BRANCH   1   9
ATOM      4  C   UNL     1      26.522   7.959  49.070  0.00  0.00    +0.000 A 
ATOM      5  C   UNL     1      25.574   8.801  49.689  0.00  0.00    +0.000 A 
ATOM      6  C   UNL     1      24.608   8.321  50.561  0.00  0.00    +0.000 A 
ATOM      7  C   UNL     1      24.475   6.956  50.752  0.00  0.00    +0.000 A 
ATOM      8  C   UNL     1      25.272   6.030  50.055  0.00  0.00    +0.000 A 
ATOM      9  C   UNL     1      25.050   4.622  50.130  0.00  0.00    +0.000 A 
ATOM     10  C   UNL     1      25.968   3.721  49.586  0.00  0.00    +0.000 A 
ATOM     11  C   UNL     1      27.100   4.198  48.948  0.00  0.00    +0.000 A 
ATOM     12  C   UNL     1      27.284   5.574  48.792  0.00  0.00    +0.000 A 
ATOM     13  C   UNL     1      26.370   6.538  49.279  0.00  0.00    +0.000 A 
BRANCH   4  15
ATOM     14  C   UNL     1      28.644   9.202  49.160  0.00  0.00    +0.000 C 
ATOM     15  N   UNL     1      27.603   8.542  48.363  0.00  0.00    +0.000 N 
ATOM     16  C   UNL     1      27.366   9.165  47.056  0.00  0.00    +0.000 C 
ENDBRANCH   4  15
ENDBRANCH   1   9
BRANCH   1  17
ATOM     17  N   UNL     1      23.542   2.283  50.228  0.00  0.00    +0.000 N 
ATOM     18  C   UNL     1      23.241   1.433  51.323  0.00  0.00    +0.000 A 
ATOM     19  N   UNL     1      22.007   0.884  51.218  0.00  0.00    +0.000 NA
ATOM     20  C   UNL     1      21.643   0.056  52.232  0.00  0.00    +0.000 A 
ATOM     21  C   UNL     1      22.467  -0.209  53.319  0.00  0.00    +0.000 A 
ATOM     22 BR   UNL     1      21.858  -1.361  54.693  0.00  0.00    +0.000 Br
ATOM     23  N   UNL     1      23.700   0.329  53.432  0.00  0.00    +0.000 NA
ATOM     24  C   UNL     1      24.077   1.155  52.416  0.00  0.00    +0.000 A 
ATOM     25  H   UNL     1      23.789   1.938  49.339  0.00  0.00    +0.000 HD
BRANCH  24  26
ATOM     26  C   UNL     1      25.411   1.691  52.519  0.00  0.00    +0.000 C 
ATOM     27  N   UNL     1      26.497   2.083  52.638  0.00  0.00    +0.000 NA
ENDBRANCH  24  26
ENDBRANCH   1  17
TORSDOF 4
ENDMDL
MODEL 5
REMARK VINA RESULT:    -7.379      3.883      7.164
REMARK INTER + INTRA:          -9.461
REMARK INTER:                  -9.004
REMARK INTRA:                  -0.457
REMARK UNBOUND:                -0.356
REMARK  Name = 
REMARK  6 active torsions:
REMARK  status: ('A' for Active; 'I' for Inactive)
REMARK    1  A    between atoms: C_1  and  N_2
REMARK    2  A    between atoms: N_2  and  C_3
REMARK    3  A    between atoms: N_2  and  C_4
REMARK    4  A    between atoms: C_9  and  S_10
REMARK    5  A    between atoms: S_10  and  N_13
REMARK    6  A    between atoms: C_20  and  C_21
REMARK                            x       y       z     vdW  Elec       q    Type
REMARK                         _______ _______ _______ _____ _____    ______ ____
ROOT
ATOM      1  S   UNL     1      21.627   2.710  52.040  0.00  0.00    +0.000 S 
ATOM      2  O   UNL     1      20.250   2.320  52.212  0.00  0.00    +0.000 OA
ATOM      3  O   UNL     1      22.045   4.056  52.375  0.00  0.00    +0.000 OA
ENDROOT
BRANCH   1   9
ATOM      4  C   UNL     1      26.208   0.178  52.757  0.00  0.00    +0.000 A 
ATOM      5  C   UNL     1      26.816   1.275  52.110  0.00  0.00    +0.000 A 
ATOM      6  C   UNL     1      26.156   2.478  51.907  0.00  0.00    +0.000 A 
ATOM      7  C   UNL     1      24.815   2.588  52.234  0.00  0.00    +0.000 A 
ATOM      8  C   UNL     1      24.084   1.497  52.737  0.00  0.00    +0.000 A 
ATOM      9  C   UNL     1      22.672   1.552  52.940  0.00  0.00    +0.000 A 
ATOM     10  C   UNL     1      22.004   0.528  53.616  0.00  0.00    +0.000 A 
ATOM     11  C   UNL     1      22.716  -0.565  54.080  0.00  0.00    +0.000 A 
ATOM     12  C   UNL     1      24.083  -0.670  53.810  0.00  0.00    +0.000 A 
ATOM     13  C   UNL     1      24.809   0.308  53.091  0.00  0.00    +0.000 A 
BRANCH   4  15
ATOM     14  C   UNL     1      28.352  -0.657  53.629  0.00  0.00    +0.000 C 
ATOM     15  N   UNL     1      27.006  -0.937  53.117  0.00  0.00    +0.000 N 
ATOM     16  C   UNL     1      26.907  -2.182  52.346  0.00  0.00    +0.000 C 
ENDBRANCH   4  15
ENDBRANCH   1   9
BRANCH   1  17
ATOM     17  N   UNL     1      21.956   2.447  50.403  0.00  0.00    +0.000 N 
ATOM     18  C   UNL     1      22.224   3.624  49.658  0.00  0.00    +0.000 A 
ATOM     19  N   UNL     1      23.545   3.773  49.397  0.00  0.00    +0.000 NA
ATOM     20  C   UNL     1      23.883   4.881  48.687  0.00  0.00    +0.000 A 
ATOM     21  C   UNL     1      22.947   5.816  48.260  0.00  0.00    +0.000 A 
ATOM     22 BR   UNL     1      23.522   7.339  47.294  0.00  0.00    +0.000 Br
ATOM     23  N   UNL     1      21.628   5.675  48.510  0.00  0.00    +0.000 NA
ATOM     24  C   UNL     1      21.278   4.563  49.217  0.00  0.00    +0.000 A 
ATOM     25  H   UNL     1      21.962   1.549  49.998  0.00  0.00    +0.000 HD
BRANCH  24  26
ATOM     26  C   UNL     1      19.865   4.394  49.442  0.00  0.00    +0.000 C 
ATOM     27  N   UNL     1      18.724   4.226  49.579  0.00  0.00    +0.000 NA
ENDBRANCH  24  26
ENDBRANCH   1  17
TORSDOF 4
ENDMDL
MODEL 6
REMARK VINA RESULT:    -7.342      3.091      3.963
REMARK INTER + INTRA:          -9.415
REMARK INTER:                  -9.149
REMARK INTRA:                  -0.265
REMARK UNBOUND:                -0.356
REMARK  Name = 
REMARK  6 active torsions:
REMARK  status: ('A' for Active; 'I' for Inactive)
REMARK    1  A    between atoms: C_1  and  N_2
REMARK    2  A    between atoms: N_2  and  C_3
REMARK    3  A    between atoms: N_2  and  C_4
REMARK    4  A    between atoms: C_9  and  S_10
REMARK    5  A    between atoms: S_10  and  N_13
REMARK    6  A    between atoms: C_20  and  C_21
REMARK                            x       y       z     vdW  Elec       q    Type
REMARK                         _______ _______ _______ _____ _____    ______ ____
ROOT
ATOM      1  S   UNL     1      24.634   2.994  52.019  0.00  0.00    +0.000 S 
ATOM      2  O   UNL     1      26.035   2.677  52.136  0.00  0.00    +0.000 OA
ATOM      3  O   UNL     1      23.820   3.122  53.211  0.00  0.00    +0.000 OA
ENDROOT
BRANCH   1   9
ATOM      4  C   UNL     1      26.629   6.778  48.919  0.00  0.00    +0.000 A 
ATOM      5  C   UNL     1      27.587   5.823  48.517  0.00  0.00    +0.000 A 
ATOM      6  C   UNL     1      27.439   4.467  48.772  0.00  0.00    +0.000 A 
ATOM      7  C   UNL     1      26.383   4.028  49.552  0.00  0.00    +0.000 A 
ATOM      8  C   UNL     1      25.465   4.925  50.129  0.00  0.00    +0.000 A 
ATOM      9  C   UNL     1      24.461   4.502  51.051  0.00  0.00    +0.000 A 
ATOM     10  C   UNL     1      23.448   5.374  51.458  0.00  0.00    +0.000 A 
ATOM     11  C   UNL     1      23.428   6.672  50.977  0.00  0.00    +0.000 A 
ATOM     12  C   UNL     1      24.455   7.122  50.144  0.00  0.00    +0.000 A 
ATOM     13  C   UNL     1      25.533   6.304  49.731  0.00  0.00    +0.000 A 
BRANCH   4  15
ATOM     14  C   UNL     1      26.781   8.294  46.987  0.00  0.00    +0.000 C 
ATOM     15  N   UNL     1      26.742   8.108  48.442  0.00  0.00    +0.000 N 
ATOM     16  C   UNL     1      27.539   9.085  49.192  0.00  0.00    +0.000 C 
ENDBRANCH   4  15
ENDBRANCH   1   9
BRANCH   1  17
ATOM     17  N   UNL     1      23.983   1.759  51.065  0.00  0.00    +0.000 N 
ATOM     18  C   UNL     1      22.854   1.111  51.629  0.00  0.00    +0.000 A 
ATOM     19  N   UNL     1      21.695   1.505  51.047  0.00  0.00    +0.000 NA
ATOM     20  C   UNL     1      20.566   0.928  51.534  0.00  0.00    +0.000 A 
ATOM     21  C   UNL     1      20.581   0.002  52.571  0.00  0.00    +0.000 A 
ATOM     22 BR   UNL     1      18.950  -0.729  53.193  0.00  0.00    +0.000 Br
ATOM     23  N   UNL     1      21.730  -0.401  53.155  0.00  0.00    +0.000 NA
ATOM     24  C   UNL     1      22.869   0.167  52.668  0.00  0.00    +0.000 A 
ATOM     25  H   UNL     1      24.357   1.510  50.189  0.00  0.00    +0.000 HD
BRANCH  24  26
ATOM     26  C   UNL     1      24.095  -0.301  53.264  0.00  0.00    +0.000 C 
ATOM     27  N   UNL     1      25.059  -0.675  53.792  0.00  0.00    +0.000 NA
ENDBRANCH  24  26
ENDBRANCH   1  17
TORSDOF 4
ENDMDL
MODEL 7
REMARK VINA RESULT:    -7.298      3.887      6.522
REMARK INTER + INTRA:          -9.361
REMARK INTER:                  -9.213
REMARK INTRA:                  -0.148
REMARK UNBOUND:                -0.356
REMARK  Name = 
REMARK  6 active torsions:
REMARK  status: ('A' for Active; 'I' for Inactive)
REMARK    1  A    between atoms: C_1  and  N_2
REMARK    2  A    between atoms: N_2  and  C_3
REMARK    3  A    between atoms: N_2  and  C_4
REMARK    4  A    between atoms: C_9  and  S_10
REMARK    5  A    between atoms: S_10  and  N_13
REMARK    6  A    between atoms: C_20  and  C_21
REMARK                            x       y       z     vdW  Elec       q    Type
REMARK                         _______ _______ _______ _____ _____    ______ ____
ROOT
ATOM      1  S   UNL     1      23.321   3.233  51.955  0.00  0.00    +0.000 S 
ATOM      2  O   UNL     1      23.537   4.196  50.904  0.00  0.00    +0.000 OA
ATOM      3  O   UNL     1      23.885   3.459  53.271  0.00  0.00    +0.000 OA
ENDROOT
BRANCH   1   9
ATOM      4  C   UNL     1      19.148   0.059  52.610  0.00  0.00    +0.000 A 
ATOM      5  C   UNL     1      20.037  -0.834  53.245  0.00  0.00    +0.000 A 
ATOM      6  C   UNL     1      21.302  -0.451  53.668  0.00  0.00    +0.000 A 
ATOM      7  C   UNL     1      21.774   0.813  53.357  0.00  0.00    +0.000 A 
ATOM      8  C   UNL     1      21.020   1.717  52.588  0.00  0.00    +0.000 A 
ATOM      9  C   UNL     1      21.550   2.964  52.138  0.00  0.00    +0.000 A 
ATOM     10  C   UNL     1      20.724   3.922  51.545  0.00  0.00    +0.000 A 
ATOM     11  C   UNL     1      19.377   3.653  51.372  0.00  0.00    +0.000 A 
ATOM     12  C   UNL     1      18.865   2.403  51.730  0.00  0.00    +0.000 A 
ATOM     13  C   UNL     1      19.657   1.374  52.293  0.00  0.00    +0.000 A 
BRANCH   4  15
ATOM     14  C   UNL     1      17.275  -1.391  53.275  0.00  0.00    +0.000 C 
ATOM     15  N   UNL     1      17.804  -0.341  52.398  0.00  0.00    +0.000 N 
ATOM     16  C   UNL     1      17.258  -0.366  51.037  0.00  0.00    +0.000 C 
ENDBRANCH   4  15
ENDBRANCH   1   9
BRANCH   1  17
ATOM     17  N   UNL     1      23.945   1.781  51.355  0.00  0.00    +0.000 N 
ATOM     18  C   UNL     1      25.179   1.385  51.935  0.00  0.00    +0.000 A 
ATOM     19  N   UNL     1      25.022   0.380  52.830  0.00  0.00    +0.000 NA
ATOM     20  C   UNL     1      26.160  -0.055  53.431  0.00  0.00    +0.000 A 
ATOM     21  C   UNL     1      27.410   0.493  53.163  0.00  0.00    +0.000 A 
ATOM     22 BR   UNL     1      28.933  -0.170  54.070  0.00  0.00    +0.000 Br
ATOM     23  N   UNL     1      27.578   1.491  52.270  0.00  0.00    +0.000 NA
ATOM     24  C   UNL     1      26.442   1.930  51.657  0.00  0.00    +0.000 A 
ATOM     25  H   UNL     1      23.490   1.252  50.660  0.00  0.00    +0.000 HD
BRANCH  24  26
ATOM     26  C   UNL     1      26.633   2.963  50.671  0.00  0.00    +0.000 C 
ATOM     27  N   UNL     1      26.828   3.766  49.855  0.00  0.00    +0.000 NA
ENDBRANCH  24  26
ENDBRANCH   1  17
TORSDOF 4
ENDMDL
MODEL 8
REMARK VINA RESULT:    -7.220      5.193      8.053
REMARK INTER + INTRA:          -9.265
REMARK INTER:                  -8.913
REMARK INTRA:                  -0.352
REMARK UNBOUND:                -0.356
REMARK  Name = 
REMARK  6 active torsions:
REMARK  status: ('A' for Active; 'I' for Inactive)
REMARK    1  A    between atoms: C_1  and  N_2
REMARK    2  A    between atoms: N_2  and  C_3
REMARK    3  A    between atoms: N_2  and  C_4
REMARK    4  A    between atoms: C_9  and  S_10
REMARK    5  A    between atoms: S_10  and  N_13
REMARK    6  A    between atoms: C_20  and  C_21
REMARK                            x       y       z     vdW  Elec       q    Type
REMARK                         _______ _______ _______ _____ _____    ______ ____
ROOT
ATOM      1  S   UNL     1      21.220   1.230  50.662  0.00  0.00    +0.000 S 
ATOM      2  O   UNL     1      21.931   1.159  49.411  0.00  0.00    +0.000 OA
ATOM      3  O   UNL     1      20.012   0.451  50.853  0.00  0.00    +0.000 OA
ENDROOT
BRANCH   1   9
ATOM      4  C   UNL     1      26.110   0.759  52.606  0.00  0.00    +0.000 A 
ATOM      5  C   UNL     1      26.487   1.734  51.658  0.00  0.00    +0.000 A 
ATOM      6  C   UNL     1      25.559   2.514  50.983  0.00  0.00    +0.000 A 
ATOM      7  C   UNL     1      24.207   2.261  51.140  0.00  0.00    +0.000 A 
ATOM      8  C   UNL     1      23.740   1.204  51.943  0.00  0.00    +0.000 A 
ATOM      9  C   UNL     1      22.361   0.840  51.999  0.00  0.00    +0.000 A 
ATOM     10  C   UNL     1      21.901  -0.081  52.944  0.00  0.00    +0.000 A 
ATOM     11  C   UNL     1      22.796  -0.664  53.825  0.00  0.00    +0.000 A 
ATOM     12  C   UNL     1      24.160  -0.380  53.721  0.00  0.00    +0.000 A 
ATOM     13  C   UNL     1      24.696   0.507  52.758  0.00  0.00    +0.000 A 
BRANCH   4  15
ATOM     14  C   UNL     1      28.078   1.046  54.055  0.00  0.00    +0.000 C 
ATOM     15  N   UNL     1      27.112   0.153  53.405  0.00  0.00    +0.000 N 
ATOM     16  C   UNL     1      27.668  -1.147  53.014  0.00  0.00    +0.000 C 
ENDBRANCH   4  15
ENDBRANCH   1   9
BRANCH   1  17
ATOM     17  N   UNL     1      20.831   2.864  50.854  0.00  0.00    +0.000 N 
ATOM     18  C   UNL     1      19.472   3.181  50.596  0.00  0.00    +0.000 A 
ATOM     19  N   UNL     1      18.769   3.384  51.736  0.00  0.00    +0.000 NA
ATOM     20  C   UNL     1      17.457   3.692  51.571  0.00  0.00    +0.000 A 
ATOM     21  C   UNL     1      16.856   3.784  50.321  0.00  0.00    +0.000 A 
ATOM     22 BR   UNL     1      15.013   4.198  50.198  0.00  0.00    +0.000 Br
ATOM     23  N   UNL     1      17.548   3.589  49.178  0.00  0.00    +0.000 NA
ATOM     24  C   UNL     1      18.868   3.286  49.333  0.00  0.00    +0.000 A 
ATOM     25  H   UNL     1      21.493   3.541  51.124  0.00  0.00    +0.000 HD
BRANCH  24  26
ATOM     26  C   UNL     1      19.611   3.124  48.109  0.00  0.00    +0.000 C 
ATOM     27  N   UNL     1      20.219   3.047  47.123  0.00  0.00    +0.000 NA
ENDBRANCH  24  26
ENDBRANCH   1  17
TORSDOF 4
ENDMDL
MODEL 9
REMARK VINA RESULT:    -7.197      4.482      7.040
REMARK INTER + INTRA:          -9.236
REMARK INTER:                  -9.781
REMARK INTRA:                   0.545
REMARK UNBOUND:                -0.356
REMARK  Name = 
REMARK  6 active torsions:
REMARK  status: ('A' for Active; 'I' for Inactive)
REMARK    1  A    between atoms: C_1  and  N_2
REMARK    2  A    between atoms: N_2  and  C_3
REMARK    3  A    between atoms: N_2  and  C_4
REMARK    4  A    between atoms: C_9  and  S_10
REMARK    5  A    between atoms: S_10  and  N_13
REMARK    6  A    between atoms: C_20  and  C_21
REMARK                            x       y       z     vdW  Elec       q    Type
REMARK                         _______ _______ _______ _____ _____    ______ ____
ROOT
ATOM      1  S   UNL     1      22.301   1.692  52.086  0.00  0.00    +0.000 S 
ATOM      2  O   UNL     1      22.093   1.514  53.501  0.00  0.00    +0.000 OA
ATOM      3  O   UNL     1      21.769   2.862  51.417  0.00  0.00    +0.000 OA
ENDROOT
BRANCH   1   9
ATOM      4  C   UNL     1      27.263   0.616  53.547  0.00  0.00    +0.000 A 
ATOM      5  C   UNL     1      26.703  -0.300  54.463  0.00  0.00    +0.000 A 
ATOM      6  C   UNL     1      25.383  -0.719  54.382  0.00  0.00    +0.000 A 
ATOM      7  C   UNL     1      24.535  -0.140  53.454  0.00  0.00    +0.000 A 
ATOM      8  C   UNL     1      24.964   0.896  52.604  0.00  0.00    +0.000 A 
ATOM      9  C   UNL     1      24.067   1.601  51.746  0.00  0.00    +0.000 A 
ATOM     10  C   UNL     1      24.548   2.488  50.779  0.00  0.00    +0.000 A 
ATOM     11  C   UNL     1      25.911   2.702  50.663  0.00  0.00    +0.000 A 
ATOM     12  C   UNL     1      26.791   2.084  51.555  0.00  0.00    +0.000 A 
ATOM     13  C   UNL     1      26.366   1.212  52.584  0.00  0.00    +0.000 A 
BRANCH   4  15
ATOM     14  C   UNL     1      29.525  -0.354  53.542  0.00  0.00    +0.000 C 
ATOM     15  N   UNL     1      28.664   0.834  53.562  0.00  0.00    +0.000 N 
ATOM     16  C   UNL     1      29.217   1.961  54.322  0.00  0.00    +0.000 C 
ENDBRANCH   4  15
ENDBRANCH   1   9
BRANCH   1  17
ATOM     17  N   UNL     1      21.625   0.319  51.367  0.00  0.00    +0.000 N 
ATOM     18  C   UNL     1      20.279   0.063  51.734  0.00  0.00    +0.000 A 
ATOM     19  N   UNL     1      19.409   0.405  50.753  0.00  0.00    +0.000 NA
ATOM     20  C   UNL     1      18.096   0.191  51.031  0.00  0.00    +0.000 A 
ATOM     21  C   UNL     1      17.658  -0.333  52.242  0.00  0.00    +0.000 A 
ATOM     22 BR   UNL     1      15.805  -0.574  52.539  0.00  0.00    +0.000 Br
ATOM     23  N   UNL     1      18.517  -0.682  53.224  0.00  0.00    +0.000 NA
ATOM     24  C   UNL     1      19.836  -0.476  52.952  0.00  0.00    +0.000 A 
ATOM     25  H   UNL     1      22.125  -0.257  50.744  0.00  0.00    +0.000 HD
BRANCH  24  26
ATOM     26  C   UNL     1      20.751  -0.893  53.986  0.00  0.00    +0.000 C 
ATOM     27  N   UNL     1      21.528  -1.216  54.785  0.00  0.00    +0.000 NA
ENDBRANCH  24  26
ENDBRANCH   1  17
TORSDOF 4
ENDMDL
