MODEL 1
REMARK VINA RESULT:    -8.795      0.000      0.000
REMARK INTER + INTRA:         -10.437
REMARK INTER:                 -10.081
REMARK INTRA:                  -0.356
REMARK UNBOUND:                -0.356
REMARK  Name = 
REMARK  9 active torsions:
REMARK  status: ('A' for Active; 'I' for Inactive)
REMARK    1  A    between atoms: C_1  and  C_2
REMARK    2  A    between atoms: C_2  and  C_3
REMARK    3  A    between atoms: C_3  and  C_4
REMARK    4  A    between atoms: C_16  and  C_17
REMARK    5  A    between atoms: C_16  and  C_18
REMARK    6  A    between atoms: C_22  and  C_23
REMARK    7  A    between atoms: C_22  and  C_24
REMARK    8  A    between atoms: C_25  and  C_26
REMARK    9  A    between atoms: C_27  and  O_28
REMARK                            x       y       z     vdW  Elec       q    Type
REMARK                         _______ _______ _______ _____ _____    ______ ____
ROOT
ATOM      1  C   UNL     1      22.285   1.366  52.854  0.00  0.00    +0.000 A 
ATOM      2  C   UNL     1      22.010   0.430  53.796  0.00  0.00    +0.000 A 
ATOM      3  C   UNL     1      22.833  -0.746  54.037  0.00  0.00    +0.000 A 
ATOM      4  O   UNL     1      22.546  -1.587  54.884  0.00  0.00    +0.000 OA
ATOM      5  O   UNL     1      23.901  -0.877  53.213  0.00  0.00    +0.000 OA
ATOM      6  C   UNL     1      24.403   0.338  52.765  0.00  0.00    +0.000 A 
ATOM      7  C   UNL     1      25.725   0.563  53.045  0.00  0.00    +0.000 A 
ATOM      8  C   UNL     1      26.447   1.381  52.209  0.00  0.00    +0.000 A 
ATOM      9  C   UNL     1      25.740   2.165  51.284  0.00  0.00    +0.000 A 
ATOM     10  C   UNL     1      24.318   2.248  51.371  0.00  0.00    +0.000 A 
ATOM     11  C   UNL     1      23.624   1.330  52.197  0.00  0.00    +0.000 A 
ATOM     12  O   UNL     1      23.618   3.182  50.634  0.00  0.00    +0.000 OA
ATOM     13  C   UNL     1      24.365   4.201  49.908  0.00  0.00    +0.000 C 
ATOM     14  C   UNL     1      23.651   4.450  48.570  0.00  0.00    +0.000 C 
ATOM     15  C   UNL     1      24.348   5.499  50.724  0.00  0.00    +0.000 C 
ATOM     16  C   UNL     1      25.799   3.857  49.621  0.00  0.00    +0.000 C 
ATOM     17  C   UNL     1      26.465   2.920  50.275  0.00  0.00    +0.000 C 
ATOM     18  O   UNL     1      27.817   1.399  52.248  0.00  0.00    +0.000 OA
ATOM     19  C   UNL     1      28.464   0.841  53.421  0.00  0.00    +0.000 C 
ATOM     20  C   UNL     1      28.714   2.018  54.390  0.00  0.00    +0.000 C 
ATOM     21  C   UNL     1      29.832   0.320  52.960  0.00  0.00    +0.000 C 
ATOM     22  C   UNL     1      27.697  -0.331  54.109  0.00  0.00    +0.000 C 
ATOM     23  C   UNL     1      27.661  -1.652  53.308  0.00  0.00    +0.000 C 
ATOM     24  C   UNL     1      26.264   0.072  54.342  0.00  0.00    +0.000 C 
ENDROOT
BRANCH  24  25
ATOM     25  O   UNL     1      26.106   1.142  55.270  0.00  0.00    +0.000 OA
ATOM     26  H   UNL     1      25.232   1.081  55.687  0.00  0.00    +0.000 HD
ENDBRANCH  24  25
BRANCH   1  27
ATOM     27  C   UNL     1      21.357   2.541  52.798  0.00  0.00    +0.000 C 
BRANCH  27  29
ATOM     28  C   UNL     1      20.204   1.587  50.689  0.00  0.00    +0.000 C 
ATOM     29  C   UNL     1      20.056   2.290  52.038  0.00  0.00    +0.000 C 
ENDBRANCH  27  29
ENDBRANCH   1  27
TORSDOF 3
ENDMDL
MODEL 2
REMARK VINA RESULT:    -8.382      2.190      4.849
REMARK INTER + INTRA:          -9.963
REMARK INTER:                  -9.594
REMARK INTRA:                  -0.369
REMARK UNBOUND:                -0.356
REMARK  Name = 
REMARK  9 active torsions:
REMARK  status: ('A' for Active; 'I' for Inactive)
REMARK    1  A    between atoms: C_1  and  C_2
REMARK    2  A    between atoms: C_2  and  C_3
REMARK    3  A    between atoms: C_3  and  C_4
REMARK    4  A    between atoms: C_16  and  C_17
REMARK    5  A    between atoms: C_16  and  C_18
REMARK    6  A    between atoms: C_22  and  C_23
REMARK    7  A    between atoms: C_22  and  C_24
REMARK    8  A    between atoms: C_25  and  C_26
REMARK    9  A    between atoms: C_27  and  O_28
REMARK                            x       y       z     vdW  Elec       q    Type
REMARK                         _______ _______ _______ _____ _____    ______ ____
ROOT
ATOM      1  C   UNL     1      22.458  -0.050  53.446  0.00  0.00    +0.000 A 
ATOM      2  C   UNL     1      23.644  -0.234  54.077  0.00  0.00    +0.000 A 
ATOM      3  C   UNL     1      24.939   0.004  53.458  0.00  0.00    +0.000 A 
ATOM      4  O   UNL     1      25.998  -0.193  54.049  0.00  0.00    +0.000 OA
ATOM      5  O   UNL     1      24.892   0.393  52.161  0.00  0.00    +0.000 OA
ATOM      6  C   UNL     1      23.740   1.102  51.840  0.00  0.00    +0.000 A 
ATOM      7  C   UNL     1      23.950   2.352  51.320  0.00  0.00    +0.000 A 
ATOM      8  C   UNL     1      23.007   2.880  50.471  0.00  0.00    +0.000 A 
ATOM      9  C   UNL     1      21.757   2.246  50.400  0.00  0.00    +0.000 A 
ATOM     10  C   UNL     1      21.432   1.221  51.339  0.00  0.00    +0.000 A 
ATOM     11  C   UNL     1      22.462   0.668  52.138  0.00  0.00    +0.000 A 
ATOM     12  O   UNL     1      20.140   0.745  51.446  0.00  0.00    +0.000 OA
ATOM     13  C   UNL     1      19.080   1.430  50.718  0.00  0.00    +0.000 C 
ATOM     14  C   UNL     1      18.099   0.368  50.198  0.00  0.00    +0.000 C 
ATOM     15  C   UNL     1      18.337   2.357  51.687  0.00  0.00    +0.000 C 
ATOM     16  C   UNL     1      19.541   2.258  49.552  0.00  0.00    +0.000 C 
ATOM     17  C   UNL     1      20.789   2.669  49.402  0.00  0.00    +0.000 C 
ATOM     18  O   UNL     1      23.293   3.966  49.685  0.00  0.00    +0.000 OA
ATOM     19  C   UNL     1      24.452   4.765  50.038  0.00  0.00    +0.000 C 
ATOM     20  C   UNL     1      23.938   5.917  50.932  0.00  0.00    +0.000 C 
ATOM     21  C   UNL     1      24.970   5.386  48.734  0.00  0.00    +0.000 C 
ATOM     22  C   UNL     1      25.621   3.982  50.710  0.00  0.00    +0.000 C 
ATOM     23  C   UNL     1      26.381   3.011  49.778  0.00  0.00    +0.000 C 
ATOM     24  C   UNL     1      25.086   3.154  51.850  0.00  0.00    +0.000 C 
ENDROOT
BRANCH  24  25
ATOM     25  O   UNL     1      24.561   3.924  52.928  0.00  0.00    +0.000 OA
ATOM     26  H   UNL     1      24.370   3.341  53.679  0.00  0.00    +0.000 HD
ENDBRANCH  24  25
BRANCH   1  27
ATOM     27  C   UNL     1      21.228  -0.284  54.268  0.00  0.00    +0.000 C 
BRANCH  27  29
ATOM     28  C   UNL     1      19.069  -1.557  53.631  0.00  0.00    +0.000 C 
ATOM     29  C   UNL     1      20.544  -1.629  54.024  0.00  0.00    +0.000 C 
ENDBRANCH  27  29
ENDBRANCH   1  27
TORSDOF 3
ENDMDL
MODEL 3
REMARK VINA RESULT:    -7.722      2.001      7.053
REMARK INTER + INTRA:          -9.206
REMARK INTER:                  -8.834
REMARK INTRA:                  -0.373
REMARK UNBOUND:                -0.356
REMARK  Name = 
REMARK  9 active torsions:
REMARK  status: ('A' for Active; 'I' for Inactive)
REMARK    1  A    between atoms: C_1  and  C_2
REMARK    2  A    between atoms: C_2  and  C_3
REMARK    3  A    between atoms: C_3  and  C_4
REMARK    4  A    between atoms: C_16  and  C_17
REMARK    5  A    between atoms: C_16  and  C_18
REMARK    6  A    between atoms: C_22  and  C_23
REMARK    7  A    between atoms: C_22  and  C_24
REMARK    8  A    between atoms: C_25  and  C_26
REMARK    9  A    between atoms: C_27  and  O_28
REMARK                            x       y       z     vdW  Elec       q    Type
REMARK                         _______ _______ _______ _____ _____    ______ ____
ROOT
ATOM      1  C   UNL     1      25.102   1.982  52.237  0.00  0.00    +0.000 A 
ATOM      2  C   UNL     1      25.967   2.821  51.618  0.00  0.00    +0.000 A 
ATOM      3  C   UNL     1      25.848   3.230  50.226  0.00  0.00    +0.000 A 
ATOM      4  O   UNL     1      26.661   3.976  49.687  0.00  0.00    +0.000 OA
ATOM      5  O   UNL     1      24.813   2.673  49.552  0.00  0.00    +0.000 OA
ATOM      6  C   UNL     1      23.727   2.369  50.364  0.00  0.00    +0.000 A 
ATOM      7  C   UNL     1      22.542   2.950  49.996  0.00  0.00    +0.000 A 
ATOM      8  C   UNL     1      21.367   2.315  50.320  0.00  0.00    +0.000 A 
ATOM      9  C   UNL     1      21.422   1.263  51.247  0.00  0.00    +0.000 A 
ATOM     10  C   UNL     1      22.629   1.020  51.968  0.00  0.00    +0.000 A 
ATOM     11  C   UNL     1      23.824   1.651  51.542  0.00  0.00    +0.000 A 
ATOM     12  O   UNL     1      22.649   0.154  53.043  0.00  0.00    +0.000 OA
ATOM     13  C   UNL     1      21.383  -0.366  53.544  0.00  0.00    +0.000 C 
ATOM     14  C   UNL     1      21.603  -1.828  53.960  0.00  0.00    +0.000 C 
ATOM     15  C   UNL     1      20.975   0.443  54.782  0.00  0.00    +0.000 C 
ATOM     16  C   UNL     1      20.244  -0.318  52.567  0.00  0.00    +0.000 C 
ATOM     17  C   UNL     1      20.237   0.459  51.497  0.00  0.00    +0.000 C 
ATOM     18  O   UNL     1      20.184   2.669  49.724  0.00  0.00    +0.000 OA
ATOM     19  C   UNL     1      20.131   3.952  49.047  0.00  0.00    +0.000 C 
ATOM     20  C   UNL     1      19.579   4.969  50.071  0.00  0.00    +0.000 C 
ATOM     21  C   UNL     1      19.091   3.813  47.926  0.00  0.00    +0.000 C 
ATOM     22  C   UNL     1      21.475   4.429  48.416  0.00  0.00    +0.000 C 
ATOM     23  C   UNL     1      21.943   3.623  47.183  0.00  0.00    +0.000 C 
ATOM     24  C   UNL     1      22.576   4.330  49.439  0.00  0.00    +0.000 C 
ENDROOT
BRANCH  24  25
ATOM     25  O   UNL     1      22.418   5.211  50.548  0.00  0.00    +0.000 OA
ATOM     26  H   UNL     1      23.271   5.623  50.758  0.00  0.00    +0.000 HD
ENDBRANCH  24  25
BRANCH   1  27
ATOM     27  C   UNL     1      25.351   1.729  53.693  0.00  0.00    +0.000 C 
BRANCH  27  29
ATOM     28  C   UNL     1      26.098  -0.703  53.231  0.00  0.00    +0.000 C 
ATOM     29  C   UNL     1      26.344   0.604  53.984  0.00  0.00    +0.000 C 
ENDBRANCH  27  29
ENDBRANCH   1  27
TORSDOF 3
ENDMDL
MODEL 4
REMARK VINA RESULT:    -7.672      1.766      6.285
REMARK INTER + INTRA:          -9.150
REMARK INTER:                  -8.865
REMARK INTRA:                  -0.285
REMARK UNBOUND:                -0.356
REMARK  Name = 
REMARK  9 active torsions:
REMARK  status: ('A' for Active; 'I' for Inactive)
REMARK    1  A    between atoms: C_1  and  C_2
REMARK    2  A    between atoms: C_2  and  C_3
REMARK    3  A    between atoms: C_3  and  C_4
REMARK    4  A    between atoms: C_16  and  C_17
REMARK    5  A    between atoms: C_16  and  C_18
REMARK    6  A    between atoms: C_22  and  C_23
REMARK    7  A    between atoms: C_22  and  C_24
REMARK    8  A    between atoms: C_25  and  C_26
REMARK    9  A    between atoms: C_27  and  O_28
REMARK                            x       y       z     vdW  Elec       q    Type
REMARK                         _______ _______ _______ _____ _____    ______ ____
ROOT
ATOM      1  C   UNL     1      24.381   3.428  50.180  0.00  0.00    +0.000 A 
ATOM      2  C   UNL     1      23.435   4.096  49.476  0.00  0.00    +0.000 A 
ATOM      3  C   UNL     1      22.154   3.524  49.090  0.00  0.00    +0.000 A 
ATOM      4  O   UNL     1      21.325   4.149  48.433  0.00  0.00    +0.000 OA
ATOM      5  O   UNL     1      21.971   2.231  49.450  0.00  0.00    +0.000 OA
ATOM      6  C   UNL     1      22.657   1.879  50.607  0.00  0.00    +0.000 A 
ATOM      7  C   UNL     1      21.879   1.381  51.618  0.00  0.00    +0.000 A 
ATOM      8  C   UNL     1      22.444   0.505  52.515  0.00  0.00    +0.000 A 
ATOM      9  C   UNL     1      23.842   0.385  52.524  0.00  0.00    +0.000 A 
ATOM     10  C   UNL     1      24.635   1.301  51.769  0.00  0.00    +0.000 A 
ATOM     11  C   UNL     1      24.002   2.129  50.809  0.00  0.00    +0.000 A 
ATOM     12  O   UNL     1      26.003   1.358  51.939  0.00  0.00    +0.000 OA
ATOM     13  C   UNL     1      26.605   0.602  53.029  0.00  0.00    +0.000 C 
ATOM     14  C   UNL     1      27.945   0.037  52.533  0.00  0.00    +0.000 C 
ATOM     15  C   UNL     1      26.874   1.556  54.199  0.00  0.00    +0.000 C 
ATOM     16  C   UNL     1      25.774  -0.538  53.547  0.00  0.00    +0.000 C 
ATOM     17  C   UNL     1      24.473  -0.641  53.338  0.00  0.00    +0.000 C 
ATOM     18  O   UNL     1      21.664  -0.258  53.344  0.00  0.00    +0.000 OA
ATOM     19  C   UNL     1      20.282   0.143  53.525  0.00  0.00    +0.000 C 
ATOM     20  C   UNL     1      20.241   1.031  54.789  0.00  0.00    +0.000 C 
ATOM     21  C   UNL     1      19.490  -1.136  53.831  0.00  0.00    +0.000 C 
ATOM     22  C   UNL     1      19.626   0.846  52.296  0.00  0.00    +0.000 C 
ATOM     23  C   UNL     1      19.364  -0.071  51.079  0.00  0.00    +0.000 C 
ATOM     24  C   UNL     1      20.521   1.958  51.813  0.00  0.00    +0.000 C 
ENDROOT
BRANCH  24  25
ATOM     25  O   UNL     1      20.672   3.026  52.744  0.00  0.00    +0.000 OA
ATOM     26  H   UNL     1      20.165   3.794  52.440  0.00  0.00    +0.000 HD
ENDBRANCH  24  25
BRANCH   1  27
ATOM     27  C   UNL     1      25.610   4.204  50.541  0.00  0.00    +0.000 C 
BRANCH  27  29
ATOM     28  C   UNL     1      27.206   5.113  48.721  0.00  0.00    +0.000 C 
ATOM     29  C   UNL     1      26.813   3.952  49.634  0.00  0.00    +0.000 C 
ENDBRANCH  27  29
ENDBRANCH   1  27
TORSDOF 3
ENDMDL
MODEL 5
REMARK VINA RESULT:    -7.521      1.516      4.671
REMARK INTER + INTRA:          -8.976
REMARK INTER:                  -8.598
REMARK INTRA:                  -0.378
REMARK UNBOUND:                -0.356
REMARK  Name = 
REMARK  9 active torsions:
REMARK  status: ('A' for Active; 'I' for Inactive)
REMARK    1  A    between atoms: C_1  and  C_2
REMARK    2  A    between atoms: C_2  and  C_3
REMARK    3  A    between atoms: C_3  and  C_4
REMARK    4  A    between atoms: C_16  and  C_17
REMARK    5  A    between atoms: C_16  and  C_18
REMARK    6  A    between atoms: C_22  and  C_23
REMARK    7  A    between atoms: C_22  and  C_24
REMARK    8  A    between atoms: C_25  and  C_26
REMARK    9  A    between atoms: C_27  and  O_28
REMARK                            x       y       z     vdW  Elec       q    Type
REMARK                         _______ _______ _______ _____ _____    ______ ____
ROOT
ATOM      1  C   UNL     1      22.723   1.919  50.507  0.00  0.00    +0.000 A 
ATOM      2  C   UNL     1      23.437   2.734  49.692  0.00  0.00    +0.000 A 
ATOM      3  C   UNL     1      24.622   3.467  50.111  0.00  0.00    +0.000 A 
ATOM      4  O   UNL     1      25.235   4.215  49.354  0.00  0.00    +0.000 OA
ATOM      5  O   UNL     1      24.958   3.316  51.414  0.00  0.00    +0.000 OA
ATOM      6  C   UNL     1      24.585   2.085  51.940  0.00  0.00    +0.000 A 
ATOM      7  C   UNL     1      25.607   1.344  52.474  0.00  0.00    +0.000 A 
ATOM      8  C   UNL     1      25.320   0.454  53.482  0.00  0.00    +0.000 A 
ATOM      9  C   UNL     1      23.973   0.142  53.719  0.00  0.00    +0.000 A 
ATOM     10  C   UNL     1      22.973   0.582  52.800  0.00  0.00    +0.000 A 
ATOM     11  C   UNL     1      23.313   1.554  51.827  0.00  0.00    +0.000 A 
ATOM     12  O   UNL     1      21.682   0.100  52.876  0.00  0.00    +0.000 OA
ATOM     13  C   UNL     1      21.399  -0.999  53.790  0.00  0.00    +0.000 C 
ATOM     14  C   UNL     1      20.014  -0.756  54.410  0.00  0.00    +0.000 C 
ATOM     15  C   UNL     1      21.357  -2.306  52.988  0.00  0.00    +0.000 C 
ATOM     16  C   UNL     1      22.392  -1.174  54.903  0.00  0.00    +0.000 C 
ATOM     17  C   UNL     1      23.612  -0.664  54.874  0.00  0.00    +0.000 C 
ATOM     18  O   UNL     1      26.316  -0.078  54.259  0.00  0.00    +0.000 OA
ATOM     19  C   UNL     1      27.677   0.013  53.763  0.00  0.00    +0.000 C 
ATOM     20  C   UNL     1      27.962  -1.306  53.011  0.00  0.00    +0.000 C 
ATOM     21  C   UNL     1      28.590   0.050  54.996  0.00  0.00    +0.000 C 
ATOM     22  C   UNL     1      27.983   1.265  52.884  0.00  0.00    +0.000 C 
ATOM     23  C   UNL     1      28.004   2.610  53.645  0.00  0.00    +0.000 C 
ATOM     24  C   UNL     1      26.937   1.394  51.808  0.00  0.00    +0.000 C 
ENDROOT
BRANCH  24  25
ATOM     25  O   UNL     1      26.947   0.332  50.859  0.00  0.00    +0.000 OA
ATOM     26  H   UNL     1      27.704  -0.249  51.032  0.00  0.00    +0.000 HD
ENDBRANCH  24  25
BRANCH   1  27
ATOM     27  C   UNL     1      21.571   1.198  49.878  0.00  0.00    +0.000 C 
BRANCH  27  29
ATOM     28  C   UNL     1      19.134   0.795  50.646  0.00  0.00    +0.000 C 
ATOM     29  C   UNL     1      20.199   1.793  50.190  0.00  0.00    +0.000 C 
ENDBRANCH  27  29
ENDBRANCH   1  27
TORSDOF 3
ENDMDL
MODEL 6
REMARK VINA RESULT:    -7.425      2.627      6.140
REMARK INTER + INTRA:          -8.866
REMARK INTER:                  -8.673
REMARK INTRA:                  -0.194
REMARK UNBOUND:                -0.356
REMARK  Name = 
REMARK  9 active torsions:
REMARK  status: ('A' for Active; 'I' for Inactive)
REMARK    1  A    between atoms: C_1  and  C_2
REMARK    2  A    between atoms: C_2  and  C_3
REMARK    3  A    between atoms: C_3  and  C_4
REMARK    4  A    between atoms: C_16  and  C_17
REMARK    5  A    between atoms: C_16  and  C_18
REMARK    6  A    between atoms: C_22  and  C_23
REMARK    7  A    between atoms: C_22  and  C_24
REMARK    8  A    between atoms: C_25  and  C_26
REMARK    9  A    between atoms: C_27  and  O_28
REMARK                            x       y       z     vdW  Elec       q    Type
REMARK                         _______ _______ _______ _____ _____    ______ ____
ROOT
ATOM      1  C   UNL     1      22.905   1.342  52.701  0.00  0.00    +0.000 A 
ATOM      2  C   UNL     1      24.163   1.521  53.174  0.00  0.00    +0.000 A 
ATOM      3  C   UNL     1      25.222   2.188  52.433  0.00  0.00    +0.000 A 
ATOM      4  O   UNL     1      26.359   2.316  52.881  0.00  0.00    +0.000 OA
ATOM      5  O   UNL     1      24.881   2.597  51.187  0.00  0.00    +0.000 OA
ATOM      6  C   UNL     1      23.533   2.912  51.061  0.00  0.00    +0.000 A 
ATOM      7  C   UNL     1      23.269   4.185  50.627  0.00  0.00    +0.000 A 
ATOM      8  C   UNL     1      22.103   4.418  49.938  0.00  0.00    +0.000 A 
ATOM      9  C   UNL     1      21.116   3.421  49.959  0.00  0.00    +0.000 A 
ATOM     10  C   UNL     1      21.257   2.307  50.839  0.00  0.00    +0.000 A 
ATOM     11  C   UNL     1      22.507   2.078  51.466  0.00  0.00    +0.000 A 
ATOM     12  O   UNL     1      20.206   1.437  51.053  0.00  0.00    +0.000 OA
ATOM     13  C   UNL     1      18.897   1.777  50.511  0.00  0.00    +0.000 C 
ATOM     14  C   UNL     1      18.236   0.480  50.020  0.00  0.00    +0.000 C 
ATOM     15  C   UNL     1      18.040   2.374  51.634  0.00  0.00    +0.000 C 
ATOM     16  C   UNL     1      18.914   2.758  49.374  0.00  0.00    +0.000 C 
ATOM     17  C   UNL     1      19.939   3.554  49.117  0.00  0.00    +0.000 C 
ATOM     18  O   UNL     1      21.926   5.572  49.219  0.00  0.00    +0.000 OA
ATOM     19  C   UNL     1      22.814   6.684  49.503  0.00  0.00    +0.000 C 
ATOM     20  C   UNL     1      22.092   7.571  50.542  0.00  0.00    +0.000 C 
ATOM     21  C   UNL     1      22.931   7.494  48.204  0.00  0.00    +0.000 C 
ATOM     22  C   UNL     1      24.249   6.289  49.968  0.00  0.00    +0.000 C 
ATOM     23  C   UNL     1      25.141   5.654  48.877  0.00  0.00    +0.000 C 
ATOM     24  C   UNL     1      24.158   5.285  51.089  0.00  0.00    +0.000 C 
ENDROOT
BRANCH  24  25
ATOM     25  O   UNL     1      23.570   5.799  52.280  0.00  0.00    +0.000 OA
ATOM     26  H   UNL     1      23.090   5.090  52.736  0.00  0.00    +0.000 HD
ENDBRANCH  24  25
BRANCH   1  27
ATOM     27  C   UNL     1      21.932   0.691  53.636  0.00  0.00    +0.000 C 
BRANCH  27  29
ATOM     28  C   UNL     1      21.400  -1.750  54.306  0.00  0.00    +0.000 C 
ATOM     29  C   UNL     1      22.423  -0.615  54.259  0.00  0.00    +0.000 C 
ENDBRANCH  27  29
ENDBRANCH   1  27
TORSDOF 3
ENDMDL
MODEL 7
REMARK VINA RESULT:    -7.341      1.724      2.167
REMARK INTER + INTRA:          -8.770
REMARK INTER:                  -8.392
REMARK INTRA:                  -0.378
REMARK UNBOUND:                -0.356
REMARK  Name = 
REMARK  9 active torsions:
REMARK  status: ('A' for Active; 'I' for Inactive)
REMARK    1  A    between atoms: C_1  and  C_2
REMARK    2  A    between atoms: C_2  and  C_3
REMARK    3  A    between atoms: C_3  and  C_4
REMARK    4  A    between atoms: C_16  and  C_17
REMARK    5  A    between atoms: C_16  and  C_18
REMARK    6  A    between atoms: C_22  and  C_23
REMARK    7  A    between atoms: C_22  and  C_24
REMARK    8  A    between atoms: C_25  and  C_26
REMARK    9  A    between atoms: C_27  and  O_28
REMARK                            x       y       z     vdW  Elec       q    Type
REMARK                         _______ _______ _______ _____ _____    ______ ____
ROOT
ATOM      1  C   UNL     1      21.928   3.415  51.524  0.00  0.00    +0.000 A 
ATOM      2  C   UNL     1      21.265   2.518  52.293  0.00  0.00    +0.000 A 
ATOM      3  C   UNL     1      21.713   1.151  52.517  0.00  0.00    +0.000 A 
ATOM      4  O   UNL     1      21.078   0.354  53.203  0.00  0.00    +0.000 OA
ATOM      5  O   UNL     1      22.845   0.804  51.858  0.00  0.00    +0.000 OA
ATOM      6  C   UNL     1      23.705   1.873  51.640  0.00  0.00    +0.000 A 
ATOM      7  C   UNL     1      24.969   1.718  52.146  0.00  0.00    +0.000 A 
ATOM      8  C   UNL     1      26.010   2.377  51.535  0.00  0.00    +0.000 A 
ATOM      9  C   UNL     1      25.697   3.386  50.612  0.00  0.00    +0.000 A 
ATOM     10  C   UNL     1      24.349   3.836  50.488  0.00  0.00    +0.000 A 
ATOM     11  C   UNL     1      23.312   3.076  51.082  0.00  0.00    +0.000 A 
ATOM     12  O   UNL     1      24.047   4.975  49.768  0.00  0.00    +0.000 OA
ATOM     13  C   UNL     1      25.141   5.812  49.293  0.00  0.00    +0.000 C 
ATOM     14  C   UNL     1      24.764   6.341  47.900  0.00  0.00    +0.000 C 
ATOM     15  C   UNL     1      25.300   7.003  50.246  0.00  0.00    +0.000 C 
ATOM     16  C   UNL     1      26.472   5.122  49.192  0.00  0.00    +0.000 C 
ATOM     17  C   UNL     1      26.756   3.996  49.824  0.00  0.00    +0.000 C 
ATOM     18  O   UNL     1      27.311   2.028  51.787  0.00  0.00    +0.000 OA
ATOM     19  C   UNL     1      27.577   1.231  52.970  0.00  0.00    +0.000 C 
ATOM     20  C   UNL     1      27.933   2.224  54.100  0.00  0.00    +0.000 C 
ATOM     21  C   UNL     1      28.834   0.403  52.667  0.00  0.00    +0.000 C 
ATOM     22  C   UNL     1      26.433   0.257  53.388  0.00  0.00    +0.000 C 
ATOM     23  C   UNL     1      26.215  -0.943  52.439  0.00  0.00    +0.000 C 
ATOM     24  C   UNL     1      25.127   1.006  53.443  0.00  0.00    +0.000 C 
ENDROOT
BRANCH  24  25
ATOM     25  O   UNL     1      25.074   2.006  54.456  0.00  0.00    +0.000 OA
ATOM     26  H   UNL     1      25.916   2.023  54.938  0.00  0.00    +0.000 HD
ENDBRANCH  24  25
BRANCH   1  27
ATOM     27  C   UNL     1      21.346   4.795  51.465  0.00  0.00    +0.000 C 
BRANCH  27  29
ATOM     28  C   UNL     1      20.856   6.399  49.498  0.00  0.00    +0.000 C 
ATOM     29  C   UNL     1      20.525   5.088  50.211  0.00  0.00    +0.000 C 
ENDBRANCH  27  29
ENDBRANCH   1  27
TORSDOF 3
ENDMDL
MODEL 8
REMARK VINA RESULT:    -7.312      3.137      6.229
REMARK INTER + INTRA:          -8.736
REMARK INTER:                  -8.508
REMARK INTRA:                  -0.229
REMARK UNBOUND:                -0.356
REMARK  Name = 
REMARK  9 active torsions:
REMARK  status: ('A' for Active; 'I' for Inactive)
REMARK    1  A    between atoms: C_1  and  C_2
REMARK    2  A    between atoms: C_2  and  C_3
REMARK    3  A    between atoms: C_3  and  C_4
REMARK    4  A    between atoms: C_16  and  C_17
REMARK    5  A    between atoms: C_16  and  C_18
REMARK    6  A    between atoms: C_22  and  C_23
REMARK    7  A    between atoms: C_22  and  C_24
REMARK    8  A    between atoms: C_25  and  C_26
REMARK    9  A    between atoms: C_27  and  O_28
REMARK                            x       y       z     vdW  Elec       q    Type
REMARK                         _______ _______ _______ _____ _____    ______ ____
ROOT
ATOM      1  C   UNL     1      23.563   2.534  50.735  0.00  0.00    +0.000 A 
ATOM      2  C   UNL     1      24.685   2.330  51.467  0.00  0.00    +0.000 A 
ATOM      3  C   UNL     1      26.017   2.736  51.045  0.00  0.00    +0.000 A 
ATOM      4  O   UNL     1      27.018   2.518  51.722  0.00  0.00    +0.000 OA
ATOM      5  O   UNL     1      26.079   3.312  49.820  0.00  0.00    +0.000 OA
ATOM      6  C   UNL     1      24.917   3.990  49.471  0.00  0.00    +0.000 A 
ATOM      7  C   UNL     1      25.084   5.314  49.162  0.00  0.00    +0.000 A 
ATOM      8  C   UNL     1      24.199   5.905  48.291  0.00  0.00    +0.000 A 
ATOM      9  C   UNL     1      23.017   5.214  47.985  0.00  0.00    +0.000 A 
ATOM     10  C   UNL     1      22.673   4.042  48.724  0.00  0.00    +0.000 A 
ATOM     11  C   UNL     1      23.651   3.439  49.552  0.00  0.00    +0.000 A 
ATOM     12  O   UNL     1      21.418   3.478  48.610  0.00  0.00    +0.000 OA
ATOM     13  C   UNL     1      20.392   4.199  47.867  0.00  0.00    +0.000 C 
ATOM     14  C   UNL     1      19.557   3.169  47.090  0.00  0.00    +0.000 C 
ATOM     15  C   UNL     1      19.480   4.922  48.865  0.00  0.00    +0.000 C 
ATOM     16  C   UNL     1      20.910   5.218  46.893  0.00  0.00    +0.000 C 
ATOM     17  C   UNL     1      22.131   5.722  46.950  0.00  0.00    +0.000 C 
ATOM     18  O   UNL     1      24.483   7.112  47.707  0.00  0.00    +0.000 OA
ATOM     19  C   UNL     1      25.531   7.918  48.304  0.00  0.00    +0.000 C 
ATOM     20  C   UNL     1      24.838   8.889  49.285  0.00  0.00    +0.000 C 
ATOM     21  C   UNL     1      26.137   8.758  47.170  0.00  0.00    +0.000 C 
ATOM     22  C   UNL     1      26.680   7.116  48.989  0.00  0.00    +0.000 C 
ATOM     23  C   UNL     1      27.608   6.344  48.024  0.00  0.00    +0.000 C 
ATOM     24  C   UNL     1      26.091   6.096  49.930  0.00  0.00    +0.000 C 
ENDROOT
BRANCH  24  25
ATOM     25  O   UNL     1      25.396   6.662  51.037  0.00  0.00    +0.000 OA
ATOM     26  H   UNL     1      24.950   7.476  50.757  0.00  0.00    +0.000 HD
ENDBRANCH  24  25
BRANCH   1  27
ATOM     27  C   UNL     1      22.274   2.105  51.365  0.00  0.00    +0.000 C 
BRANCH  27  29
ATOM     28  C   UNL     1      20.525   0.213  51.589  0.00  0.00    +0.000 C 
ATOM     29  C   UNL     1      21.684   0.816  50.795  0.00  0.00    +0.000 C 
ENDBRANCH  27  29
ENDBRANCH   1  27
TORSDOF 3
ENDMDL
MODEL 9
REMARK VINA RESULT:    -7.204      2.718      8.106
REMARK INTER + INTRA:          -8.613
REMARK INTER:                  -8.237
REMARK INTRA:                  -0.376
REMARK UNBOUND:                -0.356
REMARK  Name = 
REMARK  9 active torsions:
REMARK  status: ('A' for Active; 'I' for Inactive)
REMARK    1  A    between atoms: C_1  and  C_2
REMARK    2  A    between atoms: C_2  and  C_3
REMARK    3  A    between atoms: C_3  and  C_4
REMARK    4  A    between atoms: C_16  and  C_17
REMARK    5  A    between atoms: C_16  and  C_18
REMARK    6  A    between atoms: C_22  and  C_23
REMARK    7  A    between atoms: C_22  and  C_24
REMARK    8  A    between atoms: C_25  and  C_26
REMARK    9  A    between atoms: C_27  and  O_28
REMARK                            x       y       z     vdW  Elec       q    Type
REMARK                         _______ _______ _______ _____ _____    ______ ____
ROOT
ATOM      1  C   UNL     1      23.277   2.084  50.981  0.00  0.00    +0.000 A 
ATOM      2  C   UNL     1      23.630   2.998  50.045  0.00  0.00    +0.000 A 
ATOM      3  C   UNL     1      22.843   3.289  48.856  0.00  0.00    +0.000 A 
ATOM      4  O   UNL     1      23.200   4.109  48.014  0.00  0.00    +0.000 OA
ATOM      5  O   UNL     1      21.722   2.541  48.714  0.00  0.00    +0.000 OA
ATOM      6  C   UNL     1      21.173   2.136  49.924  0.00  0.00    +0.000 A 
ATOM      7  C   UNL     1      19.870   2.510  50.129  0.00  0.00    +0.000 A 
ATOM      8  C   UNL     1      19.080   1.731  50.941  0.00  0.00    +0.000 A 
ATOM      9  C   UNL     1      19.710   0.764  51.739  0.00  0.00    +0.000 A 
ATOM     10  C   UNL     1      21.133   0.752  51.842  0.00  0.00    +0.000 A 
ATOM     11  C   UNL     1      21.896   1.522  50.930  0.00  0.00    +0.000 A 
ATOM     12  O   UNL     1      21.767  -0.026  52.790  0.00  0.00    +0.000 OA
ATOM     13  C   UNL     1      20.957  -0.692  53.802  0.00  0.00    +0.000 C 
ATOM     14  C   UNL     1      21.572  -2.075  54.068  0.00  0.00    +0.000 C 
ATOM     15  C   UNL     1      21.013   0.130  55.096  0.00  0.00    +0.000 C 
ATOM     16  C   UNL     1      19.512  -0.880  53.439  0.00  0.00    +0.000 C 
ATOM     17  C   UNL     1      18.906  -0.187  52.489  0.00  0.00    +0.000 C 
ATOM     18  O   UNL     1      17.716   1.866  50.939  0.00  0.00    +0.000 OA
ATOM     19  C   UNL     1      17.161   3.077  50.364  0.00  0.00    +0.000 C 
ATOM     20  C   UNL     1      16.963   4.069  51.533  0.00  0.00    +0.000 C 
ATOM     21  C   UNL     1      15.771   2.710  49.827  0.00  0.00    +0.000 C 
ATOM     22  C   UNL     1      17.990   3.703  49.201  0.00  0.00    +0.000 C 
ATOM     23  C   UNL     1      17.989   2.893  47.885  0.00  0.00    +0.000 C 
ATOM     24  C   UNL     1      19.430   3.838  49.623  0.00  0.00    +0.000 C 
ENDROOT
BRANCH  24  25
ATOM     25  O   UNL     1      19.638   4.759  50.690  0.00  0.00    +0.000 OA
ATOM     26  H   UNL     1      19.827   4.271  51.506  0.00  0.00    +0.000 HD
ENDBRANCH  24  25
BRANCH   1  27
ATOM     27  C   UNL     1      24.182   1.971  52.170  0.00  0.00    +0.000 C 
BRANCH  27  29
ATOM     28  C   UNL     1      25.129  -0.090  53.412  0.00  0.00    +0.000 C 
ATOM     29  C   UNL     1      25.119   0.764  52.145  0.00  0.00    +0.000 C 
ENDBRANCH  27  29
ENDBRANCH   1  27
TORSDOF 3
ENDMDL
