MODEL 1
REMARK VINA RESULT:    -7.702      0.000      0.000
REMARK INTER + INTRA:         -12.377
REMARK INTER:                 -10.854
REMARK INTRA:                  -1.523
REMARK UNBOUND:                -1.523
REMARK  Name = 
REMARK  8 active torsions:
REMARK  status: ('A' for Active; 'I' for Inactive)
REMARK    1  A    between atoms: C_1  and  C_2
REMARK    2  A    between atoms: C_2  and  N_3
REMARK    3  A    between atoms: N_3  and  C_4
REMARK    4  A    between atoms: C_4  and  C_5
REMARK    5  A    between atoms: N_8  and  C_9
REMARK    6  A    between atoms: C_16  and  C_17
REMARK    7  A    between atoms: N_21  and  C_22
REMARK    8  A    between atoms: C_22  and  C_23
REMARK                            x       y       z     vdW  Elec       q    Type
REMARK                         _______ _______ _______ _____ _____    ______ ____
ROOT
ATOM      1  C   UNL     1      22.050   2.812  51.289  0.00  0.00    +0.000 A 
ATOM      2  C   UNL     1      23.189   3.621  51.213  0.00  0.00    +0.000 A 
ATOM      3  F   UNL     1      23.111   4.881  50.762  0.00  0.00    +0.000 F 
ATOM      4  C   UNL     1      24.436   3.176  51.632  0.00  0.00    +0.000 A 
ATOM      5  C   UNL     1      24.573   1.890  52.173  0.00  0.00    +0.000 A 
ATOM      6  C   UNL     1      25.925   1.435  52.581  0.00  0.00    +0.000 A 
ATOM      7  O   UNL     1      26.868   2.211  52.488  0.00  0.00    +0.000 OA
ATOM      8  C   UNL     1      26.040   0.081  53.171  0.00  0.00    +0.000 A 
ATOM      9  C   UNL     1      24.908  -0.629  53.306  0.00  0.00    +0.000 A 
ATOM     10  N   UNL     1      23.627  -0.226  52.930  0.00  0.00    +0.000 N 
ATOM     11  C   UNL     1      23.463   1.035  52.314  0.00  0.00    +0.000 A 
ATOM     12  C   UNL     1      22.236   1.520  51.818  0.00  0.00    +0.000 A 
ATOM     13  F   UNL     1      21.177   0.697  51.764  0.00  0.00    +0.000 F 
ENDROOT
BRANCH   1  17
ATOM     14  C   UNL     1      18.645   2.807  49.935  0.00  0.00    +0.000 C 
ATOM     15  C   UNL     1      18.526   3.120  51.430  0.00  0.00    +0.000 C 
ATOM     16  C   UNL     1      19.822   3.842  51.743  0.00  0.00    +0.000 C 
ATOM     17  N   UNL     1      20.792   3.191  50.877  0.00  0.00    +0.000 N 
ATOM     18  C   UNL     1      20.143   2.508  49.750  0.00  0.00    +0.000 C 
BRANCH  14  19
ATOM     19  C   UNL     1      17.731   1.662  49.484  0.00  0.00    +0.000 C 
BRANCH  19  20
ATOM     20  N   UNL     1      18.247   0.359  49.911  0.00  0.00    +0.000 N 
ATOM     21  H   UNL     1      18.318  -0.253  49.099  0.00  0.00    +0.000 HD
ATOM     22  H   UNL     1      19.163   0.502  50.338  0.00  0.00    +0.000 HD
BRANCH  20  24
ATOM     23  C   UNL     1      18.151  -0.574  52.171  0.00  0.00    +0.000 C 
ATOM     24  C   UNL     1      17.370  -0.265  50.903  0.00  0.00    +0.000 C 
ENDBRANCH  20  24
ENDBRANCH  19  20
ENDBRANCH  14  19
ENDBRANCH   1  17
BRANCH   8  25
ATOM     25  C   UNL     1      27.298  -0.520  53.628  0.00  0.00    +0.000 C 
ATOM     26  O   UNL     1      27.970  -1.312  52.990  0.00  0.00    +0.000 OA
ATOM     27  O   UNL     1      27.749  -0.030  54.802  0.00  0.00    +0.000 OA
ENDBRANCH   8  25
BRANCH  10  28
ATOM     28  C   UNL     1      22.418  -1.054  53.204  0.00  0.00    +0.000 C 
BRANCH  28  29
ATOM     29  C   UNL     1      21.834  -0.936  54.621  0.00  0.00    +0.000 C 
ATOM     30  F   UNL     1      22.726  -1.214  55.595  0.00  0.00    +0.000 F 
ATOM     31  F   UNL     1      21.377   0.323  54.841  0.00  0.00    +0.000 F 
ATOM     32  F   UNL     1      20.777  -1.766  54.782  0.00  0.00    +0.000 F 
ENDBRANCH  28  29
ENDBRANCH  10  28
TORSDOF 7
ENDMDL
MODEL 2
REMARK VINA RESULT:    -7.615      3.910      6.291
REMARK INTER + INTRA:         -12.255
REMARK INTER:                 -10.965
REMARK INTRA:                  -1.290
REMARK UNBOUND:                -1.523
REMARK  Name = 
REMARK  8 active torsions:
REMARK  status: ('A' for Active; 'I' for Inactive)
REMARK    1  A    between atoms: C_1  and  C_2
REMARK    2  A    between atoms: C_2  and  N_3
REMARK    3  A    between atoms: N_3  and  C_4
REMARK    4  A    between atoms: C_4  and  C_5
REMARK    5  A    between atoms: N_8  and  C_9
REMARK    6  A    between atoms: C_16  and  C_17
REMARK    7  A    between atoms: N_21  and  C_22
REMARK    8  A    between atoms: C_22  and  C_23
REMARK                            x       y       z     vdW  Elec       q    Type
REMARK                         _______ _______ _______ _____ _____    ______ ____
ROOT
ATOM      1  C   UNL     1      22.793   4.271  51.021  0.00  0.00    +0.000 A 
ATOM      2  C   UNL     1      21.466   4.043  51.401  0.00  0.00    +0.000 A 
ATOM      3  F   UNL     1      20.484   4.863  51.001  0.00  0.00    +0.000 F 
ATOM      4  C   UNL     1      21.100   2.947  52.170  0.00  0.00    +0.000 A 
ATOM      5  C   UNL     1      22.071   2.018  52.568  0.00  0.00    +0.000 A 
ATOM      6  C   UNL     1      21.650   0.875  53.417  0.00  0.00    +0.000 A 
ATOM      7  O   UNL     1      20.465   0.745  53.697  0.00  0.00    +0.000 OA
ATOM      8  C   UNL     1      22.690  -0.107  53.804  0.00  0.00    +0.000 A 
ATOM      9  C   UNL     1      23.935   0.103  53.346  0.00  0.00    +0.000 A 
ATOM     10  N   UNL     1      24.356   1.168  52.550  0.00  0.00    +0.000 N 
ATOM     11  C   UNL     1      23.419   2.163  52.191  0.00  0.00    +0.000 A 
ATOM     12  C   UNL     1      23.740   3.325  51.461  0.00  0.00    +0.000 A 
ATOM     13  F   UNL     1      25.028   3.615  51.215  0.00  0.00    +0.000 F 
ENDROOT
BRANCH   1  17
ATOM     14  C   UNL     1      24.698   7.128  49.739  0.00  0.00    +0.000 C 
ATOM     15  C   UNL     1      24.775   6.030  48.673  0.00  0.00    +0.000 C 
ATOM     16  C   UNL     1      23.466   5.284  48.841  0.00  0.00    +0.000 C 
ATOM     17  N   UNL     1      23.220   5.346  50.273  0.00  0.00    +0.000 N 
ATOM     18  C   UNL     1      23.964   6.442  50.906  0.00  0.00    +0.000 C 
BRANCH  14  19
ATOM     19  C   UNL     1      26.070   7.691  50.125  0.00  0.00    +0.000 C 
BRANCH  19  20
ATOM     20  N   UNL     1      27.159   6.936  49.500  0.00  0.00    +0.000 N 
ATOM     21  H   UNL     1      27.788   6.597  50.227  0.00  0.00    +0.000 HD
ATOM     22  H   UNL     1      26.751   6.156  48.981  0.00  0.00    +0.000 HD
BRANCH  20  24
ATOM     23  C   UNL     1      28.770   6.887  47.659  0.00  0.00    +0.000 C 
ATOM     24  C   UNL     1      27.917   7.765  48.562  0.00  0.00    +0.000 C 
ENDBRANCH  20  24
ENDBRANCH  19  20
ENDBRANCH  14  19
ENDBRANCH   1  17
BRANCH   8  25
ATOM     25  C   UNL     1      22.444  -1.290  54.635  0.00  0.00    +0.000 C 
ATOM     26  O   UNL     1      21.628  -2.161  54.392  0.00  0.00    +0.000 OA
ATOM     27  O   UNL     1      23.298  -1.423  55.672  0.00  0.00    +0.000 OA
ENDBRANCH   8  25
BRANCH  10  28
ATOM     28  C   UNL     1      25.746   1.264  52.017  0.00  0.00    +0.000 C 
BRANCH  28  29
ATOM     29  C   UNL     1      26.826   1.662  53.036  0.00  0.00    +0.000 C 
ATOM     30  F   UNL     1      27.830   2.387  52.500  0.00  0.00    +0.000 F 
ATOM     31  F   UNL     1      26.283   2.405  54.035  0.00  0.00    +0.000 F 
ATOM     32  F   UNL     1      27.372   0.569  53.618  0.00  0.00    +0.000 F 
ENDBRANCH  28  29
ENDBRANCH  10  28
TORSDOF 7
ENDMDL
MODEL 3
REMARK VINA RESULT:    -7.545      3.911      7.923
REMARK INTER + INTRA:         -12.156
REMARK INTER:                 -11.206
REMARK INTRA:                  -0.950
REMARK UNBOUND:                -1.523
REMARK  Name = 
REMARK  8 active torsions:
REMARK  status: ('A' for Active; 'I' for Inactive)
REMARK    1  A    between atoms: C_1  and  C_2
REMARK    2  A    between atoms: C_2  and  N_3
REMARK    3  A    between atoms: N_3  and  C_4
REMARK    4  A    between atoms: C_4  and  C_5
REMARK    5  A    between atoms: N_8  and  C_9
REMARK    6  A    between atoms: C_16  and  C_17
REMARK    7  A    between atoms: N_21  and  C_22
REMARK    8  A    between atoms: C_22  and  C_23
REMARK                            x       y       z     vdW  Elec       q    Type
REMARK                         _______ _______ _______ _____ _____    ______ ____
ROOT
ATOM      1  C   UNL     1      22.726   0.250  53.299  0.00  0.00    +0.000 A 
ATOM      2  C   UNL     1      21.821  -0.465  54.091  0.00  0.00    +0.000 A 
ATOM      3  F   UNL     1      22.200  -0.996  55.262  0.00  0.00    +0.000 F 
ATOM      4  C   UNL     1      20.492  -0.627  53.725  0.00  0.00    +0.000 A 
ATOM      5  C   UNL     1      20.018  -0.043  52.542  0.00  0.00    +0.000 A 
ATOM      6  C   UNL     1      18.599  -0.263  52.164  0.00  0.00    +0.000 A 
ATOM      7  O   UNL     1      17.872  -0.895  52.920  0.00  0.00    +0.000 OA
ATOM      8  C   UNL     1      18.115   0.384  50.922  0.00  0.00    +0.000 A 
ATOM      9  C   UNL     1      18.995   1.134  50.237  0.00  0.00    +0.000 A 
ATOM     10  N   UNL     1      20.331   1.355  50.568  0.00  0.00    +0.000 N 
ATOM     11  C   UNL     1      20.862   0.721  51.715  0.00  0.00    +0.000 A 
ATOM     12  C   UNL     1      22.213   0.800  52.108  0.00  0.00    +0.000 A 
ATOM     13  F   UNL     1      23.107   1.367  51.282  0.00  0.00    +0.000 F 
ENDROOT
BRANCH   1  17
ATOM     14  C   UNL     1      26.377  -0.045  53.411  0.00  0.00    +0.000 C 
ATOM     15  C   UNL     1      26.062   1.331  52.814  0.00  0.00    +0.000 C 
ATOM     16  C   UNL     1      24.747   1.706  53.469  0.00  0.00    +0.000 C 
ATOM     17  N   UNL     1      24.058   0.431  53.600  0.00  0.00    +0.000 N 
ATOM     18  C   UNL     1      24.992  -0.700  53.549  0.00  0.00    +0.000 C 
BRANCH  14  19
ATOM     19  C   UNL     1      27.358  -0.860  52.561  0.00  0.00    +0.000 C 
BRANCH  19  20
ATOM     20  N   UNL     1      27.931  -1.976  53.318  0.00  0.00    +0.000 N 
ATOM     21  H   UNL     1      27.594  -1.932  54.279  0.00  0.00    +0.000 HD
ATOM     22  H   UNL     1      27.642  -2.847  52.872  0.00  0.00    +0.000 HD
BRANCH  20  24
ATOM     23  C   UNL     1      29.869  -0.530  53.695  0.00  0.00    +0.000 C 
ATOM     24  C   UNL     1      29.394  -1.926  53.322  0.00  0.00    +0.000 C 
ENDBRANCH  20  24
ENDBRANCH  19  20
ENDBRANCH  14  19
ENDBRANCH   1  17
BRANCH   8  25
ATOM     25  C   UNL     1      16.746   0.271  50.408  0.00  0.00    +0.000 C 
ATOM     26  O   UNL     1      16.231  -0.756  50.004  0.00  0.00    +0.000 OA
ATOM     27  O   UNL     1      16.019   1.402  50.525  0.00  0.00    +0.000 OA
ENDBRANCH   8  25
BRANCH  10  28
ATOM     28  C   UNL     1      21.204   2.278  49.788  0.00  0.00    +0.000 C 
BRANCH  28  29
ATOM     29  C   UNL     1      21.653   1.768  48.409  0.00  0.00    +0.000 C 
ATOM     30  F   UNL     1      22.895   2.169  48.066  0.00  0.00    +0.000 F 
ATOM     31  F   UNL     1      21.646   0.411  48.382  0.00  0.00    +0.000 F 
ATOM     32  F   UNL     1      20.804   2.180  47.439  0.00  0.00    +0.000 F 
ENDBRANCH  28  29
ENDBRANCH  10  28
TORSDOF 7
ENDMDL
MODEL 4
REMARK VINA RESULT:    -7.389      3.593      7.133
REMARK INTER + INTRA:         -11.936
REMARK INTER:                 -10.631
REMARK INTRA:                  -1.305
REMARK UNBOUND:                -1.523
REMARK  Name = 
REMARK  8 active torsions:
REMARK  status: ('A' for Active; 'I' for Inactive)
REMARK    1  A    between atoms: C_1  and  C_2
REMARK    2  A    between atoms: C_2  and  N_3
REMARK    3  A    between atoms: N_3  and  C_4
REMARK    4  A    between atoms: C_4  and  C_5
REMARK    5  A    between atoms: N_8  and  C_9
REMARK    6  A    between atoms: C_16  and  C_17
REMARK    7  A    between atoms: N_21  and  C_22
REMARK    8  A    between atoms: C_22  and  C_23
REMARK                            x       y       z     vdW  Elec       q    Type
REMARK                         _______ _______ _______ _____ _____    ______ ____
ROOT
ATOM      1  C   UNL     1      23.856   2.973  51.986  0.00  0.00    +0.000 A 
ATOM      2  C   UNL     1      23.529   4.239  51.488  0.00  0.00    +0.000 A 
ATOM      3  F   UNL     1      24.482   5.140  51.215  0.00  0.00    +0.000 F 
ATOM      4  C   UNL     1      22.217   4.606  51.218  0.00  0.00    +0.000 A 
ATOM      5  C   UNL     1      21.179   3.686  51.421  0.00  0.00    +0.000 A 
ATOM      6  C   UNL     1      19.786   4.122  51.153  0.00  0.00    +0.000 A 
ATOM      7  O   UNL     1      19.588   5.247  50.710  0.00  0.00    +0.000 OA
ATOM      8  C   UNL     1      18.708   3.125  51.353  0.00  0.00    +0.000 A 
ATOM      9  C   UNL     1      19.075   1.894  51.749  0.00  0.00    +0.000 A 
ATOM     10  N   UNL     1      20.374   1.461  52.009  0.00  0.00    +0.000 N 
ATOM     11  C   UNL     1      21.438   2.383  51.885  0.00  0.00    +0.000 A 
ATOM     12  C   UNL     1      22.780   2.088  52.197  0.00  0.00    +0.000 A 
ATOM     13  F   UNL     1      23.076   0.927  52.802  0.00  0.00    +0.000 F 
ENDROOT
BRANCH   1  17
ATOM     14  C   UNL     1      26.765   1.452  53.614  0.00  0.00    +0.000 C 
ATOM     15  C   UNL     1      26.564   0.712  52.287  0.00  0.00    +0.000 C 
ATOM     16  C   UNL     1      25.958   1.768  51.384  0.00  0.00    +0.000 C 
ATOM     17  N   UNL     1      25.134   2.556  52.287  0.00  0.00    +0.000 N 
ATOM     18  C   UNL     1      25.552   2.395  53.685  0.00  0.00    +0.000 C 
BRANCH  14  19
ATOM     19  C   UNL     1      26.881   0.510  54.818  0.00  0.00    +0.000 C 
BRANCH  19  20
ATOM     20  N   UNL     1      27.795  -0.602  54.547  0.00  0.00    +0.000 N 
ATOM     21  H   UNL     1      27.702  -1.296  55.289  0.00  0.00    +0.000 HD
ATOM     22  H   UNL     1      27.550  -1.005  53.642  0.00  0.00    +0.000 HD
BRANCH  20  24
ATOM     23  C   UNL     1      29.926  -0.880  53.377  0.00  0.00    +0.000 C 
ATOM     24  C   UNL     1      29.186  -0.151  54.489  0.00  0.00    +0.000 C 
ENDBRANCH  20  24
ENDBRANCH  19  20
ENDBRANCH  14  19
ENDBRANCH   1  17
BRANCH   8  25
ATOM     25  C   UNL     1      17.282   3.390  51.132  0.00  0.00    +0.000 C 
ATOM     26  O   UNL     1      16.513   3.830  51.968  0.00  0.00    +0.000 OA
ATOM     27  O   UNL     1      16.882   3.220  49.854  0.00  0.00    +0.000 OA
ENDBRANCH   8  25
BRANCH  10  28
ATOM     28  C   UNL     1      20.687   0.046  52.359  0.00  0.00    +0.000 C 
BRANCH  28  29
ATOM     29  C   UNL     1      20.230  -0.415  53.753  0.00  0.00    +0.000 C 
ATOM     30  F   UNL     1      18.922  -0.745  53.807  0.00  0.00    +0.000 F 
ATOM     31  F   UNL     1      20.936  -1.506  54.145  0.00  0.00    +0.000 F 
ATOM     32  F   UNL     1      20.451   0.545  54.680  0.00  0.00    +0.000 F 
ENDBRANCH  28  29
ENDBRANCH  10  28
TORSDOF 7
ENDMDL
MODEL 5
REMARK VINA RESULT:    -7.357      2.156      4.697
REMARK INTER + INTRA:         -11.891
REMARK INTER:                 -10.385
REMARK INTRA:                  -1.507
REMARK UNBOUND:                -1.523
REMARK  Name = 
REMARK  8 active torsions:
REMARK  status: ('A' for Active; 'I' for Inactive)
REMARK    1  A    between atoms: C_1  and  C_2
REMARK    2  A    between atoms: C_2  and  N_3
REMARK    3  A    between atoms: N_3  and  C_4
REMARK    4  A    between atoms: C_4  and  C_5
REMARK    5  A    between atoms: N_8  and  C_9
REMARK    6  A    between atoms: C_16  and  C_17
REMARK    7  A    between atoms: N_21  and  C_22
REMARK    8  A    between atoms: C_22  and  C_23
REMARK                            x       y       z     vdW  Elec       q    Type
REMARK                         _______ _______ _______ _____ _____    ______ ____
ROOT
ATOM      1  C   UNL     1      22.617   0.756  52.491  0.00  0.00    +0.000 A 
ATOM      2  C   UNL     1      23.025  -0.336  53.266  0.00  0.00    +0.000 A 
ATOM      3  F   UNL     1      22.165  -1.311  53.590  0.00  0.00    +0.000 F 
ATOM      4  C   UNL     1      24.336  -0.480  53.700  0.00  0.00    +0.000 A 
ATOM      5  C   UNL     1      25.299   0.473  53.342  0.00  0.00    +0.000 A 
ATOM      6  C   UNL     1      26.683   0.305  53.850  0.00  0.00    +0.000 A 
ATOM      7  O   UNL     1      26.958  -0.685  54.516  0.00  0.00    +0.000 OA
ATOM      8  C   UNL     1      27.688   1.313  53.439  0.00  0.00    +0.000 A 
ATOM      9  C   UNL     1      27.274   2.297  52.624  0.00  0.00    +0.000 A 
ATOM     10  N   UNL     1      25.982   2.478  52.134  0.00  0.00    +0.000 N 
ATOM     11  C   UNL     1      24.969   1.577  52.534  0.00  0.00    +0.000 A 
ATOM     12  C   UNL     1      23.612   1.702  52.174  0.00  0.00    +0.000 A 
ATOM     13  F   UNL     1      23.195   2.815  51.550  0.00  0.00    +0.000 F 
ENDROOT
BRANCH   1  17
ATOM     14  C   UNL     1      19.440   2.298  51.515  0.00  0.00    +0.000 C 
ATOM     15  C   UNL     1      20.063   1.722  50.239  0.00  0.00    +0.000 C 
ATOM     16  C   UNL     1      20.853   0.529  50.741  0.00  0.00    +0.000 C 
ATOM     17  N   UNL     1      21.331   0.962  52.044  0.00  0.00    +0.000 N 
ATOM     18  C   UNL     1      20.527   2.068  52.579  0.00  0.00    +0.000 C 
BRANCH  14  19
ATOM     19  C   UNL     1      19.023   3.766  51.372  0.00  0.00    +0.000 C 
BRANCH  19  20
ATOM     20  N   UNL     1      19.698   4.412  50.244  0.00  0.00    +0.000 N 
ATOM     21  H   UNL     1      20.071   3.693  49.624  0.00  0.00    +0.000 HD
ATOM     22  H   UNL     1      19.017   4.994  49.754  0.00  0.00    +0.000 HD
BRANCH  20  24
ATOM     23  C   UNL     1      21.952   5.198  49.709  0.00  0.00    +0.000 C 
ATOM     24  C   UNL     1      20.795   5.269  50.694  0.00  0.00    +0.000 C 
ENDBRANCH  20  24
ENDBRANCH  19  20
ENDBRANCH  14  19
ENDBRANCH   1  17
BRANCH   8  25
ATOM     25  C   UNL     1      29.097   1.294  53.849  0.00  0.00    +0.000 C 
ATOM     26  O   UNL     1      29.600   2.044  54.667  0.00  0.00    +0.000 OA
ATOM     27  O   UNL     1      29.809   0.272  53.329  0.00  0.00    +0.000 OA
ENDBRANCH   8  25
BRANCH  10  28
ATOM     28  C   UNL     1      25.641   3.555  51.161  0.00  0.00    +0.000 C 
BRANCH  28  29
ATOM     29  C   UNL     1      25.939   3.242  49.686  0.00  0.00    +0.000 C 
ATOM     30  F   UNL     1      26.780   2.199  49.517  0.00  0.00    +0.000 F 
ATOM     31  F   UNL     1      24.792   2.944  49.025  0.00  0.00    +0.000 F 
ATOM     32  F   UNL     1      26.481   4.313  49.060  0.00  0.00    +0.000 F 
ENDBRANCH  28  29
ENDBRANCH  10  28
TORSDOF 7
ENDMDL
MODEL 6
REMARK VINA RESULT:    -7.301      1.744      3.900
REMARK INTER + INTRA:         -11.812
REMARK INTER:                 -10.322
REMARK INTRA:                  -1.490
REMARK UNBOUND:                -1.523
REMARK  Name = 
REMARK  8 active torsions:
REMARK  status: ('A' for Active; 'I' for Inactive)
REMARK    1  A    between atoms: C_1  and  C_2
REMARK    2  A    between atoms: C_2  and  N_3
REMARK    3  A    between atoms: N_3  and  C_4
REMARK    4  A    between atoms: C_4  and  C_5
REMARK    5  A    between atoms: N_8  and  C_9
REMARK    6  A    between atoms: C_16  and  C_17
REMARK    7  A    between atoms: N_21  and  C_22
REMARK    8  A    between atoms: C_22  and  C_23
REMARK                            x       y       z     vdW  Elec       q    Type
REMARK                         _______ _______ _______ _____ _____    ______ ____
ROOT
ATOM      1  C   UNL     1      21.837   1.922  51.812  0.00  0.00    +0.000 A 
ATOM      2  C   UNL     1      21.798   0.687  52.468  0.00  0.00    +0.000 A 
ATOM      3  F   UNL     1      20.645   0.020  52.613  0.00  0.00    +0.000 F 
ATOM      4  C   UNL     1      22.944   0.081  52.964  0.00  0.00    +0.000 A 
ATOM      5  C   UNL     1      24.191   0.698  52.789  0.00  0.00    +0.000 A 
ATOM      6  C   UNL     1      25.392   0.038  53.359  0.00  0.00    +0.000 A 
ATOM      7  O   UNL     1      25.270  -1.048  53.912  0.00  0.00    +0.000 OA
ATOM      8  C   UNL     1      26.701   0.697  53.141  0.00  0.00    +0.000 A 
ATOM      9  C   UNL     1      26.705   1.838  52.430  0.00  0.00    +0.000 A 
ATOM     10  N   UNL     1      25.592   2.478  51.886  0.00  0.00    +0.000 N 
ATOM     11  C   UNL     1      24.311   1.923  52.106  0.00  0.00    +0.000 A 
ATOM     12  C   UNL     1      23.107   2.518  51.679  0.00  0.00    +0.000 A 
ATOM     13  F   UNL     1      23.130   3.762  51.173  0.00  0.00    +0.000 F 
ENDROOT
BRANCH   1  17
ATOM     14  C   UNL     1      18.656   2.706  50.170  0.00  0.00    +0.000 C 
ATOM     15  C   UNL     1      18.464   2.986  51.664  0.00  0.00    +0.000 C 
ATOM     16  C   UNL     1      19.848   3.398  52.126  0.00  0.00    +0.000 C 
ATOM     17  N   UNL     1      20.735   2.580  51.313  0.00  0.00    +0.000 N 
ATOM     18  C   UNL     1      20.066   2.093  50.100  0.00  0.00    +0.000 C 
BRANCH  14  19
ATOM     19  C   UNL     1      17.566   1.804  49.581  0.00  0.00    +0.000 C 
BRANCH  19  20
ATOM     20  N   UNL     1      17.925   0.387  49.680  0.00  0.00    +0.000 N 
ATOM     21  H   UNL     1      17.974  -0.009  48.741  0.00  0.00    +0.000 HD
ATOM     22  H   UNL     1      18.829   0.318  50.149  0.00  0.00    +0.000 HD
BRANCH  20  24
ATOM     23  C   UNL     1      17.482  -0.632  51.860  0.00  0.00    +0.000 C 
ATOM     24  C   UNL     1      16.943  -0.363  50.463  0.00  0.00    +0.000 C 
ENDBRANCH  20  24
ENDBRANCH  19  20
ENDBRANCH  14  19
ENDBRANCH   1  17
BRANCH   8  25
ATOM     25  C   UNL     1      27.982   0.180  53.634  0.00  0.00    +0.000 C 
ATOM     26  O   UNL     1      28.511  -0.854  53.263  0.00  0.00    +0.000 OA
ATOM     27  O   UNL     1      28.627   1.015  54.475  0.00  0.00    +0.000 OA
ENDBRANCH   8  25
BRANCH  10  28
ATOM     28  C   UNL     1      25.710   3.696  51.035  0.00  0.00    +0.000 C 
BRANCH  28  29
ATOM     29  C   UNL     1      25.946   3.445  49.537  0.00  0.00    +0.000 C 
ATOM     30  F   UNL     1      26.884   2.506  49.291  0.00  0.00    +0.000 F 
ATOM     31  F   UNL     1      24.799   3.034  48.940  0.00  0.00    +0.000 F 
ATOM     32  F   UNL     1      26.326   4.581  48.907  0.00  0.00    +0.000 F 
ENDBRANCH  28  29
ENDBRANCH  10  28
TORSDOF 7
ENDMDL
MODEL 7
REMARK VINA RESULT:    -7.232      1.921      2.538
REMARK INTER + INTRA:         -11.714
REMARK INTER:                 -10.363
REMARK INTRA:                  -1.352
REMARK UNBOUND:                -1.523
REMARK  Name = 
REMARK  8 active torsions:
REMARK  status: ('A' for Active; 'I' for Inactive)
REMARK    1  A    between atoms: C_1  and  C_2
REMARK    2  A    between atoms: C_2  and  N_3
REMARK    3  A    between atoms: N_3  and  C_4
REMARK    4  A    between atoms: C_4  and  C_5
REMARK    5  A    between atoms: N_8  and  C_9
REMARK    6  A    between atoms: C_16  and  C_17
REMARK    7  A    between atoms: N_21  and  C_22
REMARK    8  A    between atoms: C_22  and  C_23
REMARK                            x       y       z     vdW  Elec       q    Type
REMARK                         _______ _______ _______ _____ _____    ______ ____
ROOT
ATOM      1  C   UNL     1      20.667   2.278  51.275  0.00  0.00    +0.000 A 
ATOM      2  C   UNL     1      21.518   3.387  51.327  0.00  0.00    +0.000 A 
ATOM      3  F   UNL     1      21.105   4.593  50.913  0.00  0.00    +0.000 F 
ATOM      4  C   UNL     1      22.805   3.303  51.840  0.00  0.00    +0.000 A 
ATOM      5  C   UNL     1      23.276   2.083  52.347  0.00  0.00    +0.000 A 
ATOM      6  C   UNL     1      24.668   2.020  52.859  0.00  0.00    +0.000 A 
ATOM      7  O   UNL     1      25.343   3.042  52.876  0.00  0.00    +0.000 OA
ATOM      8  C   UNL     1      25.134   0.727  53.411  0.00  0.00    +0.000 A 
ATOM      9  C   UNL     1      24.255  -0.290  53.422  0.00  0.00    +0.000 A 
ATOM     10  N   UNL     1      22.945  -0.257  52.947  0.00  0.00    +0.000 N 
ATOM     11  C   UNL     1      22.462   0.935  52.361  0.00  0.00    +0.000 A 
ATOM     12  C   UNL     1      21.187   1.068  51.774  0.00  0.00    +0.000 A 
ATOM     13  F   UNL     1      20.426  -0.024  51.599  0.00  0.00    +0.000 F 
ENDROOT
BRANCH   1  17
ATOM     14  C   UNL     1      17.153   3.088  50.624  0.00  0.00    +0.000 C 
ATOM     15  C   UNL     1      17.934   3.461  49.360  0.00  0.00    +0.000 C 
ATOM     16  C   UNL     1      19.086   2.474  49.354  0.00  0.00    +0.000 C 
ATOM     17  N   UNL     1      19.387   2.295  50.765  0.00  0.00    +0.000 N 
ATOM     18  C   UNL     1      18.254   2.676  51.617  0.00  0.00    +0.000 C 
BRANCH  14  19
ATOM     19  C   UNL     1      16.258   4.222  51.137  0.00  0.00    +0.000 C 
BRANCH  19  20
ATOM     20  N   UNL     1      16.132   4.193  52.596  0.00  0.00    +0.000 N 
ATOM     21  H   UNL     1      16.930   3.695  52.988  0.00  0.00    +0.000 HD
ATOM     22  H   UNL     1      16.103   5.156  52.934  0.00  0.00    +0.000 HD
BRANCH  20  24
ATOM     23  C   UNL     1      13.986   4.506  53.730  0.00  0.00    +0.000 C 
ATOM     24  C   UNL     1      14.900   3.523  53.014  0.00  0.00    +0.000 C 
ENDBRANCH  20  24
ENDBRANCH  19  20
ENDBRANCH  14  19
ENDBRANCH   1  17
BRANCH   8  25
ATOM     25  C   UNL     1      26.476   0.494  53.957  0.00  0.00    +0.000 C 
ATOM     26  O   UNL     1      26.738   0.356  55.139  0.00  0.00    +0.000 OA
ATOM     27  O   UNL     1      27.429   0.317  53.019  0.00  0.00    +0.000 OA
ENDBRANCH   8  25
BRANCH  10  28
ATOM     28  C   UNL     1      22.018  -1.417  53.085  0.00  0.00    +0.000 C 
BRANCH  28  29
ATOM     29  C   UNL     1      21.348  -1.578  54.459  0.00  0.00    +0.000 C 
ATOM     30  F   UNL     1      20.080  -2.036  54.388  0.00  0.00    +0.000 F 
ATOM     31  F   UNL     1      22.049  -2.450  55.227  0.00  0.00    +0.000 F 
ATOM     32  F   UNL     1      21.324  -0.402  55.129  0.00  0.00    +0.000 F 
ENDBRANCH  28  29
ENDBRANCH  10  28
TORSDOF 7
ENDMDL
MODEL 8
REMARK VINA RESULT:    -7.058      4.320      7.050
REMARK INTER + INTRA:         -11.469
REMARK INTER:                 -10.037
REMARK INTRA:                  -1.432
REMARK UNBOUND:                -1.523
REMARK  Name = 
REMARK  8 active torsions:
REMARK  status: ('A' for Active; 'I' for Inactive)
REMARK    1  A    between atoms: C_1  and  C_2
REMARK    2  A    between atoms: C_2  and  N_3
REMARK    3  A    between atoms: N_3  and  C_4
REMARK    4  A    between atoms: C_4  and  C_5
REMARK    5  A    between atoms: N_8  and  C_9
REMARK    6  A    between atoms: C_16  and  C_17
REMARK    7  A    between atoms: N_21  and  C_22
REMARK    8  A    between atoms: C_22  and  C_23
REMARK                            x       y       z     vdW  Elec       q    Type
REMARK                         _______ _______ _______ _____ _____    ______ ____
ROOT
ATOM      1  C   UNL     1      25.424   5.207  49.918  0.00  0.00    +0.000 A 
ATOM      2  C   UNL     1      26.491   4.305  49.837  0.00  0.00    +0.000 A 
ATOM      3  F   UNL     1      27.616   4.624  49.184  0.00  0.00    +0.000 F 
ATOM      4  C   UNL     1      26.451   3.062  50.455  0.00  0.00    +0.000 A 
ATOM      5  C   UNL     1      25.327   2.692  51.207  0.00  0.00    +0.000 A 
ATOM      6  C   UNL     1      25.304   1.344  51.828  0.00  0.00    +0.000 A 
ATOM      7  O   UNL     1      26.285   0.619  51.715  0.00  0.00    +0.000 OA
ATOM      8  C   UNL     1      24.116   0.985  52.638  0.00  0.00    +0.000 A 
ATOM      9  C   UNL     1      23.153   1.914  52.761  0.00  0.00    +0.000 A 
ATOM     10  N   UNL     1      23.149   3.185  52.188  0.00  0.00    +0.000 N 
ATOM     11  C   UNL     1      24.233   3.564  51.363  0.00  0.00    +0.000 A 
ATOM     12  C   UNL     1      24.306   4.785  50.664  0.00  0.00    +0.000 A 
ATOM     13  F   UNL     1      23.231   5.589  50.629  0.00  0.00    +0.000 F 
ENDROOT
BRANCH   1  17
ATOM     14  C   UNL     1      26.355   8.503  48.616  0.00  0.00    +0.000 C 
ATOM     15  C   UNL     1      26.031   7.624  47.404  0.00  0.00    +0.000 C 
ATOM     16  C   UNL     1      24.988   6.661  47.937  0.00  0.00    +0.000 C 
ATOM     17  N   UNL     1      25.398   6.445  49.315  0.00  0.00    +0.000 N 
ATOM     18  C   UNL     1      26.265   7.526  49.801  0.00  0.00    +0.000 C 
BRANCH  14  19
ATOM     19  C   UNL     1      27.713   9.206  48.505  0.00  0.00    +0.000 C 
BRANCH  19  20
ATOM     20  N   UNL     1      28.678   8.673  49.468  0.00  0.00    +0.000 N 
ATOM     21  H   UNL     1      28.877   9.386  50.169  0.00  0.00    +0.000 HD
ATOM     22  H   UNL     1      28.273   7.842  49.901  0.00  0.00    +0.000 HD
BRANCH  20  24
ATOM     23  C   UNL     1      29.736   6.992  48.038  0.00  0.00    +0.000 C 
ATOM     24  C   UNL     1      29.930   8.286  48.815  0.00  0.00    +0.000 C 
ENDBRANCH  20  24
ENDBRANCH  19  20
ENDBRANCH  14  19
ENDBRANCH   1  17
BRANCH   8  25
ATOM     25  C   UNL     1      23.935  -0.301  53.319  0.00  0.00    +0.000 C 
ATOM     26  O   UNL     1      23.060  -1.111  53.068  0.00  0.00    +0.000 OA
ATOM     27  O   UNL     1      24.912  -0.600  54.201  0.00  0.00    +0.000 OA
ENDBRANCH   8  25
BRANCH  10  28
ATOM     28  C   UNL     1      22.071   4.178  52.458  0.00  0.00    +0.000 C 
BRANCH  28  29
ATOM     29  C   UNL     1      20.766   3.980  51.670  0.00  0.00    +0.000 C 
ATOM     30  F   UNL     1      20.240   5.131  51.202  0.00  0.00    +0.000 F 
ATOM     31  F   UNL     1      20.978   3.170  50.601  0.00  0.00    +0.000 F 
ATOM     32  F   UNL     1      19.824   3.377  52.432  0.00  0.00    +0.000 F 
ENDBRANCH  28  29
ENDBRANCH  10  28
TORSDOF 7
ENDMDL
MODEL 9
REMARK VINA RESULT:    -6.836      3.554      7.984
REMARK INTER + INTRA:         -11.156
REMARK INTER:                  -9.994
REMARK INTRA:                  -1.162
REMARK UNBOUND:                -1.523
REMARK  Name = 
REMARK  8 active torsions:
REMARK  status: ('A' for Active; 'I' for Inactive)
REMARK    1  A    between atoms: C_1  and  C_2
REMARK    2  A    between atoms: C_2  and  N_3
REMARK    3  A    between atoms: N_3  and  C_4
REMARK    4  A    between atoms: C_4  and  C_5
REMARK    5  A    between atoms: N_8  and  C_9
REMARK    6  A    between atoms: C_16  and  C_17
REMARK    7  A    between atoms: N_21  and  C_22
REMARK    8  A    between atoms: C_22  and  C_23
REMARK                            x       y       z     vdW  Elec       q    Type
REMARK                         _______ _______ _______ _____ _____    ______ ____
ROOT
ATOM      1  C   UNL     1      24.123   1.830  52.521  0.00  0.00    +0.000 A 
ATOM      2  C   UNL     1      23.512   0.584  52.710  0.00  0.00    +0.000 A 
ATOM      3  F   UNL     1      24.229  -0.485  53.082  0.00  0.00    +0.000 F 
ATOM      4  C   UNL     1      22.144   0.406  52.559  0.00  0.00    +0.000 A 
ATOM      5  C   UNL     1      21.329   1.499  52.233  0.00  0.00    +0.000 A 
ATOM      6  C   UNL     1      19.875   1.267  52.048  0.00  0.00    +0.000 A 
ATOM      7  O   UNL     1      19.421   0.146  52.241  0.00  0.00    +0.000 OA
ATOM      8  C   UNL     1      19.031   2.442  51.727  0.00  0.00    +0.000 A 
ATOM      9  C   UNL     1      19.645   3.634  51.641  0.00  0.00    +0.000 A 
ATOM     10  N   UNL     1      21.007   3.879  51.808  0.00  0.00    +0.000 N 
ATOM     11  C   UNL     1      21.869   2.788  52.065  0.00  0.00    +0.000 A 
ATOM     12  C   UNL     1      23.270   2.895  52.172  0.00  0.00    +0.000 A 
ATOM     13  F   UNL     1      23.868   4.056  51.858  0.00  0.00    +0.000 F 
ENDROOT
BRANCH   1  17
ATOM     14  C   UNL     1      27.620   1.762  53.614  0.00  0.00    +0.000 C 
ATOM     15  C   UNL     1      27.588   1.184  52.196  0.00  0.00    +0.000 C 
ATOM     16  C   UNL     1      26.420   1.902  51.548  0.00  0.00    +0.000 C 
ATOM     17  N   UNL     1      25.474   2.066  52.641  0.00  0.00    +0.000 N 
ATOM     18  C   UNL     1      26.132   1.967  53.950  0.00  0.00    +0.000 C 
BRANCH  14  19
ATOM     19  C   UNL     1      28.356   0.864  54.615  0.00  0.00    +0.000 C 
BRANCH  19  20
ATOM     20  N   UNL     1      28.179  -0.555  54.298  0.00  0.00    +0.000 N 
ATOM     21  H   UNL     1      27.843  -1.041  55.129  0.00  0.00    +0.000 HD
ATOM     22  H   UNL     1      27.505  -0.631  53.536  0.00  0.00    +0.000 HD
BRANCH  20  24
ATOM     23  C   UNL     1      29.159  -2.498  53.178  0.00  0.00    +0.000 C 
ATOM     24  C   UNL     1      29.435  -1.168  53.864  0.00  0.00    +0.000 C 
ENDBRANCH  20  24
ENDBRANCH  19  20
ENDBRANCH  14  19
ENDBRANCH   1  17
BRANCH   8  25
ATOM     25  C   UNL     1      17.581   2.388  51.515  0.00  0.00    +0.000 C 
ATOM     26  O   UNL     1      16.764   3.102  52.070  0.00  0.00    +0.000 OA
ATOM     27  O   UNL     1      17.198   1.542  50.536  0.00  0.00    +0.000 OA
ENDBRANCH   8  25
BRANCH  10  28
ATOM     28  C   UNL     1      21.580   5.255  51.780  0.00  0.00    +0.000 C 
BRANCH  28  29
ATOM     29  C   UNL     1      21.542   5.967  50.418  0.00  0.00    +0.000 C 
ATOM     30  F   UNL     1      20.353   6.547  50.147  0.00  0.00    +0.000 F 
ATOM     31  F   UNL     1      22.485   6.942  50.368  0.00  0.00    +0.000 F 
ATOM     32  F   UNL     1      21.820   5.107  49.411  0.00  0.00    +0.000 F 
ENDBRANCH  28  29
ENDBRANCH  10  28
TORSDOF 7
ENDMDL
