MODEL 1
REMARK VINA RESULT:    -7.562      0.000      0.000
REMARK INTER + INTRA:         -16.750
REMARK INTER:                 -13.751
REMARK INTRA:                  -2.998
REMARK UNBOUND:                -2.998
REMARK  Name = 
REMARK  17 active torsions:
REMARK  status: ('A' for Active; 'I' for Inactive)
REMARK    1  A    between atoms: C_1  and  O_2
REMARK    2  A    between atoms: O_2  and  C_3
REMARK    3  A    between atoms: C_3  and  C_5
REMARK    4  A    between atoms: C_5  and  C_6
REMARK    5  A    between atoms: C_6  and  C_7
REMARK    6  A    between atoms: C_8  and  C_9
REMARK    7  A    between atoms: C_9  and  C_10
REMARK    8  A    between atoms: C_10  and  C_11
REMARK    9  A    between atoms: C_15  and  O_16
REMARK   10  A    between atoms: C_17  and  C_18
REMARK   11  A    between atoms: C_19  and  C_20
REMARK   12  A    between atoms: C_20  and  C_21
REMARK   13  A    between atoms: C_21  and  C_22
REMARK   14  A    between atoms: C_21  and  O_23
REMARK   15  A    between atoms: C_21  and  C_24
REMARK   16  A    between atoms: C_24  and  C_25
REMARK   17  A    between atoms: C_25  and  C_26
REMARK                            x       y       z     vdW  Elec       q    Type
REMARK                         _______ _______ _______ _____ _____    ______ ____
ROOT
ATOM      1  C   UNL     1      24.321   2.976  51.523  0.00  0.00    +0.000 C 
ATOM      2  C   UNL     1      23.656   4.270  51.962  0.00  0.00    +0.000 C 
ATOM      3  O   UNL     1      23.064   4.409  53.026  0.00  0.00    +0.000 OA
ATOM      4  C   UNL     1      23.747   5.365  50.931  0.00  0.00    +0.000 C 
ATOM      5  C   UNL     1      24.740   4.772  49.935  0.00  0.00    +0.000 C 
ATOM      6  C   UNL     1      24.518   3.247  50.013  0.00  0.00    +0.000 C 
ENDROOT
BRANCH   5   7
ATOM      7  O   UNL     1      26.085   5.117  50.256  0.00  0.00    +0.000 OA
ATOM      8  H   UNL     1      26.558   4.326  50.558  0.00  0.00    +0.000 HD
ENDBRANCH   5   7
BRANCH   6   9
ATOM      9  C   UNL     1      23.299   2.892  49.158  0.00  0.00    +0.000 C 
ATOM     10  C   UNL     1      22.473   1.854  49.410  0.00  0.00    +0.000 C 
BRANCH  10  11
ATOM     11  C   UNL     1      21.145   1.603  48.764  0.00  0.00    +0.000 C 
BRANCH  11  12
ATOM     12  C   UNL     1      19.877   1.992  49.592  0.00  0.00    +0.000 C 
ATOM     13  C   UNL     1      19.276   3.218  48.888  0.00  0.00    +0.000 C 
BRANCH  12  14
ATOM     14  O   UNL     1      18.922   0.929  49.524  0.00  0.00    +0.000 OA
ATOM     15  H   UNL     1      18.837   0.629  48.606  0.00  0.00    +0.000 HD
ENDBRANCH  12  14
BRANCH  12  16
ATOM     16  C   UNL     1      20.171   2.293  51.098  0.00  0.00    +0.000 C 
BRANCH  16  17
ATOM     17  C   UNL     1      19.650   1.242  52.112  0.00  0.00    +0.000 C 
BRANCH  17  18
ATOM     18  C   UNL     1      20.675   0.129  52.507  0.00  0.00    +0.000 C 
ATOM     19  C   UNL     1      20.103  -0.730  53.658  0.00  0.00    +0.000 C 
ATOM     20  C   UNL     1      21.123  -1.698  54.257  0.00  0.00    +0.000 C 
ATOM     21  C   UNL     1      22.344  -0.947  54.764  0.00  0.00    +0.000 C 
ATOM     22  C   UNL     1      23.006  -0.174  53.634  0.00  0.00    +0.000 C 
ATOM     23  C   UNL     1      22.044   0.735  52.867  0.00  0.00    +0.000 C 
ENDBRANCH  17  18
ENDBRANCH  16  17
ENDBRANCH  12  16
ENDBRANCH  11  12
ENDBRANCH  10  11
ENDBRANCH   6   9
BRANCH   1  24
ATOM     24  C   UNL     1      25.611   2.699  52.303  0.00  0.00    +0.000 C 
BRANCH  24  25
ATOM     25  C   UNL     1      26.608   1.803  51.550  0.00  0.00    +0.000 C 
BRANCH  25  27
ATOM     26  C   UNL     1      26.485  -0.305  52.993  0.00  0.00    +0.000 C 
ATOM     27  C   UNL     1      26.456   0.332  51.812  0.00  0.00    +0.000 C 
BRANCH  26  28
ATOM     28  C   UNL     1      26.716   0.305  54.350  0.00  0.00    +0.000 C 
BRANCH  28  29
ATOM     29  C   UNL     1      28.161   0.078  54.803  0.00  0.00    +0.000 C 
BRANCH  29  30
ATOM     30  C   UNL     1      29.131   0.992  54.102  0.00  0.00    +0.000 C 
ATOM     31  O   UNL     1      29.045   2.208  54.012  0.00  0.00    +0.000 OA
BRANCH  30  33
ATOM     32  C   UNL     1      29.923  -1.166  53.591  0.00  0.00    +0.000 C 
ATOM     33  O   UNL     1      30.153   0.244  53.588  0.00  0.00    +0.000 OA
ENDBRANCH  30  33
ENDBRANCH  29  30
ENDBRANCH  28  29
ENDBRANCH  26  28
ENDBRANCH  25  27
ENDBRANCH  24  25
ENDBRANCH   1  24
TORSDOF 15
ENDMDL
MODEL 2
REMARK VINA RESULT:    -7.533      1.956      5.865
REMARK INTER + INTRA:         -16.697
REMARK INTER:                 -13.173
REMARK INTRA:                  -3.524
REMARK UNBOUND:                -2.998
REMARK  Name = 
REMARK  17 active torsions:
REMARK  status: ('A' for Active; 'I' for Inactive)
REMARK    1  A    between atoms: C_1  and  O_2
REMARK    2  A    between atoms: O_2  and  C_3
REMARK    3  A    between atoms: C_3  and  C_5
REMARK    4  A    between atoms: C_5  and  C_6
REMARK    5  A    between atoms: C_6  and  C_7
REMARK    6  A    between atoms: C_8  and  C_9
REMARK    7  A    between atoms: C_9  and  C_10
REMARK    8  A    between atoms: C_10  and  C_11
REMARK    9  A    between atoms: C_15  and  O_16
REMARK   10  A    between atoms: C_17  and  C_18
REMARK   11  A    between atoms: C_19  and  C_20
REMARK   12  A    between atoms: C_20  and  C_21
REMARK   13  A    between atoms: C_21  and  C_22
REMARK   14  A    between atoms: C_21  and  O_23
REMARK   15  A    between atoms: C_21  and  C_24
REMARK   16  A    between atoms: C_24  and  C_25
REMARK   17  A    between atoms: C_25  and  C_26
REMARK                            x       y       z     vdW  Elec       q    Type
REMARK                         _______ _______ _______ _____ _____    ______ ____
ROOT
ATOM      1  C   UNL     1      25.862   0.945  51.896  0.00  0.00    +0.000 C 
ATOM      2  C   UNL     1      26.694  -0.047  52.690  0.00  0.00    +0.000 C 
ATOM      3  O   UNL     1      27.224  -1.040  52.205  0.00  0.00    +0.000 OA
ATOM      4  C   UNL     1      26.765   0.278  54.160  0.00  0.00    +0.000 C 
ATOM      5  C   UNL     1      26.157   1.676  54.199  0.00  0.00    +0.000 C 
ATOM      6  C   UNL     1      25.141   1.700  53.038  0.00  0.00    +0.000 C 
ENDROOT
BRANCH   5   7
ATOM      7  O   UNL     1      27.145   2.691  54.043  0.00  0.00    +0.000 OA
ATOM      8  H   UNL     1      27.450   2.706  53.122  0.00  0.00    +0.000 HD
ENDBRANCH   5   7
BRANCH   6   9
ATOM      9  C   UNL     1      23.852   1.021  53.510  0.00  0.00    +0.000 C 
ATOM     10  C   UNL     1      23.023   0.325  52.703  0.00  0.00    +0.000 C 
BRANCH  10  11
ATOM     11  C   UNL     1      21.893  -0.555  53.143  0.00  0.00    +0.000 C 
BRANCH  11  12
ATOM     12  C   UNL     1      20.582   0.162  53.601  0.00  0.00    +0.000 C 
ATOM     13  C   UNL     1      19.431  -0.780  53.218  0.00  0.00    +0.000 C 
BRANCH  12  14
ATOM     14  O   UNL     1      20.589   0.299  55.025  0.00  0.00    +0.000 OA
ATOM     15  H   UNL     1      20.205  -0.495  55.428  0.00  0.00    +0.000 HD
ENDBRANCH  12  14
BRANCH  12  16
ATOM     16  C   UNL     1      20.383   1.581  52.973  0.00  0.00    +0.000 C 
BRANCH  16  17
ATOM     17  C   UNL     1      19.516   1.639  51.689  0.00  0.00    +0.000 C 
BRANCH  17  18
ATOM     18  C   UNL     1      20.242   2.182  50.416  0.00  0.00    +0.000 C 
ATOM     19  C   UNL     1      20.773   1.003  49.569  0.00  0.00    +0.000 C 
ATOM     20  C   UNL     1      21.688   1.441  48.425  0.00  0.00    +0.000 C 
ATOM     21  C   UNL     1      22.870   2.236  48.956  0.00  0.00    +0.000 C 
ATOM     22  C   UNL     1      22.394   3.471  49.705  0.00  0.00    +0.000 C 
ATOM     23  C   UNL     1      21.363   3.169  50.793  0.00  0.00    +0.000 C 
ENDBRANCH  17  18
ENDBRANCH  16  17
ENDBRANCH  12  16
ENDBRANCH  11  12
ENDBRANCH  10  11
ENDBRANCH   6   9
BRANCH   1  24
ATOM     24  C   UNL     1      26.727   1.825  50.987  0.00  0.00    +0.000 C 
BRANCH  24  25
ATOM     25  C   UNL     1      25.997   3.069  50.454  0.00  0.00    +0.000 C 
BRANCH  25  27
ATOM     26  C   UNL     1      26.461   5.091  48.960  0.00  0.00    +0.000 C 
ATOM     27  C   UNL     1      26.803   3.918  49.514  0.00  0.00    +0.000 C 
BRANCH  26  28
ATOM     28  C   UNL     1      25.158   5.828  49.120  0.00  0.00    +0.000 C 
BRANCH  28  29
ATOM     29  C   UNL     1      25.209   6.750  50.341  0.00  0.00    +0.000 C 
BRANCH  29  30
ATOM     30  C   UNL     1      24.025   6.558  51.253  0.00  0.00    +0.000 C 
ATOM     31  O   UNL     1      23.867   5.648  52.053  0.00  0.00    +0.000 OA
BRANCH  30  33
ATOM     32  C   UNL     1      21.857   7.191  50.590  0.00  0.00    +0.000 C 
ATOM     33  O   UNL     1      23.146   7.587  51.061  0.00  0.00    +0.000 OA
ENDBRANCH  30  33
ENDBRANCH  29  30
ENDBRANCH  28  29
ENDBRANCH  26  28
ENDBRANCH  25  27
ENDBRANCH  24  25
ENDBRANCH   1  24
TORSDOF 15
ENDMDL
MODEL 3
REMARK VINA RESULT:    -7.199      3.049      5.873
REMARK INTER + INTRA:         -16.090
REMARK INTER:                 -13.247
REMARK INTRA:                  -2.843
REMARK UNBOUND:                -2.998
REMARK  Name = 
REMARK  17 active torsions:
REMARK  status: ('A' for Active; 'I' for Inactive)
REMARK    1  A    between atoms: C_1  and  O_2
REMARK    2  A    between atoms: O_2  and  C_3
REMARK    3  A    between atoms: C_3  and  C_5
REMARK    4  A    between atoms: C_5  and  C_6
REMARK    5  A    between atoms: C_6  and  C_7
REMARK    6  A    between atoms: C_8  and  C_9
REMARK    7  A    between atoms: C_9  and  C_10
REMARK    8  A    between atoms: C_10  and  C_11
REMARK    9  A    between atoms: C_15  and  O_16
REMARK   10  A    between atoms: C_17  and  C_18
REMARK   11  A    between atoms: C_19  and  C_20
REMARK   12  A    between atoms: C_20  and  C_21
REMARK   13  A    between atoms: C_21  and  C_22
REMARK   14  A    between atoms: C_21  and  O_23
REMARK   15  A    between atoms: C_21  and  C_24
REMARK   16  A    between atoms: C_24  and  C_25
REMARK   17  A    between atoms: C_25  and  C_26
REMARK                            x       y       z     vdW  Elec       q    Type
REMARK                         _______ _______ _______ _____ _____    ______ ____
ROOT
ATOM      1  C   UNL     1      23.103   3.084  49.910  0.00  0.00    +0.000 C 
ATOM      2  C   UNL     1      22.107   3.984  49.197  0.00  0.00    +0.000 C 
ATOM      3  O   UNL     1      22.137   5.208  49.244  0.00  0.00    +0.000 OA
ATOM      4  C   UNL     1      21.035   3.222  48.463  0.00  0.00    +0.000 C 
ATOM      5  C   UNL     1      21.569   1.794  48.529  0.00  0.00    +0.000 C 
ATOM      6  C   UNL     1      22.362   1.726  49.851  0.00  0.00    +0.000 C 
ENDROOT
BRANCH   5   7
ATOM      7  O   UNL     1      22.397   1.483  47.411  0.00  0.00    +0.000 OA
ATOM      8  H   UNL     1      22.586   2.294  46.915  0.00  0.00    +0.000 HD
ENDBRANCH   5   7
BRANCH   6   9
ATOM      9  C   UNL     1      21.372   1.514  50.998  0.00  0.00    +0.000 C 
ATOM     10  C   UNL     1      20.767   0.338  51.270  0.00  0.00    +0.000 C 
BRANCH  10  11
ATOM     11  C   UNL     1      19.988   0.008  52.507  0.00  0.00    +0.000 C 
BRANCH  11  12
ATOM     12  C   UNL     1      20.769  -0.701  53.660  0.00  0.00    +0.000 C 
ATOM     13  C   UNL     1      20.964   0.361  54.752  0.00  0.00    +0.000 C 
BRANCH  12  14
ATOM     14  O   UNL     1      19.963  -1.752  54.202  0.00  0.00    +0.000 OA
ATOM     15  H   UNL     1      20.350  -2.058  55.037  0.00  0.00    +0.000 HD
ENDBRANCH  12  14
BRANCH  12  16
ATOM     16  C   UNL     1      22.138  -1.313  53.217  0.00  0.00    +0.000 C 
BRANCH  16  17
ATOM     17  C   UNL     1      23.402  -0.680  53.854  0.00  0.00    +0.000 C 
BRANCH  17  18
ATOM     18  C   UNL     1      24.242   0.235  52.904  0.00  0.00    +0.000 C 
ATOM     19  C   UNL     1      25.674  -0.328  52.761  0.00  0.00    +0.000 C 
ATOM     20  C   UNL     1      26.629   0.619  52.034  0.00  0.00    +0.000 C 
ATOM     21  C   UNL     1      26.699   1.962  52.742  0.00  0.00    +0.000 C 
ATOM     22  C   UNL     1      25.323   2.606  52.808  0.00  0.00    +0.000 C 
ATOM     23  C   UNL     1      24.246   1.695  53.398  0.00  0.00    +0.000 C 
ENDBRANCH  17  18
ENDBRANCH  16  17
ENDBRANCH  12  16
ENDBRANCH  11  12
ENDBRANCH  10  11
ENDBRANCH   6   9
BRANCH   1  24
ATOM     24  C   UNL     1      24.478   3.098  49.234  0.00  0.00    +0.000 C 
BRANCH  24  25
ATOM     25  C   UNL     1      25.410   4.206  49.753  0.00  0.00    +0.000 C 
BRANCH  25  27
ATOM     26  C   UNL     1      27.630   4.982  48.750  0.00  0.00    +0.000 C 
ATOM     27  C   UNL     1      26.846   4.066  49.339  0.00  0.00    +0.000 C 
BRANCH  26  28
ATOM     28  C   UNL     1      27.242   6.373  48.325  0.00  0.00    +0.000 C 
BRANCH  28  29
ATOM     29  C   UNL     1      28.474   7.162  47.875  0.00  0.00    +0.000 C 
BRANCH  29  30
ATOM     30  C   UNL     1      28.741   8.356  48.754  0.00  0.00    +0.000 C 
ATOM     31  O   UNL     1      27.968   8.848  49.562  0.00  0.00    +0.000 OA
BRANCH  30  33
ATOM     32  C   UNL     1      30.498   9.747  49.476  0.00  0.00    +0.000 C 
ATOM     33  O   UNL     1      30.011   8.803  48.521  0.00  0.00    +0.000 OA
ENDBRANCH  30  33
ENDBRANCH  29  30
ENDBRANCH  28  29
ENDBRANCH  26  28
ENDBRANCH  25  27
ENDBRANCH  24  25
ENDBRANCH   1  24
TORSDOF 15
ENDMDL
MODEL 4
REMARK VINA RESULT:    -7.064      2.188      6.183
REMARK INTER + INTRA:         -15.844
REMARK INTER:                 -13.060
REMARK INTRA:                  -2.784
REMARK UNBOUND:                -2.998
REMARK  Name = 
REMARK  17 active torsions:
REMARK  status: ('A' for Active; 'I' for Inactive)
REMARK    1  A    between atoms: C_1  and  O_2
REMARK    2  A    between atoms: O_2  and  C_3
REMARK    3  A    between atoms: C_3  and  C_5
REMARK    4  A    between atoms: C_5  and  C_6
REMARK    5  A    between atoms: C_6  and  C_7
REMARK    6  A    between atoms: C_8  and  C_9
REMARK    7  A    between atoms: C_9  and  C_10
REMARK    8  A    between atoms: C_10  and  C_11
REMARK    9  A    between atoms: C_15  and  O_16
REMARK   10  A    between atoms: C_17  and  C_18
REMARK   11  A    between atoms: C_19  and  C_20
REMARK   12  A    between atoms: C_20  and  C_21
REMARK   13  A    between atoms: C_21  and  C_22
REMARK   14  A    between atoms: C_21  and  O_23
REMARK   15  A    between atoms: C_21  and  C_24
REMARK   16  A    between atoms: C_24  and  C_25
REMARK   17  A    between atoms: C_25  and  C_26
REMARK                            x       y       z     vdW  Elec       q    Type
REMARK                         _______ _______ _______ _____ _____    ______ ____
ROOT
ATOM      1  C   UNL     1      26.386   0.468  52.075  0.00  0.00    +0.000 C 
ATOM      2  C   UNL     1      27.258  -0.208  53.120  0.00  0.00    +0.000 C 
ATOM      3  O   UNL     1      28.193  -0.954  52.852  0.00  0.00    +0.000 OA
ATOM      4  C   UNL     1      26.827   0.084  54.533  0.00  0.00    +0.000 C 
ATOM      5  C   UNL     1      25.805   1.197  54.323  0.00  0.00    +0.000 C 
ATOM      6  C   UNL     1      25.182   0.909  52.941  0.00  0.00    +0.000 C 
ENDROOT
BRANCH   5   7
ATOM      7  O   UNL     1      26.408   2.488  54.360  0.00  0.00    +0.000 OA
ATOM      8  H   UNL     1      26.795   2.688  53.494  0.00  0.00    +0.000 HD
ENDBRANCH   5   7
BRANCH   6   9
ATOM      9  C   UNL     1      24.114  -0.174  53.109  0.00  0.00    +0.000 C 
ATOM     10  C   UNL     1      23.090  -0.101  53.986  0.00  0.00    +0.000 C 
BRANCH  10  11
ATOM     11  C   UNL     1      21.893  -1.001  54.027  0.00  0.00    +0.000 C 
BRANCH  11  12
ATOM     12  C   UNL     1      20.495  -0.316  53.882  0.00  0.00    +0.000 C 
ATOM     13  C   UNL     1      19.479  -1.460  53.745  0.00  0.00    +0.000 C 
BRANCH  12  14
ATOM     14  O   UNL     1      20.194   0.405  55.081  0.00  0.00    +0.000 OA
ATOM     15  H   UNL     1      19.525  -0.079  55.590  0.00  0.00    +0.000 HD
ENDBRANCH  12  14
BRANCH  12  16
ATOM     16  C   UNL     1      20.396   0.675  52.677  0.00  0.00    +0.000 C 
BRANCH  16  17
ATOM     17  C   UNL     1      20.811   0.105  51.295  0.00  0.00    +0.000 C 
BRANCH  17  18
ATOM     18  C   UNL     1      21.876   0.946  50.518  0.00  0.00    +0.000 C 
ATOM     19  C   UNL     1      22.060   2.321  51.198  0.00  0.00    +0.000 C 
ATOM     20  C   UNL     1      22.913   3.293  50.382  0.00  0.00    +0.000 C 
ATOM     21  C   UNL     1      22.315   3.504  49.000  0.00  0.00    +0.000 C 
ATOM     22  C   UNL     1      22.218   2.186  48.250  0.00  0.00    +0.000 C 
ATOM     23  C   UNL     1      21.497   1.087  49.031  0.00  0.00    +0.000 C 
ENDBRANCH  17  18
ENDBRANCH  16  17
ENDBRANCH  12  16
ENDBRANCH  11  12
ENDBRANCH  10  11
ENDBRANCH   6   9
BRANCH   1  24
ATOM     24  C   UNL     1      27.121   1.609  51.363  0.00  0.00    +0.000 C 
BRANCH  24  25
ATOM     25  C   UNL     1      26.190   2.725  50.861  0.00  0.00    +0.000 C 
BRANCH  25  27
ATOM     26  C   UNL     1      26.385   4.616  49.151  0.00  0.00    +0.000 C 
ATOM     27  C   UNL     1      26.610   3.361  49.567  0.00  0.00    +0.000 C 
BRANCH  26  28
ATOM     28  C   UNL     1      25.617   5.690  49.874  0.00  0.00    +0.000 C 
BRANCH  28  29
ATOM     29  C   UNL     1      25.465   6.931  48.991  0.00  0.00    +0.000 C 
BRANCH  29  30
ATOM     30  C   UNL     1      25.135   8.165  49.788  0.00  0.00    +0.000 C 
ATOM     31  O   UNL     1      24.247   8.273  50.622  0.00  0.00    +0.000 OA
BRANCH  30  33
ATOM     32  C   UNL     1      27.215   9.183  50.212  0.00  0.00    +0.000 C 
ATOM     33  O   UNL     1      26.008   9.160  49.449  0.00  0.00    +0.000 OA
ENDBRANCH  30  33
ENDBRANCH  29  30
ENDBRANCH  28  29
ENDBRANCH  26  28
ENDBRANCH  25  27
ENDBRANCH  24  25
ENDBRANCH   1  24
TORSDOF 15
ENDMDL
MODEL 5
REMARK VINA RESULT:    -7.037      2.256      6.077
REMARK INTER + INTRA:         -15.795
REMARK INTER:                 -13.045
REMARK INTRA:                  -2.751
REMARK UNBOUND:                -2.998
REMARK  Name = 
REMARK  17 active torsions:
REMARK  status: ('A' for Active; 'I' for Inactive)
REMARK    1  A    between atoms: C_1  and  O_2
REMARK    2  A    between atoms: O_2  and  C_3
REMARK    3  A    between atoms: C_3  and  C_5
REMARK    4  A    between atoms: C_5  and  C_6
REMARK    5  A    between atoms: C_6  and  C_7
REMARK    6  A    between atoms: C_8  and  C_9
REMARK    7  A    between atoms: C_9  and  C_10
REMARK    8  A    between atoms: C_10  and  C_11
REMARK    9  A    between atoms: C_15  and  O_16
REMARK   10  A    between atoms: C_17  and  C_18
REMARK   11  A    between atoms: C_19  and  C_20
REMARK   12  A    between atoms: C_20  and  C_21
REMARK   13  A    between atoms: C_21  and  C_22
REMARK   14  A    between atoms: C_21  and  O_23
REMARK   15  A    between atoms: C_21  and  C_24
REMARK   16  A    between atoms: C_24  and  C_25
REMARK   17  A    between atoms: C_25  and  C_26
REMARK                            x       y       z     vdW  Elec       q    Type
REMARK                         _______ _______ _______ _____ _____    ______ ____
ROOT
ATOM      1  C   UNL     1      23.748   4.595  51.532  0.00  0.00    +0.000 C 
ATOM      2  C   UNL     1      22.417   3.908  51.275  0.00  0.00    +0.000 C 
ATOM      3  O   UNL     1      21.459   3.964  52.037  0.00  0.00    +0.000 OA
ATOM      4  C   UNL     1      22.402   3.096  50.006  0.00  0.00    +0.000 C 
ATOM      5  C   UNL     1      23.706   3.530  49.344  0.00  0.00    +0.000 C 
ATOM      6  C   UNL     1      24.655   3.863  50.514  0.00  0.00    +0.000 C 
ENDROOT
BRANCH   5   7
ATOM      7  O   UNL     1      23.521   4.657  48.491  0.00  0.00    +0.000 OA
ATOM      8  H   UNL     1      24.328   4.808  47.975  0.00  0.00    +0.000 HD
ENDBRANCH   5   7
BRANCH   6   9
ATOM      9  C   UNL     1      25.246   2.554  51.044  0.00  0.00    +0.000 C 
ATOM     10  C   UNL     1      26.531   2.403  51.429  0.00  0.00    +0.000 C 
BRANCH  10  11
ATOM     11  C   UNL     1      27.100   1.234  52.174  0.00  0.00    +0.000 C 
BRANCH  11  12
ATOM     12  C   UNL     1      27.207   1.377  53.727  0.00  0.00    +0.000 C 
ATOM     13  C   UNL     1      28.358   0.455  54.155  0.00  0.00    +0.000 C 
BRANCH  12  14
ATOM     14  O   UNL     1      27.570   2.722  54.056  0.00  0.00    +0.000 OA
ATOM     15  H   UNL     1      27.301   2.916  54.967  0.00  0.00    +0.000 HD
ENDBRANCH  12  14
BRANCH  12  16
ATOM     16  C   UNL     1      25.888   1.025  54.489  0.00  0.00    +0.000 C 
BRANCH  16  17
ATOM     17  C   UNL     1      25.430  -0.454  54.405  0.00  0.00    +0.000 C 
BRANCH  17  18
ATOM     18  C   UNL     1      23.974  -0.673  53.878  0.00  0.00    +0.000 C 
ATOM     19  C   UNL     1      23.436   0.634  53.254  0.00  0.00    +0.000 C 
ATOM     20  C   UNL     1      21.947   0.578  52.916  0.00  0.00    +0.000 C 
ATOM     21  C   UNL     1      21.126   0.251  54.153  0.00  0.00    +0.000 C 
ATOM     22  C   UNL     1      21.548  -1.088  54.739  0.00  0.00    +0.000 C 
ATOM     23  C   UNL     1      23.052  -1.199  54.994  0.00  0.00    +0.000 C 
ENDBRANCH  17  18
ENDBRANCH  16  17
ENDBRANCH  12  16
ENDBRANCH  11  12
ENDBRANCH  10  11
ENDBRANCH   6   9
BRANCH   1  24
ATOM     24  C   UNL     1      23.658   6.113  51.342  0.00  0.00    +0.000 C 
BRANCH  24  25
ATOM     25  C   UNL     1      24.985   6.761  50.915  0.00  0.00    +0.000 C 
BRANCH  25  27
ATOM     26  C   UNL     1      25.271   8.006  48.700  0.00  0.00    +0.000 C 
ATOM     27  C   UNL     1      24.845   7.919  49.969  0.00  0.00    +0.000 C 
BRANCH  26  28
ATOM     28  C   UNL     1      26.031   6.966  47.922  0.00  0.00    +0.000 C 
BRANCH  28  29
ATOM     29  C   UNL     1      27.514   6.986  48.304  0.00  0.00    +0.000 C 
BRANCH  29  30
ATOM     30  C   UNL     1      28.105   5.603  48.376  0.00  0.00    +0.000 C 
ATOM     31  O   UNL     1      27.540   4.593  48.770  0.00  0.00    +0.000 OA
BRANCH  30  33
ATOM     32  C   UNL     1      30.203   6.666  48.479  0.00  0.00    +0.000 C 
ATOM     33  O   UNL     1      29.387   5.643  47.906  0.00  0.00    +0.000 OA
ENDBRANCH  30  33
ENDBRANCH  29  30
ENDBRANCH  28  29
ENDBRANCH  26  28
ENDBRANCH  25  27
ENDBRANCH  24  25
ENDBRANCH   1  24
TORSDOF 15
ENDMDL
MODEL 6
REMARK VINA RESULT:    -6.921      2.803      8.070
REMARK INTER + INTRA:         -15.584
REMARK INTER:                 -13.449
REMARK INTRA:                  -2.135
REMARK UNBOUND:                -2.998
REMARK  Name = 
REMARK  17 active torsions:
REMARK  status: ('A' for Active; 'I' for Inactive)
REMARK    1  A    between atoms: C_1  and  O_2
REMARK    2  A    between atoms: O_2  and  C_3
REMARK    3  A    between atoms: C_3  and  C_5
REMARK    4  A    between atoms: C_5  and  C_6
REMARK    5  A    between atoms: C_6  and  C_7
REMARK    6  A    between atoms: C_8  and  C_9
REMARK    7  A    between atoms: C_9  and  C_10
REMARK    8  A    between atoms: C_10  and  C_11
REMARK    9  A    between atoms: C_15  and  O_16
REMARK   10  A    between atoms: C_17  and  C_18
REMARK   11  A    between atoms: C_19  and  C_20
REMARK   12  A    between atoms: C_20  and  C_21
REMARK   13  A    between atoms: C_21  and  C_22
REMARK   14  A    between atoms: C_21  and  O_23
REMARK   15  A    between atoms: C_21  and  C_24
REMARK   16  A    between atoms: C_24  and  C_25
REMARK   17  A    between atoms: C_25  and  C_26
REMARK                            x       y       z     vdW  Elec       q    Type
REMARK                         _______ _______ _______ _____ _____    ______ ____
ROOT
ATOM      1  C   UNL     1      26.518   0.236  54.122  0.00  0.00    +0.000 C 
ATOM      2  C   UNL     1      28.023   0.111  54.294  0.00  0.00    +0.000 C 
ATOM      3  O   UNL     1      28.666   0.706  55.150  0.00  0.00    +0.000 OA
ATOM      4  C   UNL     1      28.665  -0.783  53.265  0.00  0.00    +0.000 C 
ATOM      5  C   UNL     1      27.448  -1.425  52.606  0.00  0.00    +0.000 C 
ATOM      6  C   UNL     1      26.334  -0.362  52.707  0.00  0.00    +0.000 C 
ENDROOT
BRANCH   5   7
ATOM      7  O   UNL     1      27.069  -2.636  53.256  0.00  0.00    +0.000 OA
ATOM      8  H   UNL     1      26.191  -2.527  53.653  0.00  0.00    +0.000 HD
ENDBRANCH   5   7
BRANCH   6   9
ATOM      9  C   UNL     1      26.532   0.653  51.578  0.00  0.00    +0.000 C 
ATOM     10  C   UNL     1      26.197   1.958  51.665  0.00  0.00    +0.000 C 
BRANCH  10  11
ATOM     11  C   UNL     1      26.583   3.037  50.699  0.00  0.00    +0.000 C 
BRANCH  11  12
ATOM     12  C   UNL     1      25.440   3.989  50.218  0.00  0.00    +0.000 C 
ATOM     13  C   UNL     1      24.310   3.074  49.724  0.00  0.00    +0.000 C 
BRANCH  12  14
ATOM     14  O   UNL     1      24.949   4.740  51.333  0.00  0.00    +0.000 OA
ATOM     15  H   UNL     1      25.195   5.672  51.229  0.00  0.00    +0.000 HD
ENDBRANCH  12  14
BRANCH  12  16
ATOM     16  C   UNL     1      25.880   4.996  49.105  0.00  0.00    +0.000 C 
BRANCH  16  17
ATOM     17  C   UNL     1      27.378   4.958  48.711  0.00  0.00    +0.000 C 
BRANCH  17  18
ATOM     18  C   UNL     1      27.961   6.305  48.169  0.00  0.00    +0.000 C 
ATOM     19  C   UNL     1      29.505   6.271  48.223  0.00  0.00    +0.000 C 
ATOM     20  C   UNL     1      30.153   7.623  47.925  0.00  0.00    +0.000 C 
ATOM     21  C   UNL     1      29.651   8.685  48.890  0.00  0.00    +0.000 C 
ATOM     22  C   UNL     1      28.141   8.830  48.790  0.00  0.00    +0.000 C 
ATOM     23  C   UNL     1      27.386   7.509  48.938  0.00  0.00    +0.000 C 
ENDBRANCH  17  18
ENDBRANCH  16  17
ENDBRANCH  12  16
ENDBRANCH  11  12
ENDBRANCH  10  11
ENDBRANCH   6   9
BRANCH   1  24
ATOM     24  C   UNL     1      25.750  -0.488  55.234  0.00  0.00    +0.000 C 
BRANCH  24  25
ATOM     25  C   UNL     1      24.574  -1.335  54.721  0.00  0.00    +0.000 C 
BRANCH  25  27
ATOM     26  C   UNL     1      22.240  -0.443  54.179  0.00  0.00    +0.000 C 
ATOM     27  C   UNL     1      23.214  -0.783  55.037  0.00  0.00    +0.000 C 
BRANCH  26  28
ATOM     28  C   UNL     1      22.290  -0.501  52.676  0.00  0.00    +0.000 C 
BRANCH  28  29
ATOM     29  C   UNL     1      22.627   0.875  52.095  0.00  0.00    +0.000 C 
BRANCH  29  30
ATOM     30  C   UNL     1      21.401   1.621  51.641  0.00  0.00    +0.000 C 
ATOM     31  O   UNL     1      20.715   1.361  50.663  0.00  0.00    +0.000 OA
BRANCH  30  33
ATOM     32  C   UNL     1      21.159   3.945  51.934  0.00  0.00    +0.000 C 
ATOM     33  O   UNL     1      21.152   2.640  52.517  0.00  0.00    +0.000 OA
ENDBRANCH  30  33
ENDBRANCH  29  30
ENDBRANCH  28  29
ENDBRANCH  26  28
ENDBRANCH  25  27
ENDBRANCH  24  25
ENDBRANCH   1  24
TORSDOF 15
ENDMDL
MODEL 7
REMARK VINA RESULT:    -6.912      1.596      2.277
REMARK INTER + INTRA:         -15.567
REMARK INTER:                 -12.844
REMARK INTRA:                  -2.723
REMARK UNBOUND:                -2.998
REMARK  Name = 
REMARK  17 active torsions:
REMARK  status: ('A' for Active; 'I' for Inactive)
REMARK    1  A    between atoms: C_1  and  O_2
REMARK    2  A    between atoms: O_2  and  C_3
REMARK    3  A    between atoms: C_3  and  C_5
REMARK    4  A    between atoms: C_5  and  C_6
REMARK    5  A    between atoms: C_6  and  C_7
REMARK    6  A    between atoms: C_8  and  C_9
REMARK    7  A    between atoms: C_9  and  C_10
REMARK    8  A    between atoms: C_10  and  C_11
REMARK    9  A    between atoms: C_15  and  O_16
REMARK   10  A    between atoms: C_17  and  C_18
REMARK   11  A    between atoms: C_19  and  C_20
REMARK   12  A    between atoms: C_20  and  C_21
REMARK   13  A    between atoms: C_21  and  C_22
REMARK   14  A    between atoms: C_21  and  O_23
REMARK   15  A    between atoms: C_21  and  C_24
REMARK   16  A    between atoms: C_24  and  C_25
REMARK   17  A    between atoms: C_25  and  C_26
REMARK                            x       y       z     vdW  Elec       q    Type
REMARK                         _______ _______ _______ _____ _____    ______ ____
ROOT
ATOM      1  C   UNL     1      24.345   4.723  49.554  0.00  0.00    +0.000 C 
ATOM      2  C   UNL     1      23.655   5.583  50.600  0.00  0.00    +0.000 C 
ATOM      3  O   UNL     1      23.753   5.402  51.808  0.00  0.00    +0.000 OA
ATOM      4  C   UNL     1      22.786   6.660  50.004  0.00  0.00    +0.000 C 
ATOM      5  C   UNL     1      23.181   6.600  48.532  0.00  0.00    +0.000 C 
ATOM      6  C   UNL     1      23.562   5.126  48.282  0.00  0.00    +0.000 C 
ENDROOT
BRANCH   5   7
ATOM      7  O   UNL     1      24.270   7.472  48.237  0.00  0.00    +0.000 OA
ATOM      8  H   UNL     1      24.031   8.046  47.492  0.00  0.00    +0.000 HD
ENDBRANCH   5   7
BRANCH   6   9
ATOM      9  C   UNL     1      22.275   4.324  48.070  0.00  0.00    +0.000 C 
ATOM     10  C   UNL     1      22.172   2.991  48.258  0.00  0.00    +0.000 C 
BRANCH  10  11
ATOM     11  C   UNL     1      20.901   2.199  48.303  0.00  0.00    +0.000 C 
BRANCH  11  12
ATOM     12  C   UNL     1      20.440   1.691  49.708  0.00  0.00    +0.000 C 
ATOM     13  C   UNL     1      20.133   2.951  50.531  0.00  0.00    +0.000 C 
BRANCH  12  14
ATOM     14  O   UNL     1      19.227   0.945  49.568  0.00  0.00    +0.000 OA
ATOM     15  H   UNL     1      19.213   0.226  50.218  0.00  0.00    +0.000 HD
ENDBRANCH  12  14
BRANCH  12  16
ATOM     16  C   UNL     1      21.491   0.787  50.431  0.00  0.00    +0.000 C 
BRANCH  16  17
ATOM     17  C   UNL     1      22.518   1.524  51.328  0.00  0.00    +0.000 C 
BRANCH  17  18
ATOM     18  C   UNL     1      22.535   1.081  52.828  0.00  0.00    +0.000 C 
ATOM     19  C   UNL     1      23.447  -0.154  53.002  0.00  0.00    +0.000 C 
ATOM     20  C   UNL     1      23.349  -0.791  54.389  0.00  0.00    +0.000 C 
ATOM     21  C   UNL     1      21.914  -1.191  54.697  0.00  0.00    +0.000 C 
ATOM     22  C   UNL     1      20.996   0.020  54.646  0.00  0.00    +0.000 C 
ATOM     23  C   UNL     1      21.108   0.821  53.348  0.00  0.00    +0.000 C 
ENDBRANCH  17  18
ENDBRANCH  16  17
ENDBRANCH  12  16
ENDBRANCH  11  12
ENDBRANCH  10  11
ENDBRANCH   6   9
BRANCH   1  24
ATOM     24  C   UNL     1      25.853   4.987  49.494  0.00  0.00    +0.000 C 
BRANCH  24  25
ATOM     25  C   UNL     1      26.710   3.781  49.912  0.00  0.00    +0.000 C 
BRANCH  25  27
ATOM     26  C   UNL     1      26.135   1.759  51.368  0.00  0.00    +0.000 C 
ATOM     27  C   UNL     1      25.928   2.563  50.314  0.00  0.00    +0.000 C 
BRANCH  26  28
ATOM     28  C   UNL     1      27.234   1.864  52.391  0.00  0.00    +0.000 C 
BRANCH  28  29
ATOM     29  C   UNL     1      27.663   0.474  52.867  0.00  0.00    +0.000 C 
BRANCH  29  30
ATOM     30  C   UNL     1      27.562   0.324  54.362  0.00  0.00    +0.000 C 
ATOM     31  O   UNL     1      26.593   0.599  55.054  0.00  0.00    +0.000 OA
BRANCH  30  33
ATOM     32  C   UNL     1      29.721  -0.455  53.835  0.00  0.00    +0.000 C 
ATOM     33  O   UNL     1      28.734  -0.195  54.835  0.00  0.00    +0.000 OA
ENDBRANCH  30  33
ENDBRANCH  29  30
ENDBRANCH  28  29
ENDBRANCH  26  28
ENDBRANCH  25  27
ENDBRANCH  24  25
ENDBRANCH   1  24
TORSDOF 15
ENDMDL
MODEL 8
REMARK VINA RESULT:    -6.843      1.654      6.589
REMARK INTER + INTRA:         -15.442
REMARK INTER:                 -12.366
REMARK INTRA:                  -3.076
REMARK UNBOUND:                -2.998
REMARK  Name = 
REMARK  17 active torsions:
REMARK  status: ('A' for Active; 'I' for Inactive)
REMARK    1  A    between atoms: C_1  and  O_2
REMARK    2  A    between atoms: O_2  and  C_3
REMARK    3  A    between atoms: C_3  and  C_5
REMARK    4  A    between atoms: C_5  and  C_6
REMARK    5  A    between atoms: C_6  and  C_7
REMARK    6  A    between atoms: C_8  and  C_9
REMARK    7  A    between atoms: C_9  and  C_10
REMARK    8  A    between atoms: C_10  and  C_11
REMARK    9  A    between atoms: C_15  and  O_16
REMARK   10  A    between atoms: C_17  and  C_18
REMARK   11  A    between atoms: C_19  and  C_20
REMARK   12  A    between atoms: C_20  and  C_21
REMARK   13  A    between atoms: C_21  and  C_22
REMARK   14  A    between atoms: C_21  and  O_23
REMARK   15  A    between atoms: C_21  and  C_24
REMARK   16  A    between atoms: C_24  and  C_25
REMARK   17  A    between atoms: C_25  and  C_26
REMARK                            x       y       z     vdW  Elec       q    Type
REMARK                         _______ _______ _______ _____ _____    ______ ____
ROOT
ATOM      1  C   UNL     1      23.839   4.721  48.942  0.00  0.00    +0.000 C 
ATOM      2  C   UNL     1      24.590   6.032  49.100  0.00  0.00    +0.000 C 
ATOM      3  O   UNL     1      24.964   6.725  48.161  0.00  0.00    +0.000 OA
ATOM      4  C   UNL     1      24.884   6.379  50.537  0.00  0.00    +0.000 C 
ATOM      5  C   UNL     1      24.040   5.351  51.284  0.00  0.00    +0.000 C 
ATOM      6  C   UNL     1      24.002   4.118  50.358  0.00  0.00    +0.000 C 
ENDROOT
BRANCH   5   7
ATOM      7  O   UNL     1      22.727   5.836  51.554  0.00  0.00    +0.000 OA
ATOM      8  H   UNL     1      22.593   6.680  51.095  0.00  0.00    +0.000 HD
ENDBRANCH   5   7
BRANCH   6   9
ATOM      9  C   UNL     1      25.303   3.332  50.547  0.00  0.00    +0.000 C 
ATOM     10  C   UNL     1      25.805   2.974  51.748  0.00  0.00    +0.000 C 
BRANCH  10  11
ATOM     11  C   UNL     1      26.927   2.010  51.986  0.00  0.00    +0.000 C 
BRANCH  11  12
ATOM     12  C   UNL     1      27.366   1.798  53.472  0.00  0.00    +0.000 C 
ATOM     13  C   UNL     1      28.571   0.848  53.422  0.00  0.00    +0.000 C 
BRANCH  12  14
ATOM     14  O   UNL     1      27.806   3.046  54.018  0.00  0.00    +0.000 OA
ATOM     15  H   UNL     1      28.773   3.044  54.090  0.00  0.00    +0.000 HD
ENDBRANCH  12  14
BRANCH  12  16
ATOM     16  C   UNL     1      26.236   1.231  54.392  0.00  0.00    +0.000 C 
BRANCH  16  17
ATOM     17  C   UNL     1      25.991  -0.297  54.302  0.00  0.00    +0.000 C 
BRANCH  17  18
ATOM     18  C   UNL     1      24.522  -0.720  53.972  0.00  0.00    +0.000 C 
ATOM     19  C   UNL     1      23.788   0.437  53.258  0.00  0.00    +0.000 C 
ATOM     20  C   UNL     1      22.287   0.197  53.098  0.00  0.00    +0.000 C 
ATOM     21  C   UNL     1      21.633  -0.040  54.450  0.00  0.00    +0.000 C 
ATOM     22  C   UNL     1      22.252  -1.244  55.143  0.00  0.00    +0.000 C 
ATOM     23  C   UNL     1      23.777  -1.178  55.240  0.00  0.00    +0.000 C 
ENDBRANCH  17  18
ENDBRANCH  16  17
ENDBRANCH  12  16
ENDBRANCH  11  12
ENDBRANCH  10  11
ENDBRANCH   6   9
BRANCH   1  24
ATOM     24  C   UNL     1      22.388   4.938  48.497  0.00  0.00    +0.000 C 
BRANCH  24  25
ATOM     25  C   UNL     1      21.977   4.080  47.289  0.00  0.00    +0.000 C 
BRANCH  25  27
ATOM     26  C   UNL     1      21.778   1.663  48.098  0.00  0.00    +0.000 C 
ATOM     27  C   UNL     1      22.367   2.633  47.382  0.00  0.00    +0.000 C 
BRANCH  26  28
ATOM     28  C   UNL     1      20.594   1.801  49.017  0.00  0.00    +0.000 C 
BRANCH  28  29
ATOM     29  C   UNL     1      21.050   1.853  50.478  0.00  0.00    +0.000 C 
BRANCH  29  30
ATOM     30  C   UNL     1      20.506   3.055  51.204  0.00  0.00    +0.000 C 
ATOM     31  O   UNL     1      21.002   3.594  52.183  0.00  0.00    +0.000 OA
BRANCH  30  33
ATOM     32  C   UNL     1      18.189   3.426  51.392  0.00  0.00    +0.000 C 
ATOM     33  O   UNL     1      19.364   3.471  50.581  0.00  0.00    +0.000 OA
ENDBRANCH  30  33
ENDBRANCH  29  30
ENDBRANCH  28  29
ENDBRANCH  26  28
ENDBRANCH  25  27
ENDBRANCH  24  25
ENDBRANCH   1  24
TORSDOF 15
ENDMDL
MODEL 9
REMARK VINA RESULT:    -6.697      2.330      6.038
REMARK INTER + INTRA:         -15.177
REMARK INTER:                 -11.981
REMARK INTRA:                  -3.197
REMARK UNBOUND:                -2.998
REMARK  Name = 
REMARK  17 active torsions:
REMARK  status: ('A' for Active; 'I' for Inactive)
REMARK    1  A    between atoms: C_1  and  O_2
REMARK    2  A    between atoms: O_2  and  C_3
REMARK    3  A    between atoms: C_3  and  C_5
REMARK    4  A    between atoms: C_5  and  C_6
REMARK    5  A    between atoms: C_6  and  C_7
REMARK    6  A    between atoms: C_8  and  C_9
REMARK    7  A    between atoms: C_9  and  C_10
REMARK    8  A    between atoms: C_10  and  C_11
REMARK    9  A    between atoms: C_15  and  O_16
REMARK   10  A    between atoms: C_17  and  C_18
REMARK   11  A    between atoms: C_19  and  C_20
REMARK   12  A    between atoms: C_20  and  C_21
REMARK   13  A    between atoms: C_21  and  C_22
REMARK   14  A    between atoms: C_21  and  O_23
REMARK   15  A    between atoms: C_21  and  C_24
REMARK   16  A    between atoms: C_24  and  C_25
REMARK   17  A    between atoms: C_25  and  C_26
REMARK                            x       y       z     vdW  Elec       q    Type
REMARK                         _______ _______ _______ _____ _____    ______ ____
ROOT
ATOM      1  C   UNL     1      25.805   1.303  51.660  0.00  0.00    +0.000 C 
ATOM      2  C   UNL     1      26.470   0.158  52.407  0.00  0.00    +0.000 C 
ATOM      3  O   UNL     1      26.901  -0.854  51.867  0.00  0.00    +0.000 OA
ATOM      4  C   UNL     1      26.502   0.361  53.900  0.00  0.00    +0.000 C 
ATOM      5  C   UNL     1      26.065   1.818  54.025  0.00  0.00    +0.000 C 
ATOM      6  C   UNL     1      25.121   2.054  52.827  0.00  0.00    +0.000 C 
ENDROOT
BRANCH   5   7
ATOM      7  O   UNL     1      27.175   2.711  53.993  0.00  0.00    +0.000 OA
ATOM      8  H   UNL     1      27.547   2.732  53.098  0.00  0.00    +0.000 HD
ENDBRANCH   5   7
BRANCH   6   9
ATOM      9  C   UNL     1      23.738   1.506  53.187  0.00  0.00    +0.000 C 
ATOM     10  C   UNL     1      22.942   0.834  52.328  0.00  0.00    +0.000 C 
BRANCH  10  11
ATOM     11  C   UNL     1      21.701   0.072  52.683  0.00  0.00    +0.000 C 
BRANCH  11  12
ATOM     12  C   UNL     1      20.374   0.535  51.998  0.00  0.00    +0.000 C 
ATOM     13  C   UNL     1      20.669   0.570  50.491  0.00  0.00    +0.000 C 
BRANCH  12  14
ATOM     14  O   UNL     1      19.356  -0.444  52.229  0.00  0.00    +0.000 OA
ATOM     15  H   UNL     1      18.540  -0.173  51.781  0.00  0.00    +0.000 HD
ENDBRANCH  12  14
BRANCH  12  16
ATOM     16  C   UNL     1      19.848   1.917  52.504  0.00  0.00    +0.000 C 
BRANCH  16  17
ATOM     17  C   UNL     1      19.535   2.966  51.406  0.00  0.00    +0.000 C 
BRANCH  17  18
ATOM     18  C   UNL     1      20.545   4.156  51.310  0.00  0.00    +0.000 C 
ATOM     19  C   UNL     1      21.332   4.075  49.982  0.00  0.00    +0.000 C 
ATOM     20  C   UNL     1      22.494   5.064  49.903  0.00  0.00    +0.000 C 
ATOM     21  C   UNL     1      23.459   4.855  51.060  0.00  0.00    +0.000 C 
ATOM     22  C   UNL     1      22.748   5.037  52.391  0.00  0.00    +0.000 C 
ATOM     23  C   UNL     1      21.482   4.190  52.532  0.00  0.00    +0.000 C 
ENDBRANCH  17  18
ENDBRANCH  16  17
ENDBRANCH  12  16
ENDBRANCH  11  12
ENDBRANCH  10  11
ENDBRANCH   6   9
BRANCH   1  24
ATOM     24  C   UNL     1      26.816   2.133  50.863  0.00  0.00    +0.000 C 
BRANCH  24  25
ATOM     25  C   UNL     1      26.175   3.262  50.039  0.00  0.00    +0.000 C 
BRANCH  25  27
ATOM     26  C   UNL     1      26.986   5.278  48.691  0.00  0.00    +0.000 C 
ATOM     27  C   UNL     1      27.133   4.037  49.181  0.00  0.00    +0.000 C 
BRANCH  26  28
ATOM     28  C   UNL     1      25.797   6.187  48.857  0.00  0.00    +0.000 C 
BRANCH  28  29
ATOM     29  C   UNL     1      26.109   7.303  49.858  0.00  0.00    +0.000 C 
BRANCH  29  30
ATOM     30  C   UNL     1      25.017   8.339  49.918  0.00  0.00    +0.000 C 
ATOM     31  O   UNL     1      23.993   8.273  50.582  0.00  0.00    +0.000 OA
BRANCH  30  33
ATOM     32  C   UNL     1      26.739   9.767  49.182  0.00  0.00    +0.000 C 
ATOM     33  O   UNL     1      25.361   9.393  49.120  0.00  0.00    +0.000 OA
ENDBRANCH  30  33
ENDBRANCH  29  30
ENDBRANCH  28  29
ENDBRANCH  26  28
ENDBRANCH  25  27
ENDBRANCH  24  25
ENDBRANCH   1  24
TORSDOF 15
ENDMDL
