MODEL 1
REMARK VINA RESULT:    -8.484      0.000      0.000
REMARK INTER + INTRA:         -13.567
REMARK INTER:                 -12.452
REMARK INTRA:                  -1.115
REMARK UNBOUND:                -1.115
REMARK  Name = 
REMARK  12 active torsions:
REMARK  status: ('A' for Active; 'I' for Inactive)
REMARK    1  A    between atoms: C_1  and  C_2
REMARK    2  A    between atoms: C_2  and  C_3
REMARK    3  A    between atoms: C_3  and  C_4
REMARK    4  A    between atoms: C_4  and  O_6
REMARK    5  A    between atoms: O_6  and  C_7
REMARK    6  A    between atoms: C_7  and  C_8
REMARK    7  A    between atoms: C_7  and  C_13
REMARK    8  A    between atoms: C_8  and  C_9
REMARK    9  A    between atoms: C_10  and  C_11
REMARK   10  A    between atoms: C_10  and  C_12
REMARK   11  A    between atoms: C_18  and  O_19
REMARK   12  A    between atoms: C_22  and  O_23
REMARK                            x       y       z     vdW  Elec       q    Type
REMARK                         _______ _______ _______ _____ _____    ______ ____
ROOT
ATOM      1  C   UNL     1      24.744   0.212  53.124  0.00  0.00    +0.000 C 
ATOM      2  C   UNL     1      25.149  -1.017  52.754  0.00  0.00    +0.000 C 
ATOM      3  C   UNL     1      26.539  -1.468  52.741  0.00  0.00    +0.000 C 
ATOM      4  O   UNL     1      26.824  -2.604  52.379  0.00  0.00    +0.000 OA
ATOM      5  C   UNL     1      27.566  -0.553  53.253  0.00  0.00    +0.000 A 
ATOM      6  C   UNL     1      28.867  -1.032  53.458  0.00  0.00    +0.000 A 
ATOM      7  C   UNL     1      29.867  -0.173  53.887  0.00  0.00    +0.000 A 
ATOM      8  C   UNL     1      29.567   1.167  54.110  0.00  0.00    +0.000 A 
ATOM      9  C   UNL     1      28.258   1.633  53.931  0.00  0.00    +0.000 A 
ATOM     10  C   UNL     1      27.228   0.776  53.514  0.00  0.00    +0.000 A 
ATOM     11  C   UNL     1      25.810   1.240  53.331  0.00  0.00    +0.000 C 
ATOM     12  O   UNL     1      25.506   2.426  53.319  0.00  0.00    +0.000 OA
ENDROOT
BRANCH   6  13
ATOM     13  O   UNL     1      29.236  -2.336  53.261  0.00  0.00    +0.000 OA
ATOM     14  H   UNL     1      29.864  -2.551  52.600  0.00  0.00    +0.000 HD
ENDBRANCH   6  13
BRANCH   9  15
ATOM     15  O   UNL     1      28.010   2.955  54.183  0.00  0.00    +0.000 OA
ATOM     16  H   UNL     1      27.219   3.351  53.872  0.00  0.00    +0.000 HD
ENDBRANCH   9  15
BRANCH   1  17
ATOM     17  C   UNL     1      23.245   0.578  53.369  0.00  0.00    +0.000 C 
BRANCH  17  18
ATOM     18  O   UNL     1      22.499  -0.346  54.212  0.00  0.00    +0.000 OA
BRANCH  18  19
ATOM     19  C   UNL     1      21.170  -0.173  54.410  0.00  0.00    +0.000 C 
ATOM     20  O   UNL     1      20.687   0.731  55.085  0.00  0.00    +0.000 OA
BRANCH  19  21
ATOM     21  C   UNL     1      20.325  -1.315  53.866  0.00  0.00    +0.000 C 
BRANCH  21  23
ATOM     22  C   UNL     1      18.924  -0.088  52.077  0.00  0.00    +0.000 C 
ATOM     23  C   UNL     1      18.944  -1.040  53.268  0.00  0.00    +0.000 C 
ENDBRANCH  21  23
ENDBRANCH  19  21
ENDBRANCH  18  19
ENDBRANCH  17  18
BRANCH  17  24
ATOM     24  C   UNL     1      22.534   0.787  51.994  0.00  0.00    +0.000 C 
BRANCH  24  25
ATOM     25  C   UNL     1      22.849   1.643  50.801  0.00  0.00    +0.000 C 
ATOM     26  C   UNL     1      22.407   1.852  49.551  0.00  0.00    +0.000 C 
ATOM     27  C   UNL     1      23.091   2.921  48.724  0.00  0.00    +0.000 C 
ATOM     28  C   UNL     1      21.288   1.144  48.854  0.00  0.00    +0.000 C 
ENDBRANCH  24  25
ENDBRANCH  17  24
ENDBRANCH   1  17
TORSDOF 9
ENDMDL
MODEL 2
REMARK VINA RESULT:    -8.191      1.758      2.350
REMARK INTER + INTRA:         -13.137
REMARK INTER:                 -12.001
REMARK INTRA:                  -1.135
REMARK UNBOUND:                -1.115
REMARK  Name = 
REMARK  12 active torsions:
REMARK  status: ('A' for Active; 'I' for Inactive)
REMARK    1  A    between atoms: C_1  and  C_2
REMARK    2  A    between atoms: C_2  and  C_3
REMARK    3  A    between atoms: C_3  and  C_4
REMARK    4  A    between atoms: C_4  and  O_6
REMARK    5  A    between atoms: O_6  and  C_7
REMARK    6  A    between atoms: C_7  and  C_8
REMARK    7  A    between atoms: C_7  and  C_13
REMARK    8  A    between atoms: C_8  and  C_9
REMARK    9  A    between atoms: C_10  and  C_11
REMARK   10  A    between atoms: C_10  and  C_12
REMARK   11  A    between atoms: C_18  and  O_19
REMARK   12  A    between atoms: C_22  and  O_23
REMARK                            x       y       z     vdW  Elec       q    Type
REMARK                         _______ _______ _______ _____ _____    ______ ____
ROOT
ATOM      1  C   UNL     1      25.676   0.921  52.573  0.00  0.00    +0.000 C 
ATOM      2  C   UNL     1      25.550  -0.375  52.229  0.00  0.00    +0.000 C 
ATOM      3  C   UNL     1      26.617  -1.369  52.321  0.00  0.00    +0.000 C 
ATOM      4  O   UNL     1      26.422  -2.529  51.975  0.00  0.00    +0.000 OA
ATOM      5  C   UNL     1      27.895  -0.957  52.914  0.00  0.00    +0.000 A 
ATOM      6  C   UNL     1      28.854  -1.933  53.216  0.00  0.00    +0.000 A 
ATOM      7  C   UNL     1      30.090  -1.563  53.724  0.00  0.00    +0.000 A 
ATOM      8  C   UNL     1      30.368  -0.216  53.932  0.00  0.00    +0.000 A 
ATOM      9  C   UNL     1      29.394   0.753  53.655  0.00  0.00    +0.000 A 
ATOM     10  C   UNL     1      28.131   0.397  53.155  0.00  0.00    +0.000 A 
ATOM     11  C   UNL     1      27.058   1.410  52.867  0.00  0.00    +0.000 C 
ATOM     12  O   UNL     1      27.284   2.613  52.838  0.00  0.00    +0.000 OA
ENDROOT
BRANCH   6  13
ATOM     13  O   UNL     1      28.652  -3.277  53.041  0.00  0.00    +0.000 OA
ATOM     14  H   UNL     1      29.113  -3.736  52.367  0.00  0.00    +0.000 HD
ENDBRANCH   6  13
BRANCH   9  15
ATOM     15  O   UNL     1      29.709   2.062  53.894  0.00  0.00    +0.000 OA
ATOM     16  H   UNL     1      29.947   2.336  54.759  0.00  0.00    +0.000 HD
ENDBRANCH   9  15
BRANCH   1  17
ATOM     17  C   UNL     1      24.457   1.890  52.705  0.00  0.00    +0.000 C 
BRANCH  17  18
ATOM     18  O   UNL     1      23.323   1.379  53.462  0.00  0.00    +0.000 OA
BRANCH  18  19
ATOM     19  C   UNL     1      22.132   1.165  52.852  0.00  0.00    +0.000 C 
ATOM     20  O   UNL     1      21.233   1.998  52.788  0.00  0.00    +0.000 OA
BRANCH  19  21
ATOM     21  C   UNL     1      21.934  -0.274  52.403  0.00  0.00    +0.000 C 
BRANCH  21  23
ATOM     22  C   UNL     1      21.593  -1.053  54.842  0.00  0.00    +0.000 C 
ATOM     23  C   UNL     1      21.996  -1.418  53.418  0.00  0.00    +0.000 C 
ENDBRANCH  21  23
ENDBRANCH  19  21
ENDBRANCH  18  19
ENDBRANCH  17  18
BRANCH  17  24
ATOM     24  C   UNL     1      24.019   2.363  51.282  0.00  0.00    +0.000 C 
BRANCH  24  25
ATOM     25  C   UNL     1      24.359   3.572  50.459  0.00  0.00    +0.000 C 
ATOM     26  C   UNL     1      25.368   4.044  49.710  0.00  0.00    +0.000 C 
ATOM     27  C   UNL     1      25.179   5.380  49.022  0.00  0.00    +0.000 C 
ATOM     28  C   UNL     1      26.694   3.396  49.461  0.00  0.00    +0.000 C 
ENDBRANCH  24  25
ENDBRANCH  17  24
ENDBRANCH   1  17
TORSDOF 9
ENDMDL
MODEL 3
REMARK VINA RESULT:    -8.059      1.999      5.072
REMARK INTER + INTRA:         -12.943
REMARK INTER:                 -11.819
REMARK INTRA:                  -1.124
REMARK UNBOUND:                -1.115
REMARK  Name = 
REMARK  12 active torsions:
REMARK  status: ('A' for Active; 'I' for Inactive)
REMARK    1  A    between atoms: C_1  and  C_2
REMARK    2  A    between atoms: C_2  and  C_3
REMARK    3  A    between atoms: C_3  and  C_4
REMARK    4  A    between atoms: C_4  and  O_6
REMARK    5  A    between atoms: O_6  and  C_7
REMARK    6  A    between atoms: C_7  and  C_8
REMARK    7  A    between atoms: C_7  and  C_13
REMARK    8  A    between atoms: C_8  and  C_9
REMARK    9  A    between atoms: C_10  and  C_11
REMARK   10  A    between atoms: C_10  and  C_12
REMARK   11  A    between atoms: C_18  and  O_19
REMARK   12  A    between atoms: C_22  and  O_23
REMARK                            x       y       z     vdW  Elec       q    Type
REMARK                         _______ _______ _______ _____ _____    ______ ____
ROOT
ATOM      1  C   UNL     1      25.338   1.209  52.636  0.00  0.00    +0.000 C 
ATOM      2  C   UNL     1      26.189   2.102  53.176  0.00  0.00    +0.000 C 
ATOM      3  C   UNL     1      27.545   1.795  53.627  0.00  0.00    +0.000 C 
ATOM      4  O   UNL     1      28.252   2.667  54.118  0.00  0.00    +0.000 OA
ATOM      5  C   UNL     1      28.057   0.438  53.398  0.00  0.00    +0.000 A 
ATOM      6  C   UNL     1      29.417   0.176  53.616  0.00  0.00    +0.000 A 
ATOM      7  C   UNL     1      29.913  -1.109  53.460  0.00  0.00    +0.000 A 
ATOM      8  C   UNL     1      29.050  -2.133  53.086  0.00  0.00    +0.000 A 
ATOM      9  C   UNL     1      27.698  -1.859  52.840  0.00  0.00    +0.000 A 
ATOM     10  C   UNL     1      27.180  -0.561  52.976  0.00  0.00    +0.000 A 
ATOM     11  C   UNL     1      25.739  -0.230  52.702  0.00  0.00    +0.000 C 
ATOM     12  O   UNL     1      24.884  -1.094  52.559  0.00  0.00    +0.000 OA
ENDROOT
BRANCH   6  13
ATOM     13  O   UNL     1      30.325   1.133  53.984  0.00  0.00    +0.000 OA
ATOM     14  H   UNL     1      30.953   0.950  54.655  0.00  0.00    +0.000 HD
ENDBRANCH   6  13
BRANCH   9  15
ATOM     15  O   UNL     1      26.894  -2.897  52.455  0.00  0.00    +0.000 OA
ATOM     16  H   UNL     1      27.148  -3.445  51.738  0.00  0.00    +0.000 HD
ENDBRANCH   9  15
BRANCH   1  17
ATOM     17  C   UNL     1      24.003   1.619  51.935  0.00  0.00    +0.000 C 
BRANCH  17  18
ATOM     18  O   UNL     1      24.000   2.930  51.301  0.00  0.00    +0.000 OA
BRANCH  18  19
ATOM     19  C   UNL     1      23.915   3.040  49.953  0.00  0.00    +0.000 C 
ATOM     20  O   UNL     1      23.183   2.348  49.252  0.00  0.00    +0.000 OA
BRANCH  19  21
ATOM     21  C   UNL     1      24.949   3.983  49.358  0.00  0.00    +0.000 C 
BRANCH  21  23
ATOM     22  C   UNL     1      27.389   4.636  48.820  0.00  0.00    +0.000 C 
ATOM     23  C   UNL     1      26.437   3.790  49.658  0.00  0.00    +0.000 C 
ENDBRANCH  21  23
ENDBRANCH  19  21
ENDBRANCH  18  19
ENDBRANCH  17  18
BRANCH  17  24
ATOM     24  C   UNL     1      22.825   1.481  52.951  0.00  0.00    +0.000 C 
BRANCH  24  25
ATOM     25  C   UNL     1      21.857   0.372  53.246  0.00  0.00    +0.000 C 
ATOM     26  C   UNL     1      21.726  -0.672  54.079  0.00  0.00    +0.000 C 
ATOM     27  C   UNL     1      20.464  -1.505  53.985  0.00  0.00    +0.000 C 
ATOM     28  C   UNL     1      22.698  -1.128  55.122  0.00  0.00    +0.000 C 
ENDBRANCH  24  25
ENDBRANCH  17  24
ENDBRANCH   1  17
TORSDOF 9
ENDMDL
MODEL 4
REMARK VINA RESULT:    -7.710      1.656      3.521
REMARK INTER + INTRA:         -12.430
REMARK INTER:                 -11.543
REMARK INTRA:                  -0.887
REMARK UNBOUND:                -1.115
REMARK  Name = 
REMARK  12 active torsions:
REMARK  status: ('A' for Active; 'I' for Inactive)
REMARK    1  A    between atoms: C_1  and  C_2
REMARK    2  A    between atoms: C_2  and  C_3
REMARK    3  A    between atoms: C_3  and  C_4
REMARK    4  A    between atoms: C_4  and  O_6
REMARK    5  A    between atoms: O_6  and  C_7
REMARK    6  A    between atoms: C_7  and  C_8
REMARK    7  A    between atoms: C_7  and  C_13
REMARK    8  A    between atoms: C_8  and  C_9
REMARK    9  A    between atoms: C_10  and  C_11
REMARK   10  A    between atoms: C_10  and  C_12
REMARK   11  A    between atoms: C_18  and  O_19
REMARK   12  A    between atoms: C_22  and  O_23
REMARK                            x       y       z     vdW  Elec       q    Type
REMARK                         _______ _______ _______ _____ _____    ______ ____
ROOT
ATOM      1  C   UNL     1      25.433   0.706  52.523  0.00  0.00    +0.000 C 
ATOM      2  C   UNL     1      25.502  -0.612  52.255  0.00  0.00    +0.000 C 
ATOM      3  C   UNL     1      26.700  -1.433  52.416  0.00  0.00    +0.000 C 
ATOM      4  O   UNL     1      26.680  -2.627  52.139  0.00  0.00    +0.000 OA
ATOM      5  C   UNL     1      27.894  -0.806  52.995  0.00  0.00    +0.000 A 
ATOM      6  C   UNL     1      28.979  -1.614  53.364  0.00  0.00    +0.000 A 
ATOM      7  C   UNL     1      30.139  -1.039  53.861  0.00  0.00    +0.000 A 
ATOM      8  C   UNL     1      30.215   0.343  53.990  0.00  0.00    +0.000 A 
ATOM      9  C   UNL     1      29.116   1.143  53.647  0.00  0.00    +0.000 A 
ATOM     10  C   UNL     1      27.927   0.580  53.158  0.00  0.00    +0.000 A 
ATOM     11  C   UNL     1      26.724   1.407  52.800  0.00  0.00    +0.000 C 
ATOM     12  O   UNL     1      26.774   2.626  52.701  0.00  0.00    +0.000 OA
ENDROOT
BRANCH   6  13
ATOM     13  O   UNL     1      28.976  -2.980  53.267  0.00  0.00    +0.000 OA
ATOM     14  H   UNL     1      29.745  -3.467  53.488  0.00  0.00    +0.000 HD
ENDBRANCH   6  13
BRANCH   9  15
ATOM     15  O   UNL     1      29.235   2.496  53.811  0.00  0.00    +0.000 OA
ATOM     16  H   UNL     1      28.756   3.079  53.253  0.00  0.00    +0.000 HD
ENDBRANCH   9  15
BRANCH   1  17
ATOM     17  C   UNL     1      24.085   1.494  52.586  0.00  0.00    +0.000 C 
BRANCH  17  18
ATOM     18  O   UNL     1      24.192   2.899  52.952  0.00  0.00    +0.000 OA
BRANCH  18  19
ATOM     19  C   UNL     1      23.552   3.847  52.225  0.00  0.00    +0.000 C 
ATOM     20  O   UNL     1      23.146   4.910  52.686  0.00  0.00    +0.000 OA
BRANCH  19  21
ATOM     21  C   UNL     1      23.216   3.398  50.811  0.00  0.00    +0.000 C 
BRANCH  21  23
ATOM     22  C   UNL     1      25.511   3.440  49.630  0.00  0.00    +0.000 C 
ATOM     23  C   UNL     1      24.053   3.882  49.625  0.00  0.00    +0.000 C 
ENDBRANCH  21  23
ENDBRANCH  19  21
ENDBRANCH  18  19
ENDBRANCH  17  18
BRANCH  17  24
ATOM     24  C   UNL     1      23.091   0.739  53.527  0.00  0.00    +0.000 C 
BRANCH  24  25
ATOM     25  C   UNL     1      21.661   0.310  53.367  0.00  0.00    +0.000 C 
ATOM     26  C   UNL     1      20.749   0.144  52.397  0.00  0.00    +0.000 C 
ATOM     27  C   UNL     1      19.382  -0.379  52.786  0.00  0.00    +0.000 C 
ATOM     28  C   UNL     1      20.919   0.418  50.935  0.00  0.00    +0.000 C 
ENDBRANCH  24  25
ENDBRANCH  17  24
ENDBRANCH   1  17
TORSDOF 9
ENDMDL
MODEL 5
REMARK VINA RESULT:    -7.683      2.973      6.961
REMARK INTER + INTRA:         -12.391
REMARK INTER:                 -11.602
REMARK INTRA:                  -0.788
REMARK UNBOUND:                -1.115
REMARK  Name = 
REMARK  12 active torsions:
REMARK  status: ('A' for Active; 'I' for Inactive)
REMARK    1  A    between atoms: C_1  and  C_2
REMARK    2  A    between atoms: C_2  and  C_3
REMARK    3  A    between atoms: C_3  and  C_4
REMARK    4  A    between atoms: C_4  and  O_6
REMARK    5  A    between atoms: O_6  and  C_7
REMARK    6  A    between atoms: C_7  and  C_8
REMARK    7  A    between atoms: C_7  and  C_13
REMARK    8  A    between atoms: C_8  and  C_9
REMARK    9  A    between atoms: C_10  and  C_11
REMARK   10  A    between atoms: C_10  and  C_12
REMARK   11  A    between atoms: C_18  and  O_19
REMARK   12  A    between atoms: C_22  and  O_23
REMARK                            x       y       z     vdW  Elec       q    Type
REMARK                         _______ _______ _______ _____ _____    ______ ____
ROOT
ATOM      1  C   UNL     1      25.764   2.507  51.738  0.00  0.00    +0.000 C 
ATOM      2  C   UNL     1      26.488   2.807  50.644  0.00  0.00    +0.000 C 
ATOM      3  C   UNL     1      26.270   3.975  49.794  0.00  0.00    +0.000 C 
ATOM      4  O   UNL     1      26.970   4.168  48.806  0.00  0.00    +0.000 OA
ATOM      5  C   UNL     1      25.248   4.945  50.204  0.00  0.00    +0.000 A 
ATOM      6  C   UNL     1      25.167   6.175  49.536  0.00  0.00    +0.000 A 
ATOM      7  C   UNL     1      24.174   7.085  49.869  0.00  0.00    +0.000 A 
ATOM      8  C   UNL     1      23.262   6.765  50.869  0.00  0.00    +0.000 A 
ATOM      9  C   UNL     1      23.367   5.546  51.552  0.00  0.00    +0.000 A 
ATOM     10  C   UNL     1      24.374   4.619  51.242  0.00  0.00    +0.000 A 
ATOM     11  C   UNL     1      24.525   3.312  51.969  0.00  0.00    +0.000 C 
ATOM     12  O   UNL     1      23.661   2.875  52.717  0.00  0.00    +0.000 OA
ENDROOT
BRANCH   6  13
ATOM     13  O   UNL     1      26.030   6.559  48.544  0.00  0.00    +0.000 OA
ATOM     14  H   UNL     1      25.696   6.835  47.714  0.00  0.00    +0.000 HD
ENDBRANCH   6  13
BRANCH   9  15
ATOM     15  O   UNL     1      22.457   5.288  52.541  0.00  0.00    +0.000 OA
ATOM     16  H   UNL     1      22.470   5.790  53.332  0.00  0.00    +0.000 HD
ENDBRANCH   9  15
BRANCH   1  17
ATOM     17  C   UNL     1      26.182   1.402  52.761  0.00  0.00    +0.000 C 
BRANCH  17  18
ATOM     18  O   UNL     1      27.581   1.000  52.720  0.00  0.00    +0.000 OA
BRANCH  18  19
ATOM     19  C   UNL     1      28.451   1.451  53.655  0.00  0.00    +0.000 C 
ATOM     20  O   UNL     1      28.776   2.628  53.782  0.00  0.00    +0.000 OA
BRANCH  19  21
ATOM     21  C   UNL     1      29.138   0.335  54.428  0.00  0.00    +0.000 C 
BRANCH  21  23
ATOM     22  C   UNL     1      29.159  -1.981  53.287  0.00  0.00    +0.000 C 
ATOM     23  C   UNL     1      29.942  -0.737  53.690  0.00  0.00    +0.000 C 
ENDBRANCH  21  23
ENDBRANCH  19  21
ENDBRANCH  18  19
ENDBRANCH  17  18
BRANCH  17  24
ATOM     24  C   UNL     1      25.235   0.169  52.603  0.00  0.00    +0.000 C 
BRANCH  24  25
ATOM     25  C   UNL     1      24.163  -0.414  53.477  0.00  0.00    +0.000 C 
ATOM     26  C   UNL     1      22.833  -0.595  53.474  0.00  0.00    +0.000 C 
ATOM     27  C   UNL     1      22.210  -1.316  54.652  0.00  0.00    +0.000 C 
ATOM     28  C   UNL     1      21.860  -0.166  52.421  0.00  0.00    +0.000 C 
ENDBRANCH  24  25
ENDBRANCH  17  24
ENDBRANCH   1  17
TORSDOF 9
ENDMDL
MODEL 6
REMARK VINA RESULT:    -7.667      3.179      6.171
REMARK INTER + INTRA:         -12.367
REMARK INTER:                 -11.209
REMARK INTRA:                  -1.158
REMARK UNBOUND:                -1.115
REMARK  Name = 
REMARK  12 active torsions:
REMARK  status: ('A' for Active; 'I' for Inactive)
REMARK    1  A    between atoms: C_1  and  C_2
REMARK    2  A    between atoms: C_2  and  C_3
REMARK    3  A    between atoms: C_3  and  C_4
REMARK    4  A    between atoms: C_4  and  O_6
REMARK    5  A    between atoms: O_6  and  C_7
REMARK    6  A    between atoms: C_7  and  C_8
REMARK    7  A    between atoms: C_7  and  C_13
REMARK    8  A    between atoms: C_8  and  C_9
REMARK    9  A    between atoms: C_10  and  C_11
REMARK   10  A    between atoms: C_10  and  C_12
REMARK   11  A    between atoms: C_18  and  O_19
REMARK   12  A    between atoms: C_22  and  O_23
REMARK                            x       y       z     vdW  Elec       q    Type
REMARK                         _______ _______ _______ _____ _____    ______ ____
ROOT
ATOM      1  C   UNL     1      25.171   2.359  51.197  0.00  0.00    +0.000 C 
ATOM      2  C   UNL     1      26.183   2.700  50.377  0.00  0.00    +0.000 C 
ATOM      3  C   UNL     1      26.407   4.041  49.842  0.00  0.00    +0.000 C 
ATOM      4  O   UNL     1      27.349   4.264  49.090  0.00  0.00    +0.000 OA
ATOM      5  C   UNL     1      25.523   5.122  50.296  0.00  0.00    +0.000 A 
ATOM      6  C   UNL     1      25.845   6.448  49.975  0.00  0.00    +0.000 A 
ATOM      7  C   UNL     1      24.996   7.480  50.345  0.00  0.00    +0.000 A 
ATOM      8  C   UNL     1      23.825   7.188  51.035  0.00  0.00    +0.000 A 
ATOM      9  C   UNL     1      23.523   5.863  51.377  0.00  0.00    +0.000 A 
ATOM     10  C   UNL     1      24.377   4.805  51.027  0.00  0.00    +0.000 A 
ATOM     11  C   UNL     1      24.093   3.376  51.396  0.00  0.00    +0.000 C 
ATOM     12  O   UNL     1      23.005   3.015  51.827  0.00  0.00    +0.000 OA
ENDROOT
BRANCH   6  13
ATOM     13  O   UNL     1      26.980   6.812  49.300  0.00  0.00    +0.000 OA
ATOM     14  H   UNL     1      27.036   6.683  48.374  0.00  0.00    +0.000 HD
ENDBRANCH   6  13
BRANCH   9  15
ATOM     15  O   UNL     1      22.369   5.630  52.074  0.00  0.00    +0.000 OA
ATOM     16  H   UNL     1      21.544   5.895  51.715  0.00  0.00    +0.000 HD
ENDBRANCH   9  15
BRANCH   1  17
ATOM     17  C   UNL     1      25.107   0.992  51.950  0.00  0.00    +0.000 C 
BRANCH  17  18
ATOM     18  O   UNL     1      24.762   1.064  53.363  0.00  0.00    +0.000 OA
BRANCH  18  19
ATOM     19  C   UNL     1      24.394  -0.052  54.037  0.00  0.00    +0.000 C 
ATOM     20  O   UNL     1      25.111  -0.636  54.844  0.00  0.00    +0.000 OA
BRANCH  19  21
ATOM     21  C   UNL     1      23.068  -0.630  53.568  0.00  0.00    +0.000 C 
BRANCH  21  23
ATOM     22  C   UNL     1      20.794   0.456  54.133  0.00  0.00    +0.000 C 
ATOM     23  C   UNL     1      21.841  -0.595  54.482  0.00  0.00    +0.000 C 
ENDBRANCH  21  23
ENDBRANCH  19  21
ENDBRANCH  18  19
ENDBRANCH  17  18
BRANCH  17  24
ATOM     24  C   UNL     1      26.451   0.223  51.736  0.00  0.00    +0.000 C 
BRANCH  24  25
ATOM     25  C   UNL     1      27.682   0.065  52.581  0.00  0.00    +0.000 C 
ATOM     26  C   UNL     1      28.514   0.816  53.319  0.00  0.00    +0.000 C 
ATOM     27  C   UNL     1      29.649   0.119  54.042  0.00  0.00    +0.000 C 
ATOM     28  C   UNL     1      28.458   2.296  53.527  0.00  0.00    +0.000 C 
ENDBRANCH  24  25
ENDBRANCH  17  24
ENDBRANCH   1  17
TORSDOF 9
ENDMDL
MODEL 7
REMARK VINA RESULT:    -7.648      2.309      4.045
REMARK INTER + INTRA:         -12.340
REMARK INTER:                 -11.143
REMARK INTRA:                  -1.197
REMARK UNBOUND:                -1.115
REMARK  Name = 
REMARK  12 active torsions:
REMARK  status: ('A' for Active; 'I' for Inactive)
REMARK    1  A    between atoms: C_1  and  C_2
REMARK    2  A    between atoms: C_2  and  C_3
REMARK    3  A    between atoms: C_3  and  C_4
REMARK    4  A    between atoms: C_4  and  O_6
REMARK    5  A    between atoms: O_6  and  C_7
REMARK    6  A    between atoms: C_7  and  C_8
REMARK    7  A    between atoms: C_7  and  C_13
REMARK    8  A    between atoms: C_8  and  C_9
REMARK    9  A    between atoms: C_10  and  C_11
REMARK   10  A    between atoms: C_10  and  C_12
REMARK   11  A    between atoms: C_18  and  O_19
REMARK   12  A    between atoms: C_22  and  O_23
REMARK                            x       y       z     vdW  Elec       q    Type
REMARK                         _______ _______ _______ _____ _____    ______ ____
ROOT
ATOM      1  C   UNL     1      23.460   1.132  52.239  0.00  0.00    +0.000 C 
ATOM      2  C   UNL     1      23.595   0.158  53.159  0.00  0.00    +0.000 C 
ATOM      3  C   UNL     1      24.843  -0.181  53.839  0.00  0.00    +0.000 C 
ATOM      4  O   UNL     1      24.880  -1.092  54.658  0.00  0.00    +0.000 OA
ATOM      5  C   UNL     1      26.021   0.653  53.574  0.00  0.00    +0.000 A 
ATOM      6  C   UNL     1      27.164   0.493  54.369  0.00  0.00    +0.000 A 
ATOM      7  C   UNL     1      28.308   1.230  54.102  0.00  0.00    +0.000 A 
ATOM      8  C   UNL     1      28.310   2.127  53.039  0.00  0.00    +0.000 A 
ATOM      9  C   UNL     1      27.155   2.304  52.267  0.00  0.00    +0.000 A 
ATOM     10  C   UNL     1      25.982   1.580  52.531  0.00  0.00    +0.000 A 
ATOM     11  C   UNL     1      24.720   1.760  51.734  0.00  0.00    +0.000 C 
ATOM     12  O   UNL     1      24.696   2.377  50.677  0.00  0.00    +0.000 OA
ENDROOT
BRANCH   6  13
ATOM     13  O   UNL     1      27.236  -0.368  55.431  0.00  0.00    +0.000 OA
ATOM     14  H   UNL     1      27.815  -0.186  56.144  0.00  0.00    +0.000 HD
ENDBRANCH   6  13
BRANCH   9  15
ATOM     15  O   UNL     1      27.202   3.213  51.245  0.00  0.00    +0.000 OA
ATOM     16  H   UNL     1      28.028   3.464  50.879  0.00  0.00    +0.000 HD
ENDBRANCH   9  15
BRANCH   1  17
ATOM     17  C   UNL     1      22.073   1.634  51.725  0.00  0.00    +0.000 C 
BRANCH  17  18
ATOM     18  O   UNL     1      21.400   2.608  52.573  0.00  0.00    +0.000 OA
BRANCH  18  19
ATOM     19  C   UNL     1      20.752   3.663  52.024  0.00  0.00    +0.000 C 
ATOM     20  O   UNL     1      19.536   3.720  51.870  0.00  0.00    +0.000 OA
BRANCH  19  21
ATOM     21  C   UNL     1      21.690   4.711  51.443  0.00  0.00    +0.000 C 
BRANCH  21  23
ATOM     22  C   UNL     1      23.976   5.910  51.380  0.00  0.00    +0.000 C 
ATOM     23  C   UNL     1      22.963   5.112  52.192  0.00  0.00    +0.000 C 
ENDBRANCH  21  23
ENDBRANCH  19  21
ENDBRANCH  18  19
ENDBRANCH  17  18
BRANCH  17  24
ATOM     24  C   UNL     1      21.154   0.404  51.439  0.00  0.00    +0.000 C 
BRANCH  24  25
ATOM     25  C   UNL     1      20.018  -0.220  52.196  0.00  0.00    +0.000 C 
ATOM     26  C   UNL     1      18.682  -0.333  52.119  0.00  0.00    +0.000 C 
ATOM     27  C   UNL     1      17.975  -1.150  53.181  0.00  0.00    +0.000 C 
ATOM     28  C   UNL     1      17.779   0.260  51.084  0.00  0.00    +0.000 C 
ENDBRANCH  24  25
ENDBRANCH  17  24
ENDBRANCH   1  17
TORSDOF 9
ENDMDL
MODEL 8
REMARK VINA RESULT:    -7.569      2.211      7.014
REMARK INTER + INTRA:         -12.224
REMARK INTER:                 -11.335
REMARK INTRA:                  -0.889
REMARK UNBOUND:                -1.115
REMARK  Name = 
REMARK  12 active torsions:
REMARK  status: ('A' for Active; 'I' for Inactive)
REMARK    1  A    between atoms: C_1  and  C_2
REMARK    2  A    between atoms: C_2  and  C_3
REMARK    3  A    between atoms: C_3  and  C_4
REMARK    4  A    between atoms: C_4  and  O_6
REMARK    5  A    between atoms: O_6  and  C_7
REMARK    6  A    between atoms: C_7  and  C_8
REMARK    7  A    between atoms: C_7  and  C_13
REMARK    8  A    between atoms: C_8  and  C_9
REMARK    9  A    between atoms: C_10  and  C_11
REMARK   10  A    between atoms: C_10  and  C_12
REMARK   11  A    between atoms: C_18  and  O_19
REMARK   12  A    between atoms: C_22  and  O_23
REMARK                            x       y       z     vdW  Elec       q    Type
REMARK                         _______ _______ _______ _____ _____    ______ ____
ROOT
ATOM      1  C   UNL     1      23.494   0.731  52.471  0.00  0.00    +0.000 C 
ATOM      2  C   UNL     1      22.980   0.334  53.650  0.00  0.00    +0.000 C 
ATOM      3  C   UNL     1      21.566   0.052  53.891  0.00  0.00    +0.000 C 
ATOM      4  O   UNL     1      21.179  -0.295  55.000  0.00  0.00    +0.000 OA
ATOM      5  C   UNL     1      20.646   0.118  52.749  0.00  0.00    +0.000 A 
ATOM      6  C   UNL     1      19.336  -0.357  52.901  0.00  0.00    +0.000 A 
ATOM      7  C   UNL     1      18.432  -0.254  51.854  0.00  0.00    +0.000 A 
ATOM      8  C   UNL     1      18.837   0.323  50.655  0.00  0.00    +0.000 A 
ATOM      9  C   UNL     1      20.156   0.769  50.501  0.00  0.00    +0.000 A 
ATOM     10  C   UNL     1      21.091   0.659  51.542  0.00  0.00    +0.000 A 
ATOM     11  C   UNL     1      22.519   1.110  51.403  0.00  0.00    +0.000 C 
ATOM     12  O   UNL     1      22.900   1.795  50.463  0.00  0.00    +0.000 OA
ENDROOT
BRANCH   6  13
ATOM     13  O   UNL     1      18.866  -0.938  54.048  0.00  0.00    +0.000 OA
ATOM     14  H   UNL     1      18.356  -1.722  54.002  0.00  0.00    +0.000 HD
ENDBRANCH   6  13
BRANCH   9  15
ATOM     15  O   UNL     1      20.511   1.311  49.296  0.00  0.00    +0.000 OA
ATOM     16  H   UNL     1      20.945   2.142  49.266  0.00  0.00    +0.000 HD
ENDBRANCH   9  15
BRANCH   1  17
ATOM     17  C   UNL     1      25.029   0.775  52.181  0.00  0.00    +0.000 C 
BRANCH  17  18
ATOM     18  O   UNL     1      25.875   0.098  53.154  0.00  0.00    +0.000 OA
BRANCH  18  19
ATOM     19  C   UNL     1      26.870  -0.724  52.744  0.00  0.00    +0.000 C 
ATOM     20  O   UNL     1      26.698  -1.881  52.372  0.00  0.00    +0.000 OA
BRANCH  19  21
ATOM     21  C   UNL     1      28.259  -0.141  52.955  0.00  0.00    +0.000 C 
BRANCH  21  23
ATOM     22  C   UNL     1      28.713   2.302  53.658  0.00  0.00    +0.000 C 
ATOM     23  C   UNL     1      28.518   0.853  54.089  0.00  0.00    +0.000 C 
ENDBRANCH  21  23
ENDBRANCH  19  21
ENDBRANCH  18  19
ENDBRANCH  17  18
BRANCH  17  24
ATOM     24  C   UNL     1      25.473   2.259  51.982  0.00  0.00    +0.000 C 
BRANCH  24  25
ATOM     25  C   UNL     1      26.218   2.964  50.885  0.00  0.00    +0.000 C 
ATOM     26  C   UNL     1      25.993   3.870  49.920  0.00  0.00    +0.000 C 
ATOM     27  C   UNL     1      27.163   4.294  49.056  0.00  0.00    +0.000 C 
ATOM     28  C   UNL     1      24.696   4.536  49.584  0.00  0.00    +0.000 C 
ENDBRANCH  24  25
ENDBRANCH  17  24
ENDBRANCH   1  17
TORSDOF 9
ENDMDL
MODEL 9
REMARK VINA RESULT:    -7.544      3.073      5.581
REMARK INTER + INTRA:         -12.187
REMARK INTER:                 -10.854
REMARK INTRA:                  -1.333
REMARK UNBOUND:                -1.115
REMARK  Name = 
REMARK  12 active torsions:
REMARK  status: ('A' for Active; 'I' for Inactive)
REMARK    1  A    between atoms: C_1  and  C_2
REMARK    2  A    between atoms: C_2  and  C_3
REMARK    3  A    between atoms: C_3  and  C_4
REMARK    4  A    between atoms: C_4  and  O_6
REMARK    5  A    between atoms: O_6  and  C_7
REMARK    6  A    between atoms: C_7  and  C_8
REMARK    7  A    between atoms: C_7  and  C_13
REMARK    8  A    between atoms: C_8  and  C_9
REMARK    9  A    between atoms: C_10  and  C_11
REMARK   10  A    between atoms: C_10  and  C_12
REMARK   11  A    between atoms: C_18  and  O_19
REMARK   12  A    between atoms: C_22  and  O_23
REMARK                            x       y       z     vdW  Elec       q    Type
REMARK                         _______ _______ _______ _____ _____    ______ ____
ROOT
ATOM      1  C   UNL     1      24.868   2.589  51.266  0.00  0.00    +0.000 C 
ATOM      2  C   UNL     1      25.928   1.958  51.805  0.00  0.00    +0.000 C 
ATOM      3  C   UNL     1      25.850   0.937  52.847  0.00  0.00    +0.000 C 
ATOM      4  O   UNL     1      26.868   0.419  53.292  0.00  0.00    +0.000 OA
ATOM      5  C   UNL     1      24.519   0.495  53.282  0.00  0.00    +0.000 A 
ATOM      6  C   UNL     1      24.410  -0.629  54.113  0.00  0.00    +0.000 A 
ATOM      7  C   UNL     1      23.169  -1.031  54.581  0.00  0.00    +0.000 A 
ATOM      8  C   UNL     1      22.036  -0.311  54.220  0.00  0.00    +0.000 A 
ATOM      9  C   UNL     1      22.148   0.794  53.365  0.00  0.00    +0.000 A 
ATOM     10  C   UNL     1      23.393   1.208  52.867  0.00  0.00    +0.000 A 
ATOM     11  C   UNL     1      23.546   2.376  51.933  0.00  0.00    +0.000 C 
ATOM     12  O   UNL     1      22.638   3.170  51.724  0.00  0.00    +0.000 OA
ENDROOT
BRANCH   6  13
ATOM     13  O   UNL     1      25.479  -1.387  54.509  0.00  0.00    +0.000 OA
ATOM     14  H   UNL     1      25.870  -1.994  53.912  0.00  0.00    +0.000 HD
ENDBRANCH   6  13
BRANCH   9  15
ATOM     15  O   UNL     1      21.001   1.457  53.023  0.00  0.00    +0.000 OA
ATOM     16  H   UNL     1      20.523   1.932  53.675  0.00  0.00    +0.000 HD
ENDBRANCH   9  15
BRANCH   1  17
ATOM     17  C   UNL     1      24.965   3.480  49.986  0.00  0.00    +0.000 C 
BRANCH  17  18
ATOM     18  O   UNL     1      24.156   3.050  48.854  0.00  0.00    +0.000 OA
BRANCH  18  19
ATOM     19  C   UNL     1      23.101   3.793  48.445  0.00  0.00    +0.000 C 
ATOM     20  O   UNL     1      23.122   5.015  48.330  0.00  0.00    +0.000 OA
BRANCH  19  21
ATOM     21  C   UNL     1      21.815   2.992  48.309  0.00  0.00    +0.000 C 
BRANCH  21  23
ATOM     22  C   UNL     1      21.108   0.856  49.577  0.00  0.00    +0.000 C 
ATOM     23  C   UNL     1      21.843   1.463  48.388  0.00  0.00    +0.000 C 
ENDBRANCH  21  23
ENDBRANCH  19  21
ENDBRANCH  18  19
ENDBRANCH  17  18
BRANCH  17  24
ATOM     24  C   UNL     1      26.466   3.636  49.581  0.00  0.00    +0.000 C 
BRANCH  24  25
ATOM     25  C   UNL     1      27.221   4.714  48.859  0.00  0.00    +0.000 C 
ATOM     26  C   UNL     1      27.180   6.044  48.683  0.00  0.00    +0.000 C 
ATOM     27  C   UNL     1      28.264   6.685  47.840  0.00  0.00    +0.000 C 
ATOM     28  C   UNL     1      26.171   7.002  49.233  0.00  0.00    +0.000 C 
ENDBRANCH  24  25
ENDBRANCH  17  24
ENDBRANCH   1  17
TORSDOF 9
ENDMDL
