MODEL 1
REMARK VINA RESULT:    -8.570      0.000      0.000
REMARK INTER + INTRA:         -13.180
REMARK INTER:                 -12.077
REMARK INTRA:                  -1.103
REMARK UNBOUND:                -1.103
REMARK  Name = 
REMARK  11 active torsions:
REMARK  status: ('A' for Active; 'I' for Inactive)
REMARK    1  A    between atoms: C_1  and  C_2
REMARK    2  A    between atoms: C_2  and  C_3
REMARK    3  A    between atoms: C_3  and  C_4
REMARK    4  A    between atoms: C_4  and  N_5
REMARK    5  A    between atoms: C_7  and  C_8
REMARK    6  A    between atoms: N_10  and  C_11
REMARK    7  A    between atoms: C_11  and  C_12
REMARK    8  A    between atoms: C_12  and  N_13
REMARK    9  A    between atoms: N_13  and  C_14
REMARK   10  A    between atoms: N_13  and  C_15
REMARK   11  A    between atoms: C_19  and  C_20
REMARK                            x       y       z     vdW  Elec       q    Type
REMARK                         _______ _______ _______ _____ _____    ______ ____
ROOT
ATOM      1  N   UNL     1      27.320   1.218  53.437  0.00  0.00    +0.000 N 
ATOM      2  C   UNL     1      27.181   2.038  52.325  0.00  0.00    +0.000 A 
ATOM      3  C   UNL     1      26.025   2.194  51.653  0.00  0.00    +0.000 A 
ATOM      4  C   UNL     1      24.854   1.441  52.149  0.00  0.00    +0.000 A 
ATOM      5  N   UNL     1      23.665   1.614  51.507  0.00  0.00    +0.000 NA
ATOM      6  C   UNL     1      22.561   0.959  51.949  0.00  0.00    +0.000 A 
ATOM      7  C   UNL     1      21.331   1.097  51.292  0.00  0.00    +0.000 A 
ATOM      8  C   UNL     1      21.176   1.955  50.064  0.00  0.00    +0.000 C 
ATOM      9  C   UNL     1      20.191   0.415  51.753  0.00  0.00    +0.000 A 
ATOM     10  C   UNL     1      20.255  -0.400  52.876  0.00  0.00    +0.000 A 
ATOM     11  C   UNL     1      21.464  -0.548  53.541  0.00  0.00    +0.000 A 
ATOM     12  C   UNL     1      22.613   0.113  53.078  0.00  0.00    +0.000 A 
ATOM     13  C   UNL     1      23.841  -0.062  53.721  0.00  0.00    +0.000 A 
ATOM     14  C   UNL     1      24.971   0.598  53.243  0.00  0.00    +0.000 A 
ATOM     15  C   UNL     1      26.273   0.424  53.913  0.00  0.00    +0.000 A 
ATOM     16  O   UNL     1      26.368  -0.377  54.836  0.00  0.00    +0.000 OA
ENDROOT
BRANCH   3  17
ATOM     17  C   UNL     1      26.042   3.157  50.488  0.00  0.00    +0.000 C 
ATOM     18  O   UNL     1      26.756   2.981  49.506  0.00  0.00    +0.000 OA
ATOM     19  N   UNL     1      25.202   4.236  50.613  0.00  0.00    +0.000 N 
ATOM     20  H   UNL     1      24.589   4.235  51.383  0.00  0.00    +0.000 HD
BRANCH  19  21
ATOM     21  C   UNL     1      25.134   5.379  49.714  0.00  0.00    +0.000 C 
BRANCH  21  22
ATOM     22  C   UNL     1      25.454   6.736  50.377  0.00  0.00    +0.000 C 
BRANCH  22  23
ATOM     23  N   UNL     1      26.734   7.357  49.950  0.00  0.00    +0.000 N 
ATOM     24  C   UNL     1      27.168   6.780  48.673  0.00  0.00    +0.000 C 
ATOM     25  C   UNL     1      26.645   8.812  49.820  0.00  0.00    +0.000 C 
ATOM     26  H   UNL     1      27.415   7.159  50.682  0.00  0.00    +0.000 HD
ENDBRANCH  22  23
ENDBRANCH  21  22
ENDBRANCH  19  21
ENDBRANCH   3  17
BRANCH   1  27
ATOM     27  C   UNL     1      28.592   1.197  54.165  0.00  0.00    +0.000 C 
BRANCH  27  28
ATOM     28  C   UNL     1      29.708   0.451  53.416  0.00  0.00    +0.000 C 
BRANCH  28  30
ATOM     29  C   UNL     1      29.089  -1.977  53.157  0.00  0.00    +0.000 C 
ATOM     30  C   UNL     1      29.936  -0.975  53.926  0.00  0.00    +0.000 C 
ENDBRANCH  28  30
ENDBRANCH  27  28
ENDBRANCH   1  27
TORSDOF 7
ENDMDL
MODEL 2
REMARK VINA RESULT:    -8.177      0.959      1.398
REMARK INTER + INTRA:         -12.625
REMARK INTER:                 -11.584
REMARK INTRA:                  -1.041
REMARK UNBOUND:                -1.103
REMARK  Name = 
REMARK  11 active torsions:
REMARK  status: ('A' for Active; 'I' for Inactive)
REMARK    1  A    between atoms: C_1  and  C_2
REMARK    2  A    between atoms: C_2  and  C_3
REMARK    3  A    between atoms: C_3  and  C_4
REMARK    4  A    between atoms: C_4  and  N_5
REMARK    5  A    between atoms: C_7  and  C_8
REMARK    6  A    between atoms: N_10  and  C_11
REMARK    7  A    between atoms: C_11  and  C_12
REMARK    8  A    between atoms: C_12  and  N_13
REMARK    9  A    between atoms: N_13  and  C_14
REMARK   10  A    between atoms: N_13  and  C_15
REMARK   11  A    between atoms: C_19  and  C_20
REMARK                            x       y       z     vdW  Elec       q    Type
REMARK                         _______ _______ _______ _____ _____    ______ ____
ROOT
ATOM      1  N   UNL     1      27.287   1.095  53.558  0.00  0.00    +0.000 N 
ATOM      2  C   UNL     1      27.224   1.927  52.448  0.00  0.00    +0.000 A 
ATOM      3  C   UNL     1      26.105   2.121  51.724  0.00  0.00    +0.000 A 
ATOM      4  C   UNL     1      24.891   1.398  52.158  0.00  0.00    +0.000 A 
ATOM      5  N   UNL     1      23.739   1.610  51.463  0.00  0.00    +0.000 NA
ATOM      6  C   UNL     1      22.598   0.984  51.847  0.00  0.00    +0.000 A 
ATOM      7  C   UNL     1      21.404   1.162  51.135  0.00  0.00    +0.000 A 
ATOM      8  C   UNL     1      21.331   2.033  49.908  0.00  0.00    +0.000 C 
ATOM      9  C   UNL     1      20.225   0.510  51.535  0.00  0.00    +0.000 A 
ATOM     10  C   UNL     1      20.213  -0.316  52.653  0.00  0.00    +0.000 A 
ATOM     11  C   UNL     1      21.385  -0.504  53.372  0.00  0.00    +0.000 A 
ATOM     12  C   UNL     1      22.573   0.128  52.969  0.00  0.00    +0.000 A 
ATOM     13  C   UNL     1      23.763  -0.087  53.668  0.00  0.00    +0.000 A 
ATOM     14  C   UNL     1      24.933   0.544  53.249  0.00  0.00    +0.000 A 
ATOM     15  C   UNL     1      26.197   0.327  53.977  0.00  0.00    +0.000 A 
ATOM     16  O   UNL     1      26.225  -0.483  54.897  0.00  0.00    +0.000 OA
ENDROOT
BRANCH   3  17
ATOM     17  C   UNL     1      26.204   3.092  50.570  0.00  0.00    +0.000 C 
ATOM     18  O   UNL     1      26.773   2.804  49.521  0.00  0.00    +0.000 OA
ATOM     19  N   UNL     1      25.612   4.312  50.784  0.00  0.00    +0.000 N 
ATOM     20  H   UNL     1      25.086   4.413  51.610  0.00  0.00    +0.000 HD
BRANCH  19  21
ATOM     21  C   UNL     1      25.689   5.470  49.904  0.00  0.00    +0.000 C 
BRANCH  21  22
ATOM     22  C   UNL     1      24.918   6.709  50.406  0.00  0.00    +0.000 C 
BRANCH  22  23
ATOM     23  N   UNL     1      23.465   6.711  50.098  0.00  0.00    +0.000 N 
ATOM     24  C   UNL     1      22.964   8.089  50.060  0.00  0.00    +0.000 C 
ATOM     25  C   UNL     1      23.150   6.044  48.834  0.00  0.00    +0.000 C 
ATOM     26  H   UNL     1      23.006   6.185  50.841  0.00  0.00    +0.000 HD
ENDBRANCH  22  23
ENDBRANCH  21  22
ENDBRANCH  19  21
ENDBRANCH   3  17
BRANCH   1  27
ATOM     27  C   UNL     1      28.522   1.032  54.344  0.00  0.00    +0.000 C 
BRANCH  27  28
ATOM     28  C   UNL     1      29.693   0.387  53.585  0.00  0.00    +0.000 C 
BRANCH  28  30
ATOM     29  C   UNL     1      29.043  -1.999  53.101  0.00  0.00    +0.000 C 
ATOM     30  C   UNL     1      29.917  -1.084  53.947  0.00  0.00    +0.000 C 
ENDBRANCH  28  30
ENDBRANCH  27  28
ENDBRANCH   1  27
TORSDOF 7
ENDMDL
MODEL 3
REMARK VINA RESULT:    -8.129      2.020      5.911
REMARK INTER + INTRA:         -12.558
REMARK INTER:                 -11.651
REMARK INTRA:                  -0.908
REMARK UNBOUND:                -1.103
REMARK  Name = 
REMARK  11 active torsions:
REMARK  status: ('A' for Active; 'I' for Inactive)
REMARK    1  A    between atoms: C_1  and  C_2
REMARK    2  A    between atoms: C_2  and  C_3
REMARK    3  A    between atoms: C_3  and  C_4
REMARK    4  A    between atoms: C_4  and  N_5
REMARK    5  A    between atoms: C_7  and  C_8
REMARK    6  A    between atoms: N_10  and  C_11
REMARK    7  A    between atoms: C_11  and  C_12
REMARK    8  A    between atoms: C_12  and  N_13
REMARK    9  A    between atoms: N_13  and  C_14
REMARK   10  A    between atoms: N_13  and  C_15
REMARK   11  A    between atoms: C_19  and  C_20
REMARK                            x       y       z     vdW  Elec       q    Type
REMARK                         _______ _______ _______ _____ _____    ______ ____
ROOT
ATOM      1  N   UNL     1      23.778   3.649  50.156  0.00  0.00    +0.000 N 
ATOM      2  C   UNL     1      24.540   3.079  51.168  0.00  0.00    +0.000 A 
ATOM      3  C   UNL     1      24.067   2.155  52.026  0.00  0.00    +0.000 A 
ATOM      4  C   UNL     1      22.657   1.742  51.858  0.00  0.00    +0.000 A 
ATOM      5  N   UNL     1      22.171   0.781  52.692  0.00  0.00    +0.000 NA
ATOM      6  C   UNL     1      20.888   0.358  52.551  0.00  0.00    +0.000 A 
ATOM      7  C   UNL     1      20.352  -0.611  53.411  0.00  0.00    +0.000 A 
ATOM      8  C   UNL     1      21.156  -1.211  54.535  0.00  0.00    +0.000 C 
ATOM      9  C   UNL     1      19.023  -1.045  53.263  0.00  0.00    +0.000 A 
ATOM     10  C   UNL     1      18.216  -0.534  52.254  0.00  0.00    +0.000 A 
ATOM     11  C   UNL     1      18.729   0.424  51.392  0.00  0.00    +0.000 A 
ATOM     12  C   UNL     1      20.049   0.880  51.543  0.00  0.00    +0.000 A 
ATOM     13  C   UNL     1      20.559   1.871  50.701  0.00  0.00    +0.000 A 
ATOM     14  C   UNL     1      21.870   2.313  50.871  0.00  0.00    +0.000 A 
ATOM     15  C   UNL     1      22.422   3.358  49.989  0.00  0.00    +0.000 A 
ATOM     16  O   UNL     1      21.688   3.896  49.167  0.00  0.00    +0.000 OA
ENDROOT
BRANCH   3  17
ATOM     17  C   UNL     1      25.044   1.610  53.043  0.00  0.00    +0.000 C 
ATOM     18  O   UNL     1      25.803   2.340  53.674  0.00  0.00    +0.000 OA
ATOM     19  N   UNL     1      25.016   0.248  53.203  0.00  0.00    +0.000 N 
ATOM     20  H   UNL     1      24.301  -0.241  52.736  0.00  0.00    +0.000 HD
BRANCH  19  21
ATOM     21  C   UNL     1      25.945  -0.542  53.999  0.00  0.00    +0.000 C 
BRANCH  21  22
ATOM     22  C   UNL     1      27.301  -0.819  53.316  0.00  0.00    +0.000 C 
BRANCH  22  23
ATOM     23  N   UNL     1      28.483  -0.747  54.214  0.00  0.00    +0.000 N 
ATOM     24  C   UNL     1      29.698  -1.093  53.469  0.00  0.00    +0.000 C 
ATOM     25  C   UNL     1      28.649   0.569  54.832  0.00  0.00    +0.000 C 
ATOM     26  H   UNL     1      28.322  -1.417  54.965  0.00  0.00    +0.000 HD
ENDBRANCH  22  23
ENDBRANCH  21  22
ENDBRANCH  19  21
ENDBRANCH   3  17
BRANCH   1  27
ATOM     27  C   UNL     1      24.413   4.567  49.205  0.00  0.00    +0.000 C 
BRANCH  27  28
ATOM     28  C   UNL     1      25.762   5.114  49.698  0.00  0.00    +0.000 C 
BRANCH  28  30
ATOM     29  C   UNL     1      27.894   5.592  48.444  0.00  0.00    +0.000 C 
ATOM     30  C   UNL     1      26.967   4.508  48.973  0.00  0.00    +0.000 C 
ENDBRANCH  28  30
ENDBRANCH  27  28
ENDBRANCH   1  27
TORSDOF 7
ENDMDL
MODEL 4
REMARK VINA RESULT:    -7.945      2.046      2.752
REMARK INTER + INTRA:         -12.299
REMARK INTER:                 -11.458
REMARK INTRA:                  -0.840
REMARK UNBOUND:                -1.103
REMARK  Name = 
REMARK  11 active torsions:
REMARK  status: ('A' for Active; 'I' for Inactive)
REMARK    1  A    between atoms: C_1  and  C_2
REMARK    2  A    between atoms: C_2  and  C_3
REMARK    3  A    between atoms: C_3  and  C_4
REMARK    4  A    between atoms: C_4  and  N_5
REMARK    5  A    between atoms: C_7  and  C_8
REMARK    6  A    between atoms: N_10  and  C_11
REMARK    7  A    between atoms: C_11  and  C_12
REMARK    8  A    between atoms: C_12  and  N_13
REMARK    9  A    between atoms: N_13  and  C_14
REMARK   10  A    between atoms: N_13  and  C_15
REMARK   11  A    between atoms: C_19  and  C_20
REMARK                            x       y       z     vdW  Elec       q    Type
REMARK                         _______ _______ _______ _____ _____    ______ ____
ROOT
ATOM      1  N   UNL     1      25.019   0.232  54.020  0.00  0.00    +0.000 N 
ATOM      2  C   UNL     1      24.833   1.203  53.045  0.00  0.00    +0.000 A 
ATOM      3  C   UNL     1      23.660   1.413  52.416  0.00  0.00    +0.000 A 
ATOM      4  C   UNL     1      22.526   0.550  52.806  0.00  0.00    +0.000 A 
ATOM      5  N   UNL     1      21.322   0.771  52.209  0.00  0.00    +0.000 NA
ATOM      6  C   UNL     1      20.249   0.015  52.559  0.00  0.00    +0.000 A 
ATOM      7  C   UNL     1      19.005   0.202  51.943  0.00  0.00    +0.000 A 
ATOM      8  C   UNL     1      18.798   1.227  50.859  0.00  0.00    +0.000 C 
ATOM      9  C   UNL     1      17.898  -0.584  52.308  0.00  0.00    +0.000 A 
ATOM     10  C   UNL     1      18.010  -1.555  53.295  0.00  0.00    +0.000 A 
ATOM     11  C   UNL     1      19.234  -1.755  53.918  0.00  0.00    +0.000 A 
ATOM     12  C   UNL     1      20.351  -0.988  53.547  0.00  0.00    +0.000 A 
ATOM     13  C   UNL     1      21.594  -1.210  54.145  0.00  0.00    +0.000 A 
ATOM     14  C   UNL     1      22.691  -0.442  53.759  0.00  0.00    +0.000 A 
ATOM     15  C   UNL     1      24.010  -0.664  54.382  0.00  0.00    +0.000 A 
ATOM     16  O   UNL     1      24.148  -1.590  55.174  0.00  0.00    +0.000 OA
ENDROOT
BRANCH   3  17
ATOM     17  C   UNL     1      23.623   2.539  51.409  0.00  0.00    +0.000 C 
ATOM     18  O   UNL     1      24.327   2.539  50.403  0.00  0.00    +0.000 OA
ATOM     19  N   UNL     1      22.749   3.555  51.705  0.00  0.00    +0.000 N 
ATOM     20  H   UNL     1      22.149   3.417  52.473  0.00  0.00    +0.000 HD
BRANCH  19  21
ATOM     21  C   UNL     1      22.626   4.817  50.988  0.00  0.00    +0.000 C 
BRANCH  21  22
ATOM     22  C   UNL     1      23.656   5.891  51.397  0.00  0.00    +0.000 C 
BRANCH  22  23
ATOM     23  N   UNL     1      23.190   7.294  51.256  0.00  0.00    +0.000 N 
ATOM     24  C   UNL     1      24.125   8.049  50.414  0.00  0.00    +0.000 C 
ATOM     25  C   UNL     1      21.842   7.393  50.696  0.00  0.00    +0.000 C 
ATOM     26  H   UNL     1      23.158   7.689  52.196  0.00  0.00    +0.000 HD
ENDBRANCH  22  23
ENDBRANCH  21  22
ENDBRANCH  19  21
ENDBRANCH   3  17
BRANCH   1  27
ATOM     27  C   UNL     1      26.302   0.151  54.723  0.00  0.00    +0.000 C 
BRANCH  27  28
ATOM     28  C   UNL     1      27.459  -0.313  53.824  0.00  0.00    +0.000 C 
BRANCH  28  30
ATOM     29  C   UNL     1      29.937  -0.713  53.606  0.00  0.00    +0.000 C 
ATOM     30  C   UNL     1      28.843  -0.043  54.423  0.00  0.00    +0.000 C 
ENDBRANCH  28  30
ENDBRANCH  27  28
ENDBRANCH   1  27
TORSDOF 7
ENDMDL
MODEL 5
REMARK VINA RESULT:    -7.629      2.652      5.442
REMARK INTER + INTRA:         -11.854
REMARK INTER:                 -10.619
REMARK INTRA:                  -1.234
REMARK UNBOUND:                -1.103
REMARK  Name = 
REMARK  11 active torsions:
REMARK  status: ('A' for Active; 'I' for Inactive)
REMARK    1  A    between atoms: C_1  and  C_2
REMARK    2  A    between atoms: C_2  and  C_3
REMARK    3  A    between atoms: C_3  and  C_4
REMARK    4  A    between atoms: C_4  and  N_5
REMARK    5  A    between atoms: C_7  and  C_8
REMARK    6  A    between atoms: N_10  and  C_11
REMARK    7  A    between atoms: C_11  and  C_12
REMARK    8  A    between atoms: C_12  and  N_13
REMARK    9  A    between atoms: N_13  and  C_14
REMARK   10  A    between atoms: N_13  and  C_15
REMARK   11  A    between atoms: C_19  and  C_20
REMARK                            x       y       z     vdW  Elec       q    Type
REMARK                         _______ _______ _______ _____ _____    ______ ____
ROOT
ATOM      1  N   UNL     1      25.570   3.235  50.108  0.00  0.00    +0.000 N 
ATOM      2  C   UNL     1      24.312   3.439  49.557  0.00  0.00    +0.000 A 
ATOM      3  C   UNL     1      23.198   2.819  49.990  0.00  0.00    +0.000 A 
ATOM      4  C   UNL     1      23.351   1.876  51.118  0.00  0.00    +0.000 A 
ATOM      5  N   UNL     1      22.231   1.267  51.597  0.00  0.00    +0.000 NA
ATOM      6  C   UNL     1      22.328   0.414  52.649  0.00  0.00    +0.000 A 
ATOM      7  C   UNL     1      21.196  -0.247  53.146  0.00  0.00    +0.000 A 
ATOM      8  C   UNL     1      19.833  -0.062  52.533  0.00  0.00    +0.000 C 
ATOM      9  C   UNL     1      21.301  -1.131  54.234  0.00  0.00    +0.000 A 
ATOM     10  C   UNL     1      22.527  -1.359  54.849  0.00  0.00    +0.000 A 
ATOM     11  C   UNL     1      23.658  -0.713  54.372  0.00  0.00    +0.000 A 
ATOM     12  C   UNL     1      23.567   0.157  53.273  0.00  0.00    +0.000 A 
ATOM     13  C   UNL     1      24.709   0.782  52.766  0.00  0.00    +0.000 A 
ATOM     14  C   UNL     1      24.599   1.637  51.672  0.00  0.00    +0.000 A 
ATOM     15  C   UNL     1      25.796   2.305  51.126  0.00  0.00    +0.000 A 
ATOM     16  O   UNL     1      26.897   2.027  51.588  0.00  0.00    +0.000 OA
ENDROOT
BRANCH   3  17
ATOM     17  C   UNL     1      21.904   3.188  49.301  0.00  0.00    +0.000 C 
ATOM     18  O   UNL     1      21.617   4.351  49.031  0.00  0.00    +0.000 OA
ATOM     19  N   UNL     1      21.082   2.131  49.005  0.00  0.00    +0.000 N 
ATOM     20  H   UNL     1      21.443   1.228  49.159  0.00  0.00    +0.000 HD
BRANCH  19  21
ATOM     21  C   UNL     1      19.726   2.218  48.482  0.00  0.00    +0.000 C 
BRANCH  21  22
ATOM     22  C   UNL     1      18.635   2.416  49.556  0.00  0.00    +0.000 C 
BRANCH  22  23
ATOM     23  N   UNL     1      18.749   3.672  50.342  0.00  0.00    +0.000 N 
ATOM     24  C   UNL     1      17.489   4.420  50.272  0.00  0.00    +0.000 C 
ATOM     25  C   UNL     1      19.098   3.437  51.744  0.00  0.00    +0.000 C 
ATOM     26  H   UNL     1      19.507   4.211  49.926  0.00  0.00    +0.000 HD
ENDBRANCH  22  23
ENDBRANCH  21  22
ENDBRANCH  19  21
ENDBRANCH   3  17
BRANCH   1  27
ATOM     27  C   UNL     1      26.704   4.037  49.638  0.00  0.00    +0.000 C 
BRANCH  27  28
ATOM     28  C   UNL     1      26.284   5.393  49.047  0.00  0.00    +0.000 C 
BRANCH  28  30
ATOM     29  C   UNL     1      28.699   5.302  48.334  0.00  0.00    +0.000 C 
ATOM     30  C   UNL     1      27.440   6.154  48.391  0.00  0.00    +0.000 C 
ENDBRANCH  28  30
ENDBRANCH  27  28
ENDBRANCH   1  27
TORSDOF 7
ENDMDL
MODEL 6
REMARK VINA RESULT:    -7.573      1.917      5.842
REMARK INTER + INTRA:         -11.775
REMARK INTER:                 -11.011
REMARK INTRA:                  -0.764
REMARK UNBOUND:                -1.103
REMARK  Name = 
REMARK  11 active torsions:
REMARK  status: ('A' for Active; 'I' for Inactive)
REMARK    1  A    between atoms: C_1  and  C_2
REMARK    2  A    between atoms: C_2  and  C_3
REMARK    3  A    between atoms: C_3  and  C_4
REMARK    4  A    between atoms: C_4  and  N_5
REMARK    5  A    between atoms: C_7  and  C_8
REMARK    6  A    between atoms: N_10  and  C_11
REMARK    7  A    between atoms: C_11  and  C_12
REMARK    8  A    between atoms: C_12  and  N_13
REMARK    9  A    between atoms: N_13  and  C_14
REMARK   10  A    between atoms: N_13  and  C_15
REMARK   11  A    between atoms: C_19  and  C_20
REMARK                            x       y       z     vdW  Elec       q    Type
REMARK                         _______ _______ _______ _____ _____    ______ ____
ROOT
ATOM      1  N   UNL     1      21.889   0.871  52.635  0.00  0.00    +0.000 N 
ATOM      2  C   UNL     1      22.308   2.191  52.534  0.00  0.00    +0.000 A 
ATOM      3  C   UNL     1      23.593   2.576  52.650  0.00  0.00    +0.000 A 
ATOM      4  C   UNL     1      24.592   1.515  52.898  0.00  0.00    +0.000 A 
ATOM      5  N   UNL     1      25.901   1.879  52.980  0.00  0.00    +0.000 NA
ATOM      6  C   UNL     1      26.851   0.929  53.181  0.00  0.00    +0.000 A 
ATOM      7  C   UNL     1      28.204   1.277  53.297  0.00  0.00    +0.000 A 
ATOM      8  C   UNL     1      28.667   2.708  53.225  0.00  0.00    +0.000 C 
ATOM      9  C   UNL     1      29.183   0.290  53.507  0.00  0.00    +0.000 A 
ATOM     10  C   UNL     1      28.833  -1.052  53.592  0.00  0.00    +0.000 A 
ATOM     11  C   UNL     1      27.499  -1.416  53.478  0.00  0.00    +0.000 A 
ATOM     12  C   UNL     1      26.511  -0.437  53.288  0.00  0.00    +0.000 A 
ATOM     13  C   UNL     1      25.163  -0.794  53.209  0.00  0.00    +0.000 A 
ATOM     14  C   UNL     1      24.197   0.193  53.026  0.00  0.00    +0.000 A 
ATOM     15  C   UNL     1      22.769  -0.170  52.940  0.00  0.00    +0.000 A 
ATOM     16  O   UNL     1      22.438  -1.336  53.123  0.00  0.00    +0.000 OA
ENDROOT
BRANCH   3  17
ATOM     17  C   UNL     1      23.878   4.050  52.473  0.00  0.00    +0.000 C 
ATOM     18  O   UNL     1      23.652   4.869  53.358  0.00  0.00    +0.000 OA
ATOM     19  N   UNL     1      24.404   4.397  51.254  0.00  0.00    +0.000 N 
ATOM     20  H   UNL     1      24.653   3.661  50.650  0.00  0.00    +0.000 HD
BRANCH  19  21
ATOM     21  C   UNL     1      24.630   5.753  50.771  0.00  0.00    +0.000 C 
BRANCH  21  22
ATOM     22  C   UNL     1      25.863   5.911  49.856  0.00  0.00    +0.000 C 
BRANCH  22  23
ATOM     23  N   UNL     1      26.537   7.232  49.934  0.00  0.00    +0.000 N 
ATOM     24  C   UNL     1      27.280   7.489  48.695  0.00  0.00    +0.000 C 
ATOM     25  C   UNL     1      25.605   8.334  50.178  0.00  0.00    +0.000 C 
ATOM     26  H   UNL     1      27.174   7.191  50.729  0.00  0.00    +0.000 HD
ENDBRANCH  22  23
ENDBRANCH  21  22
ENDBRANCH  19  21
ENDBRANCH   3  17
BRANCH   1  27
ATOM     27  C   UNL     1      20.483   0.538  52.387  0.00  0.00    +0.000 C 
BRANCH  27  28
ATOM     28  C   UNL     1      20.047   0.790  50.934  0.00  0.00    +0.000 C 
BRANCH  28  30
ATOM     29  C   UNL     1      17.941   1.423  49.704  0.00  0.00    +0.000 C 
ATOM     30  C   UNL     1      18.581   0.435  50.669  0.00  0.00    +0.000 C 
ENDBRANCH  28  30
ENDBRANCH  27  28
ENDBRANCH   1  27
TORSDOF 7
ENDMDL
MODEL 7
REMARK VINA RESULT:    -7.562      2.566      6.349
REMARK INTER + INTRA:         -11.759
REMARK INTER:                 -10.878
REMARK INTRA:                  -0.882
REMARK UNBOUND:                -1.103
REMARK  Name = 
REMARK  11 active torsions:
REMARK  status: ('A' for Active; 'I' for Inactive)
REMARK    1  A    between atoms: C_1  and  C_2
REMARK    2  A    between atoms: C_2  and  C_3
REMARK    3  A    between atoms: C_3  and  C_4
REMARK    4  A    between atoms: C_4  and  N_5
REMARK    5  A    between atoms: C_7  and  C_8
REMARK    6  A    between atoms: N_10  and  C_11
REMARK    7  A    between atoms: C_11  and  C_12
REMARK    8  A    between atoms: C_12  and  N_13
REMARK    9  A    between atoms: N_13  and  C_14
REMARK   10  A    between atoms: N_13  and  C_15
REMARK   11  A    between atoms: C_19  and  C_20
REMARK                            x       y       z     vdW  Elec       q    Type
REMARK                         _______ _______ _______ _____ _____    ______ ____
ROOT
ATOM      1  N   UNL     1      25.928   1.677  52.584  0.00  0.00    +0.000 N 
ATOM      2  C   UNL     1      24.941   0.892  53.166  0.00  0.00    +0.000 A 
ATOM      3  C   UNL     1      23.696   0.769  52.666  0.00  0.00    +0.000 A 
ATOM      4  C   UNL     1      23.392   1.520  51.430  0.00  0.00    +0.000 A 
ATOM      5  N   UNL     1      22.151   1.379  50.887  0.00  0.00    +0.000 NA
ATOM      6  C   UNL     1      21.842   2.032  49.737  0.00  0.00    +0.000 A 
ATOM      7  C   UNL     1      20.565   1.927  49.170  0.00  0.00    +0.000 A 
ATOM      8  C   UNL     1      19.474   1.109  49.810  0.00  0.00    +0.000 C 
ATOM      9  C   UNL     1      20.250   2.607  47.981  0.00  0.00    +0.000 A 
ATOM     10  C   UNL     1      21.201   3.387  47.334  0.00  0.00    +0.000 A 
ATOM     11  C   UNL     1      22.472   3.502  47.879  0.00  0.00    +0.000 A 
ATOM     12  C   UNL     1      22.791   2.843  49.077  0.00  0.00    +0.000 A 
ATOM     13  C   UNL     1      24.057   2.985  49.650  0.00  0.00    +0.000 A 
ATOM     14  C   UNL     1      24.353   2.327  50.842  0.00  0.00    +0.000 A 
ATOM     15  C   UNL     1      25.686   2.467  51.458  0.00  0.00    +0.000 A 
ATOM     16  O   UNL     1      26.497   3.239  50.958  0.00  0.00    +0.000 OA
ENDROOT
BRANCH   3  17
ATOM     17  C   UNL     1      22.757  -0.158  53.404  0.00  0.00    +0.000 C 
ATOM     18  O   UNL     1      23.142  -1.206  53.914  0.00  0.00    +0.000 OA
ATOM     19  N   UNL     1      21.451   0.260  53.458  0.00  0.00    +0.000 N 
ATOM     20  H   UNL     1      21.258   1.163  53.117  0.00  0.00    +0.000 HD
BRANCH  19  21
ATOM     21  C   UNL     1      20.325  -0.506  53.972  0.00  0.00    +0.000 C 
BRANCH  21  22
ATOM     22  C   UNL     1      19.064  -0.469  53.083  0.00  0.00    +0.000 C 
BRANCH  22  23
ATOM     23  N   UNL     1      17.868  -1.133  53.662  0.00  0.00    +0.000 N 
ATOM     24  C   UNL     1      16.690  -0.850  52.834  0.00  0.00    +0.000 C 
ATOM     25  C   UNL     1      18.030  -2.581  53.798  0.00  0.00    +0.000 C 
ATOM     26  H   UNL     1      17.745  -0.752  54.600  0.00  0.00    +0.000 HD
ENDBRANCH  22  23
ENDBRANCH  21  22
ENDBRANCH  19  21
ENDBRANCH   3  17
BRANCH   1  27
ATOM     27  C   UNL     1      27.284   1.661  53.142  0.00  0.00    +0.000 C 
BRANCH  27  28
ATOM     28  C   UNL     1      27.564   0.433  54.023  0.00  0.00    +0.000 C 
BRANCH  28  30
ATOM     29  C   UNL     1      29.756  -0.734  53.602  0.00  0.00    +0.000 C 
ATOM     30  C   UNL     1      28.270  -0.703  53.277  0.00  0.00    +0.000 C 
ENDBRANCH  28  30
ENDBRANCH  27  28
ENDBRANCH   1  27
TORSDOF 7
ENDMDL
MODEL 8
REMARK VINA RESULT:    -7.242      2.264      5.539
REMARK INTER + INTRA:         -11.308
REMARK INTER:                 -10.231
REMARK INTRA:                  -1.078
REMARK UNBOUND:                -1.103
REMARK  Name = 
REMARK  11 active torsions:
REMARK  status: ('A' for Active; 'I' for Inactive)
REMARK    1  A    between atoms: C_1  and  C_2
REMARK    2  A    between atoms: C_2  and  C_3
REMARK    3  A    between atoms: C_3  and  C_4
REMARK    4  A    between atoms: C_4  and  N_5
REMARK    5  A    between atoms: C_7  and  C_8
REMARK    6  A    between atoms: N_10  and  C_11
REMARK    7  A    between atoms: C_11  and  C_12
REMARK    8  A    between atoms: C_12  and  N_13
REMARK    9  A    between atoms: N_13  and  C_14
REMARK   10  A    between atoms: N_13  and  C_15
REMARK   11  A    between atoms: C_19  and  C_20
REMARK                            x       y       z     vdW  Elec       q    Type
REMARK                         _______ _______ _______ _____ _____    ______ ____
ROOT
ATOM      1  N   UNL     1      26.010   0.469  53.016  0.00  0.00    +0.000 N 
ATOM      2  C   UNL     1      24.628   0.349  52.974  0.00  0.00    +0.000 A 
ATOM      3  C   UNL     1      23.829   1.164  52.259  0.00  0.00    +0.000 A 
ATOM      4  C   UNL     1      24.488   2.237  51.483  0.00  0.00    +0.000 A 
ATOM      5  N   UNL     1      23.702   3.048  50.723  0.00  0.00    +0.000 NA
ATOM      6  C   UNL     1      24.272   4.028  49.976  0.00  0.00    +0.000 A 
ATOM      7  C   UNL     1      23.487   4.895  49.204  0.00  0.00    +0.000 A 
ATOM      8  C   UNL     1      21.984   4.798  49.179  0.00  0.00    +0.000 C 
ATOM      9  C   UNL     1      24.082   5.910  48.434  0.00  0.00    +0.000 A 
ATOM     10  C   UNL     1      25.462   6.067  48.411  0.00  0.00    +0.000 A 
ATOM     11  C   UNL     1      26.257   5.218  49.167  0.00  0.00    +0.000 A 
ATOM     12  C   UNL     1      25.672   4.213  49.955  0.00  0.00    +0.000 A 
ATOM     13  C   UNL     1      26.464   3.379  50.746  0.00  0.00    +0.000 A 
ATOM     14  C   UNL     1      25.864   2.392  51.525  0.00  0.00    +0.000 A 
ATOM     15  C   UNL     1      26.689   1.503  52.365  0.00  0.00    +0.000 A 
ATOM     16  O   UNL     1      27.896   1.702  52.439  0.00  0.00    +0.000 OA
ENDROOT
BRANCH   3  17
ATOM     17  C   UNL     1      22.348   0.866  52.295  0.00  0.00    +0.000 C 
ATOM     18  O   UNL     1      21.911  -0.280  52.260  0.00  0.00    +0.000 OA
ATOM     19  N   UNL     1      21.535   1.970  52.369  0.00  0.00    +0.000 N 
ATOM     20  H   UNL     1      21.976   2.839  52.502  0.00  0.00    +0.000 HD
BRANCH  19  21
ATOM     21  C   UNL     1      20.082   1.974  52.268  0.00  0.00    +0.000 C 
BRANCH  21  22
ATOM     22  C   UNL     1      19.475   3.315  51.805  0.00  0.00    +0.000 C 
BRANCH  22  23
ATOM     23  N   UNL     1      18.443   3.204  50.742  0.00  0.00    +0.000 N 
ATOM     24  C   UNL     1      18.227   4.513  50.116  0.00  0.00    +0.000 C 
ATOM     25  C   UNL     1      18.791   2.224  49.711  0.00  0.00    +0.000 C 
ATOM     26  H   UNL     1      17.589   2.879  51.194  0.00  0.00    +0.000 HD
ENDBRANCH  22  23
ENDBRANCH  21  22
ENDBRANCH  19  21
ENDBRANCH   3  17
BRANCH   1  27
ATOM     27  C   UNL     1      26.801  -0.532  53.737  0.00  0.00    +0.000 C 
BRANCH  27  28
ATOM     28  C   UNL     1      27.206  -1.730  52.863  0.00  0.00    +0.000 C 
BRANCH  28  30
ATOM     29  C   UNL     1      29.521  -1.074  53.611  0.00  0.00    +0.000 C 
ATOM     30  C   UNL     1      28.639  -2.210  53.115  0.00  0.00    +0.000 C 
ENDBRANCH  28  30
ENDBRANCH  27  28
ENDBRANCH   1  27
TORSDOF 7
ENDMDL
MODEL 9
REMARK VINA RESULT:    -7.173      2.653      6.886
REMARK INTER + INTRA:         -11.211
REMARK INTER:                 -10.165
REMARK INTRA:                  -1.046
REMARK UNBOUND:                -1.103
REMARK  Name = 
REMARK  11 active torsions:
REMARK  status: ('A' for Active; 'I' for Inactive)
REMARK    1  A    between atoms: C_1  and  C_2
REMARK    2  A    between atoms: C_2  and  C_3
REMARK    3  A    between atoms: C_3  and  C_4
REMARK    4  A    between atoms: C_4  and  N_5
REMARK    5  A    between atoms: C_7  and  C_8
REMARK    6  A    between atoms: N_10  and  C_11
REMARK    7  A    between atoms: C_11  and  C_12
REMARK    8  A    between atoms: C_12  and  N_13
REMARK    9  A    between atoms: N_13  and  C_14
REMARK   10  A    between atoms: N_13  and  C_15
REMARK   11  A    between atoms: C_19  and  C_20
REMARK                            x       y       z     vdW  Elec       q    Type
REMARK                         _______ _______ _______ _____ _____    ______ ____
ROOT
ATOM      1  N   UNL     1      25.565   6.107  48.843  0.00  0.00    +0.000 N 
ATOM      2  C   UNL     1      24.239   6.177  49.247  0.00  0.00    +0.000 A 
ATOM      3  C   UNL     1      23.644   5.246  50.018  0.00  0.00    +0.000 A 
ATOM      4  C   UNL     1      24.473   4.098  50.443  0.00  0.00    +0.000 A 
ATOM      5  N   UNL     1      23.902   3.165  51.254  0.00  0.00    +0.000 NA
ATOM      6  C   UNL     1      24.639   2.110  51.687  0.00  0.00    +0.000 A 
ATOM      7  C   UNL     1      24.071   1.120  52.500  0.00  0.00    +0.000 A 
ATOM      8  C   UNL     1      22.624   1.164  52.916  0.00  0.00    +0.000 C 
ATOM      9  C   UNL     1      24.837   0.028  52.944  0.00  0.00    +0.000 A 
ATOM     10  C   UNL     1      26.178  -0.087  52.598  0.00  0.00    +0.000 A 
ATOM     11  C   UNL     1      26.759   0.884  51.795  0.00  0.00    +0.000 A 
ATOM     12  C   UNL     1      25.997   1.968  51.329  0.00  0.00    +0.000 A 
ATOM     13  C   UNL     1      26.567   2.928  50.490  0.00  0.00    +0.000 A 
ATOM     14  C   UNL     1      25.793   3.994  50.035  0.00  0.00    +0.000 A 
ATOM     15  C   UNL     1      26.382   5.016  49.149  0.00  0.00    +0.000 A 
ATOM     16  O   UNL     1      27.531   4.867  48.747  0.00  0.00    +0.000 OA
ENDROOT
BRANCH   3  17
ATOM     17  C   UNL     1      22.203   5.498  50.397  0.00  0.00    +0.000 C 
ATOM     18  O   UNL     1      21.838   6.552  50.910  0.00  0.00    +0.000 OA
ATOM     19  N   UNL     1      21.341   4.465  50.127  0.00  0.00    +0.000 N 
ATOM     20  H   UNL     1      21.703   3.705  49.616  0.00  0.00    +0.000 HD
BRANCH  19  21
ATOM     21  C   UNL     1      19.942   4.387  50.523  0.00  0.00    +0.000 C 
BRANCH  21  22
ATOM     22  C   UNL     1      19.674   3.509  51.763  0.00  0.00    +0.000 C 
BRANCH  22  23
ATOM     23  N   UNL     1      18.263   3.077  51.934  0.00  0.00    +0.000 N 
ATOM     24  C   UNL     1      17.367   4.012  51.244  0.00  0.00    +0.000 C 
ATOM     25  C   UNL     1      18.020   1.720  51.444  0.00  0.00    +0.000 C 
ATOM     26  H   UNL     1      18.075   3.077  52.936  0.00  0.00    +0.000 HD
ENDBRANCH  22  23
ENDBRANCH  21  22
ENDBRANCH  19  21
ENDBRANCH   3  17
BRANCH   1  27
ATOM     27  C   UNL     1      26.151   7.224  48.095  0.00  0.00    +0.000 C 
BRANCH  27  28
ATOM     28  C   UNL     1      26.006   8.576  48.811  0.00  0.00    +0.000 C 
BRANCH  28  30
ATOM     29  C   UNL     1      28.215   9.376  49.721  0.00  0.00    +0.000 C 
ATOM     30  C   UNL     1      26.891   8.706  50.054  0.00  0.00    +0.000 C 
ENDBRANCH  28  30
ENDBRANCH  27  28
ENDBRANCH   1  27
TORSDOF 7
ENDMDL
