MODEL 1
REMARK VINA RESULT:    -9.262      0.000      0.000
REMARK INTER + INTRA:         -14.615
REMARK INTER:                 -13.323
REMARK INTRA:                  -1.292
REMARK UNBOUND:                -1.292
REMARK  Name = 
REMARK  9 active torsions:
REMARK  status: ('A' for Active; 'I' for Inactive)
REMARK    1  A    between atoms: C_1  and  N_2
REMARK    2  A    between atoms: C_4  and  C_5
REMARK    3  A    between atoms: C_6  and  C_7
REMARK    4  A    between atoms: N_9  and  C_10
REMARK    5  A    between atoms: C_10  and  C_11
REMARK    6  A    between atoms: C_11  and  C_12
REMARK    7  A    between atoms: C_12  and  C_13
REMARK    8  A    between atoms: C_13  and  C_14
REMARK    9  A    between atoms: C_14  and  N_15
REMARK                            x       y       z     vdW  Elec       q    Type
REMARK                         _______ _______ _______ _____ _____    ______ ____
ROOT
ATOM      1  C   UNL     1      23.450   0.184  53.543  0.00  0.00    +0.000 C 
ATOM      2  C   UNL     1      22.737   1.120  52.901  0.00  0.00    +0.000 C 
ATOM      3  C   UNL     1      21.357   1.098  53.436  0.00  0.00    +0.000 C 
ATOM      4  O   UNL     1      20.432   1.814  53.112  0.00  0.00    +0.000 OA
ATOM      5  N   UNL     1      21.330   0.125  54.381  0.00  0.00    +0.000 N 
ATOM      6  C   UNL     1      22.518  -0.490  54.480  0.00  0.00    +0.000 C 
ATOM      7  O   UNL     1      22.770  -1.450  55.184  0.00  0.00    +0.000 OA
ATOM      8  H   UNL     1      20.539  -0.099  54.924  0.00  0.00    +0.000 HD
ENDROOT
BRANCH   1  12
ATOM      9  C   UNL     1      27.411  -2.548  52.506  0.00  0.00    +0.000 C 
ATOM     10  N   UNL     1      26.589  -1.426  52.901  0.00  0.00    +0.000 N 
ATOM     11  C   UNL     1      25.221  -1.445  52.973  0.00  0.00    +0.000 A 
ATOM     12  C   UNL     1      24.804  -0.190  53.361  0.00  0.00    +0.000 A 
ATOM     13  C   UNL     1      25.964   0.624  53.529  0.00  0.00    +0.000 A 
ATOM     14  C   UNL     1      26.187   1.968  53.898  0.00  0.00    +0.000 A 
ATOM     15  C   UNL     1      27.497   2.455  53.991  0.00  0.00    +0.000 A 
ATOM     16  C   UNL     1      28.582   1.627  53.725  0.00  0.00    +0.000 A 
ATOM     17  C   UNL     1      28.391   0.294  53.354  0.00  0.00    +0.000 A 
ATOM     18  C   UNL     1      27.074  -0.183  53.255  0.00  0.00    +0.000 A 
ENDBRANCH   1  12
BRANCH   2  19
ATOM     19  C   UNL     1      23.131   1.951  51.832  0.00  0.00    +0.000 A 
ATOM     20  C   UNL     1      24.049   2.969  51.921  0.00  0.00    +0.000 A 
ATOM     21  N   UNL     1      24.191   3.512  50.666  0.00  0.00    +0.000 N 
ATOM     22  C   UNL     1      23.290   2.921  49.792  0.00  0.00    +0.000 A 
ATOM     23  C   UNL     1      22.959   3.182  48.451  0.00  0.00    +0.000 A 
ATOM     24  C   UNL     1      22.170   2.247  47.767  0.00  0.00    +0.000 A 
ATOM     25  C   UNL     1      21.618   1.152  48.422  0.00  0.00    +0.000 A 
ATOM     26  C   UNL     1      21.825   0.983  49.793  0.00  0.00    +0.000 A 
ATOM     27  C   UNL     1      22.689   1.862  50.484  0.00  0.00    +0.000 A 
BRANCH  21  28
ATOM     28  C   UNL     1      25.205   4.507  50.345  0.00  0.00    +0.000 C 
BRANCH  28  29
ATOM     29  C   UNL     1      26.451   3.959  49.622  0.00  0.00    +0.000 C 
BRANCH  29  30
ATOM     30  C   UNL     1      27.220   5.008  48.814  0.00  0.00    +0.000 C 
BRANCH  30  31
ATOM     31  C   UNL     1      26.395   6.296  48.644  0.00  0.00    +0.000 C 
BRANCH  31  32
ATOM     32  C   UNL     1      27.133   7.548  49.121  0.00  0.00    +0.000 C 
BRANCH  32  33
ATOM     33  N   UNL     1      26.646   7.952  50.430  0.00  0.00    +0.000 N 
ATOM     34  H   UNL     1      27.437   8.108  51.055  0.00  0.00    +0.000 HD
ATOM     35  H   UNL     1      26.051   7.217  50.813  0.00  0.00    +0.000 HD
ATOM     36  H   UNL     1      26.106   8.813  50.342  0.00  0.00    +0.000 HD
ENDBRANCH  32  33
ENDBRANCH  31  32
ENDBRANCH  30  31
ENDBRANCH  29  30
ENDBRANCH  28  29
ENDBRANCH  21  28
ENDBRANCH   2  19
TORSDOF 8
ENDMDL
MODEL 2
REMARK VINA RESULT:    -8.867      1.068      2.036
REMARK INTER + INTRA:         -14.046
REMARK INTER:                 -13.423
REMARK INTRA:                  -0.623
REMARK UNBOUND:                -1.292
REMARK  Name = 
REMARK  9 active torsions:
REMARK  status: ('A' for Active; 'I' for Inactive)
REMARK    1  A    between atoms: C_1  and  N_2
REMARK    2  A    between atoms: C_4  and  C_5
REMARK    3  A    between atoms: C_6  and  C_7
REMARK    4  A    between atoms: N_9  and  C_10
REMARK    5  A    between atoms: C_10  and  C_11
REMARK    6  A    between atoms: C_11  and  C_12
REMARK    7  A    between atoms: C_12  and  C_13
REMARK    8  A    between atoms: C_13  and  C_14
REMARK    9  A    between atoms: C_14  and  N_15
REMARK                            x       y       z     vdW  Elec       q    Type
REMARK                         _______ _______ _______ _____ _____    ______ ____
ROOT
ATOM      1  C   UNL     1      24.042   0.473  53.612  0.00  0.00    +0.000 C 
ATOM      2  C   UNL     1      23.141   1.106  52.846  0.00  0.00    +0.000 C 
ATOM      3  C   UNL     1      21.793   0.624  53.223  0.00  0.00    +0.000 C 
ATOM      4  O   UNL     1      20.730   0.983  52.760  0.00  0.00    +0.000 OA
ATOM      5  N   UNL     1      21.976  -0.290  54.207  0.00  0.00    +0.000 N 
ATOM      6  C   UNL     1      23.280  -0.467  54.471  0.00  0.00    +0.000 C 
ATOM      7  O   UNL     1      23.749  -1.277  55.247  0.00  0.00    +0.000 OA
ATOM      8  H   UNL     1      21.246  -0.763  54.668  0.00  0.00    +0.000 HD
ENDROOT
BRANCH   1  12
ATOM      9  C   UNL     1      28.559   2.380  54.045  0.00  0.00    +0.000 C 
ATOM     10  N   UNL     1      27.490   1.440  53.790  0.00  0.00    +0.000 N 
ATOM     11  C   UNL     1      26.154   1.725  53.901  0.00  0.00    +0.000 A 
ATOM     12  C   UNL     1      25.454   0.577  53.602  0.00  0.00    +0.000 A 
ATOM     13  C   UNL     1      26.401  -0.447  53.299  0.00  0.00    +0.000 A 
ATOM     14  C   UNL     1      26.308  -1.807  52.934  0.00  0.00    +0.000 A 
ATOM     15  C   UNL     1      27.474  -2.540  52.678  0.00  0.00    +0.000 A 
ATOM     16  C   UNL     1      28.725  -1.939  52.777  0.00  0.00    +0.000 A 
ATOM     17  C   UNL     1      28.847  -0.596  53.139  0.00  0.00    +0.000 A 
ATOM     18  C   UNL     1      27.672   0.128  53.403  0.00  0.00    +0.000 A 
ENDBRANCH   1  12
BRANCH   2  19
ATOM     19  C   UNL     1      23.364   2.011  51.787  0.00  0.00    +0.000 A 
ATOM     20  C   UNL     1      24.183   3.112  51.849  0.00  0.00    +0.000 A 
ATOM     21  N   UNL     1      24.168   3.712  50.612  0.00  0.00    +0.000 N 
ATOM     22  C   UNL     1      23.260   3.065  49.786  0.00  0.00    +0.000 A 
ATOM     23  C   UNL     1      22.796   3.340  48.488  0.00  0.00    +0.000 A 
ATOM     24  C   UNL     1      22.047   2.355  47.827  0.00  0.00    +0.000 A 
ATOM     25  C   UNL     1      21.660   1.188  48.475  0.00  0.00    +0.000 A 
ATOM     26  C   UNL     1      21.995   0.991  49.816  0.00  0.00    +0.000 A 
ATOM     27  C   UNL     1      22.824   1.927  50.475  0.00  0.00    +0.000 A 
BRANCH  21  28
ATOM     28  C   UNL     1      25.050   4.815  50.257  0.00  0.00    +0.000 C 
BRANCH  28  29
ATOM     29  C   UNL     1      26.245   4.431  49.362  0.00  0.00    +0.000 C 
BRANCH  29  30
ATOM     30  C   UNL     1      26.939   5.623  48.697  0.00  0.00    +0.000 C 
BRANCH  30  31
ATOM     31  C   UNL     1      28.411   5.304  48.377  0.00  0.00    +0.000 C 
BRANCH  31  32
ATOM     32  C   UNL     1      29.274   6.556  48.211  0.00  0.00    +0.000 C 
BRANCH  32  33
ATOM     33  N   UNL     1      28.852   7.587  49.145  0.00  0.00    +0.000 N 
ATOM     34  H   UNL     1      29.665   8.116  49.459  0.00  0.00    +0.000 HD
ATOM     35  H   UNL     1      28.398   7.152  49.949  0.00  0.00    +0.000 HD
ATOM     36  H   UNL     1      28.193   8.215  48.683  0.00  0.00    +0.000 HD
ENDBRANCH  32  33
ENDBRANCH  31  32
ENDBRANCH  30  31
ENDBRANCH  29  30
ENDBRANCH  28  29
ENDBRANCH  21  28
ENDBRANCH   2  19
TORSDOF 8
ENDMDL
MODEL 3
REMARK VINA RESULT:    -8.517      3.233      6.816
REMARK INTER + INTRA:         -13.543
REMARK INTER:                 -12.275
REMARK INTRA:                  -1.268
REMARK UNBOUND:                -1.292
REMARK  Name = 
REMARK  9 active torsions:
REMARK  status: ('A' for Active; 'I' for Inactive)
REMARK    1  A    between atoms: C_1  and  N_2
REMARK    2  A    between atoms: C_4  and  C_5
REMARK    3  A    between atoms: C_6  and  C_7
REMARK    4  A    between atoms: N_9  and  C_10
REMARK    5  A    between atoms: C_10  and  C_11
REMARK    6  A    between atoms: C_11  and  C_12
REMARK    7  A    between atoms: C_12  and  C_13
REMARK    8  A    between atoms: C_13  and  C_14
REMARK    9  A    between atoms: C_14  and  N_15
REMARK                            x       y       z     vdW  Elec       q    Type
REMARK                         _______ _______ _______ _____ _____    ______ ____
ROOT
ATOM      1  C   UNL     1      19.363   0.114  52.499  0.00  0.00    +0.000 C 
ATOM      2  C   UNL     1      20.693   0.035  52.651  0.00  0.00    +0.000 C 
ATOM      3  C   UNL     1      20.987  -1.073  53.587  0.00  0.00    +0.000 C 
ATOM      4  O   UNL     1      22.080  -1.456  53.951  0.00  0.00    +0.000 OA
ATOM      5  N   UNL     1      19.789  -1.595  53.948  0.00  0.00    +0.000 N 
ATOM      6  C   UNL     1      18.775  -0.926  53.379  0.00  0.00    +0.000 C 
ATOM      7  O   UNL     1      17.590  -1.115  53.580  0.00  0.00    +0.000 OA
ATOM      8  H   UNL     1      19.678  -2.366  54.552  0.00  0.00    +0.000 HD
ENDROOT
BRANCH   1  12
ATOM      9  C   UNL     1      17.605   4.364  50.745  0.00  0.00    +0.000 C 
ATOM     10  N   UNL     1      17.806   2.946  50.947  0.00  0.00    +0.000 N 
ATOM     11  C   UNL     1      18.679   2.400  51.850  0.00  0.00    +0.000 A 
ATOM     12  C   UNL     1      18.604   1.029  51.730  0.00  0.00    +0.000 A 
ATOM     13  C   UNL     1      17.648   0.730  50.713  0.00  0.00    +0.000 A 
ATOM     14  C   UNL     1      17.148  -0.459  50.141  0.00  0.00    +0.000 A 
ATOM     15  C   UNL     1      16.165  -0.391  49.146  0.00  0.00    +0.000 A 
ATOM     16  C   UNL     1      15.674   0.837  48.715  0.00  0.00    +0.000 A 
ATOM     17  C   UNL     1      16.154   2.030  49.261  0.00  0.00    +0.000 A 
ATOM     18  C   UNL     1      17.145   1.953  50.253  0.00  0.00    +0.000 A 
ENDBRANCH   1  12
BRANCH   2  19
ATOM     19  C   UNL     1      21.693   0.878  52.122  0.00  0.00    +0.000 A 
ATOM     20  C   UNL     1      22.683   1.486  52.855  0.00  0.00    +0.000 A 
ATOM     21  N   UNL     1      23.478   2.186  51.979  0.00  0.00    +0.000 N 
ATOM     22  C   UNL     1      22.943   2.119  50.700  0.00  0.00    +0.000 A 
ATOM     23  C   UNL     1      23.302   2.737  49.490  0.00  0.00    +0.000 A 
ATOM     24  C   UNL     1      22.703   2.279  48.307  0.00  0.00    +0.000 A 
ATOM     25  C   UNL     1      21.688   1.330  48.334  0.00  0.00    +0.000 A 
ATOM     26  C   UNL     1      21.230   0.833  49.555  0.00  0.00    +0.000 A 
ATOM     27  C   UNL     1      21.878   1.212  50.752  0.00  0.00    +0.000 A 
BRANCH  21  28
ATOM     28  C   UNL     1      24.726   2.821  52.379  0.00  0.00    +0.000 C 
BRANCH  28  29
ATOM     29  C   UNL     1      25.584   2.007  53.369  0.00  0.00    +0.000 C 
BRANCH  29  30
ATOM     30  C   UNL     1      26.566   1.041  52.701  0.00  0.00    +0.000 C 
BRANCH  30  31
ATOM     31  C   UNL     1      27.916   1.019  53.440  0.00  0.00    +0.000 C 
BRANCH  31  32
ATOM     32  C   UNL     1      28.560   2.401  53.555  0.00  0.00    +0.000 C 
BRANCH  32  33
ATOM     33  N   UNL     1      29.533   2.417  54.635  0.00  0.00    +0.000 N 
ATOM     34  H   UNL     1      29.195   1.842  55.406  0.00  0.00    +0.000 HD
ATOM     35  H   UNL     1      29.668   3.375  54.958  0.00  0.00    +0.000 HD
ATOM     36  H   UNL     1      30.422   2.045  54.297  0.00  0.00    +0.000 HD
ENDBRANCH  32  33
ENDBRANCH  31  32
ENDBRANCH  30  31
ENDBRANCH  29  30
ENDBRANCH  28  29
ENDBRANCH  21  28
ENDBRANCH   2  19
TORSDOF 8
ENDMDL
MODEL 4
REMARK VINA RESULT:    -8.373      2.142      5.666
REMARK INTER + INTRA:         -13.336
REMARK INTER:                 -12.024
REMARK INTRA:                  -1.312
REMARK UNBOUND:                -1.292
REMARK  Name = 
REMARK  9 active torsions:
REMARK  status: ('A' for Active; 'I' for Inactive)
REMARK    1  A    between atoms: C_1  and  N_2
REMARK    2  A    between atoms: C_4  and  C_5
REMARK    3  A    between atoms: C_6  and  C_7
REMARK    4  A    between atoms: N_9  and  C_10
REMARK    5  A    between atoms: C_10  and  C_11
REMARK    6  A    between atoms: C_11  and  C_12
REMARK    7  A    between atoms: C_12  and  C_13
REMARK    8  A    between atoms: C_13  and  C_14
REMARK    9  A    between atoms: C_14  and  N_15
REMARK                            x       y       z     vdW  Elec       q    Type
REMARK                         _______ _______ _______ _____ _____    ______ ____
ROOT
ATOM      1  C   UNL     1      20.341   0.132  52.748  0.00  0.00    +0.000 C 
ATOM      2  C   UNL     1      21.552   0.120  53.323  0.00  0.00    +0.000 C 
ATOM      3  C   UNL     1      21.553  -0.918  54.377  0.00  0.00    +0.000 C 
ATOM      4  O   UNL     1      22.478  -1.232  55.098  0.00  0.00    +0.000 OA
ATOM      5  N   UNL     1      20.314  -1.470  54.371  0.00  0.00    +0.000 N 
ATOM      6  C   UNL     1      19.523  -0.879  53.462  0.00  0.00    +0.000 C 
ATOM      7  O   UNL     1      18.342  -1.109  53.285  0.00  0.00    +0.000 OA
ATOM      8  H   UNL     1      20.032  -2.209  54.958  0.00  0.00    +0.000 HD
ENDROOT
BRANCH   1  12
ATOM      9  C   UNL     1      17.434   3.253  50.290  0.00  0.00    +0.000 C 
ATOM     10  N   UNL     1      18.533   2.368  50.605  0.00  0.00    +0.000 N 
ATOM     11  C   UNL     1      18.671   1.679  51.781  0.00  0.00    +0.000 A 
ATOM     12  C   UNL     1      19.850   0.968  51.715  0.00  0.00    +0.000 A 
ATOM     13  C   UNL     1      20.453   1.236  50.449  0.00  0.00    +0.000 A 
ATOM     14  C   UNL     1      21.641   0.823  49.810  0.00  0.00    +0.000 A 
ATOM     15  C   UNL     1      21.926   1.273  48.514  0.00  0.00    +0.000 A 
ATOM     16  C   UNL     1      21.048   2.124  47.850  0.00  0.00    +0.000 A 
ATOM     17  C   UNL     1      19.867   2.551  48.461  0.00  0.00    +0.000 A 
ATOM     18  C   UNL     1      19.594   2.102  49.763  0.00  0.00    +0.000 A 
ENDBRANCH   1  12
BRANCH   2  19
ATOM     19  C   UNL     1      22.650   0.974  53.086  0.00  0.00    +0.000 A 
ATOM     20  C   UNL     1      22.579   2.341  52.984  0.00  0.00    +0.000 A 
ATOM     21  N   UNL     1      23.857   2.811  52.794  0.00  0.00    +0.000 N 
ATOM     22  C   UNL     1      24.736   1.745  52.665  0.00  0.00    +0.000 A 
ATOM     23  C   UNL     1      26.106   1.678  52.356  0.00  0.00    +0.000 A 
ATOM     24  C   UNL     1      26.768   0.455  52.536  0.00  0.00    +0.000 A 
ATOM     25  C   UNL     1      26.074  -0.697  52.886  0.00  0.00    +0.000 A 
ATOM     26  C   UNL     1      24.687  -0.655  53.040  0.00  0.00    +0.000 A 
ATOM     27  C   UNL     1      24.010   0.583  52.953  0.00  0.00    +0.000 A 
BRANCH  21  28
ATOM     28  C   UNL     1      24.189   4.229  52.808  0.00  0.00    +0.000 C 
BRANCH  28  29
ATOM     29  C   UNL     1      23.785   5.005  51.538  0.00  0.00    +0.000 C 
BRANCH  29  30
ATOM     30  C   UNL     1      23.504   4.118  50.322  0.00  0.00    +0.000 C 
BRANCH  30  31
ATOM     31  C   UNL     1      24.807   3.748  49.590  0.00  0.00    +0.000 C 
BRANCH  31  32
ATOM     32  C   UNL     1      25.873   4.841  49.672  0.00  0.00    +0.000 C 
BRANCH  32  33
ATOM     33  N   UNL     1      27.202   4.252  49.667  0.00  0.00    +0.000 N 
ATOM     34  H   UNL     1      27.572   4.237  50.616  0.00  0.00    +0.000 HD
ATOM     35  H   UNL     1      27.817   4.805  49.070  0.00  0.00    +0.000 HD
ATOM     36  H   UNL     1      27.149   3.298  49.307  0.00  0.00    +0.000 HD
ENDBRANCH  32  33
ENDBRANCH  31  32
ENDBRANCH  30  31
ENDBRANCH  29  30
ENDBRANCH  28  29
ENDBRANCH  21  28
ENDBRANCH   2  19
TORSDOF 8
ENDMDL
MODEL 5
REMARK VINA RESULT:    -8.348      2.701      6.526
REMARK INTER + INTRA:         -13.299
REMARK INTER:                 -11.462
REMARK INTRA:                  -1.838
REMARK UNBOUND:                -1.292
REMARK  Name = 
REMARK  9 active torsions:
REMARK  status: ('A' for Active; 'I' for Inactive)
REMARK    1  A    between atoms: C_1  and  N_2
REMARK    2  A    between atoms: C_4  and  C_5
REMARK    3  A    between atoms: C_6  and  C_7
REMARK    4  A    between atoms: N_9  and  C_10
REMARK    5  A    between atoms: C_10  and  C_11
REMARK    6  A    between atoms: C_11  and  C_12
REMARK    7  A    between atoms: C_12  and  C_13
REMARK    8  A    between atoms: C_13  and  C_14
REMARK    9  A    between atoms: C_14  and  N_15
REMARK                            x       y       z     vdW  Elec       q    Type
REMARK                         _______ _______ _______ _____ _____    ______ ____
ROOT
ATOM      1  C   UNL     1      24.001   2.717  52.081  0.00  0.00    +0.000 C 
ATOM      2  C   UNL     1      22.895   1.968  51.976  0.00  0.00    +0.000 C 
ATOM      3  C   UNL     1      23.105   0.721  52.745  0.00  0.00    +0.000 C 
ATOM      4  O   UNL     1      22.317  -0.190  52.897  0.00  0.00    +0.000 OA
ATOM      5  N   UNL     1      24.353   0.802  53.269  0.00  0.00    +0.000 N 
ATOM      6  C   UNL     1      24.966   1.934  52.893  0.00  0.00    +0.000 C 
ATOM      7  O   UNL     1      26.116   2.242  53.142  0.00  0.00    +0.000 OA
ATOM      8  H   UNL     1      24.756   0.117  53.851  0.00  0.00    +0.000 HD
ENDROOT
BRANCH   1  12
ATOM      9  C   UNL     1      23.750   7.526  51.063  0.00  0.00    +0.000 C 
ATOM     10  N   UNL     1      24.168   6.142  51.034  0.00  0.00    +0.000 N 
ATOM     11  C   UNL     1      23.608   5.140  51.782  0.00  0.00    +0.000 A 
ATOM     12  C   UNL     1      24.289   3.975  51.499  0.00  0.00    +0.000 A 
ATOM     13  C   UNL     1      25.303   4.282  50.542  0.00  0.00    +0.000 A 
ATOM     14  C   UNL     1      26.302   3.535  49.883  0.00  0.00    +0.000 A 
ATOM     15  C   UNL     1      27.143   4.165  48.956  0.00  0.00    +0.000 A 
ATOM     16  C   UNL     1      27.002   5.521  48.677  0.00  0.00    +0.000 A 
ATOM     17  C   UNL     1      26.023   6.284  49.317  0.00  0.00    +0.000 A 
ATOM     18  C   UNL     1      25.191   5.646  50.251  0.00  0.00    +0.000 A 
ENDBRANCH   1  12
BRANCH   2  19
ATOM     19  C   UNL     1      21.734   2.212  51.212  0.00  0.00    +0.000 A 
ATOM     20  C   UNL     1      20.469   2.363  51.725  0.00  0.00    +0.000 A 
ATOM     21  N   UNL     1      19.622   2.625  50.674  0.00  0.00    +0.000 N 
ATOM     22  C   UNL     1      20.318   2.537  49.477  0.00  0.00    +0.000 A 
ATOM     23  C   UNL     1      19.906   2.609  48.134  0.00  0.00    +0.000 A 
ATOM     24  C   UNL     1      20.891   2.722  47.143  0.00  0.00    +0.000 A 
ATOM     25  C   UNL     1      22.242   2.637  47.455  0.00  0.00    +0.000 A 
ATOM     26  C   UNL     1      22.640   2.410  48.774  0.00  0.00    +0.000 A 
ATOM     27  C   UNL     1      21.670   2.383  49.802  0.00  0.00    +0.000 A 
BRANCH  21  28
ATOM     28  C   UNL     1      18.229   3.005  50.858  0.00  0.00    +0.000 C 
BRANCH  28  29
ATOM     29  C   UNL     1      17.294   1.862  51.302  0.00  0.00    +0.000 C 
BRANCH  29  30
ATOM     30  C   UNL     1      17.670   0.489  50.739  0.00  0.00    +0.000 C 
BRANCH  30  31
ATOM     31  C   UNL     1      18.166  -0.453  51.851  0.00  0.00    +0.000 C 
BRANCH  31  32
ATOM     32  C   UNL     1      17.054  -0.892  52.805  0.00  0.00    +0.000 C 
BRANCH  32  33
ATOM     33  N   UNL     1      17.624  -1.462  54.015  0.00  0.00    +0.000 N 
ATOM     34  H   UNL     1      17.035  -1.226  54.813  0.00  0.00    +0.000 HD
ATOM     35  H   UNL     1      18.560  -1.083  54.161  0.00  0.00    +0.000 HD
ATOM     36  H   UNL     1      17.680  -2.476  53.920  0.00  0.00    +0.000 HD
ENDBRANCH  32  33
ENDBRANCH  31  32
ENDBRANCH  30  31
ENDBRANCH  29  30
ENDBRANCH  28  29
ENDBRANCH  21  28
ENDBRANCH   2  19
TORSDOF 8
ENDMDL
MODEL 6
REMARK VINA RESULT:    -8.328      2.852      6.722
REMARK INTER + INTRA:         -13.272
REMARK INTER:                 -12.572
REMARK INTRA:                  -0.699
REMARK UNBOUND:                -1.292
REMARK  Name = 
REMARK  9 active torsions:
REMARK  status: ('A' for Active; 'I' for Inactive)
REMARK    1  A    between atoms: C_1  and  N_2
REMARK    2  A    between atoms: C_4  and  C_5
REMARK    3  A    between atoms: C_6  and  C_7
REMARK    4  A    between atoms: N_9  and  C_10
REMARK    5  A    between atoms: C_10  and  C_11
REMARK    6  A    between atoms: C_11  and  C_12
REMARK    7  A    between atoms: C_12  and  C_13
REMARK    8  A    between atoms: C_13  and  C_14
REMARK    9  A    between atoms: C_14  and  N_15
REMARK                            x       y       z     vdW  Elec       q    Type
REMARK                         _______ _______ _______ _____ _____    ______ ____
ROOT
ATOM      1  C   UNL     1      19.634   0.364  52.071  0.00  0.00    +0.000 C 
ATOM      2  C   UNL     1      20.753   0.122  52.768  0.00  0.00    +0.000 C 
ATOM      3  C   UNL     1      20.449  -0.903  53.791  0.00  0.00    +0.000 C 
ATOM      4  O   UNL     1      21.218  -1.387  54.596  0.00  0.00    +0.000 OA
ATOM      5  N   UNL     1      19.138  -1.213  53.643  0.00  0.00    +0.000 N 
ATOM      6  C   UNL     1      18.571  -0.480  52.672  0.00  0.00    +0.000 C 
ATOM      7  O   UNL     1      17.393  -0.483  52.368  0.00  0.00    +0.000 OA
ATOM      8  H   UNL     1      18.663  -1.888  54.180  0.00  0.00    +0.000 HD
ENDROOT
BRANCH   1  12
ATOM      9  C   UNL     1      17.573   3.911  49.352  0.00  0.00    +0.000 C 
ATOM     10  N   UNL     1      18.483   2.875  49.785  0.00  0.00    +0.000 N 
ATOM     11  C   UNL     1      18.350   2.149  50.939  0.00  0.00    +0.000 A 
ATOM     12  C   UNL     1      19.418   1.281  51.014  0.00  0.00    +0.000 A 
ATOM     13  C   UNL     1      20.232   1.488  49.860  0.00  0.00    +0.000 A 
ATOM     14  C   UNL     1      21.434   0.925  49.381  0.00  0.00    +0.000 A 
ATOM     15  C   UNL     1      21.966   1.357  48.159  0.00  0.00    +0.000 A 
ATOM     16  C   UNL     1      21.320   2.336  47.411  0.00  0.00    +0.000 A 
ATOM     17  C   UNL     1      20.131   2.913  47.863  0.00  0.00    +0.000 A 
ATOM     18  C   UNL     1      19.610   2.480  49.093  0.00  0.00    +0.000 A 
ENDBRANCH   1  12
BRANCH   2  19
ATOM     19  C   UNL     1      22.009   0.756  52.666  0.00  0.00    +0.000 A 
ATOM     20  C   UNL     1      23.215   0.107  52.564  0.00  0.00    +0.000 A 
ATOM     21  N   UNL     1      24.194   1.064  52.444  0.00  0.00    +0.000 N 
ATOM     22  C   UNL     1      23.636   2.328  52.578  0.00  0.00    +0.000 A 
ATOM     23  C   UNL     1      24.203   3.613  52.641  0.00  0.00    +0.000 A 
ATOM     24  C   UNL     1      23.350   4.721  52.539  0.00  0.00    +0.000 A 
ATOM     25  C   UNL     1      21.969   4.567  52.504  0.00  0.00    +0.000 A 
ATOM     26  C   UNL     1      21.407   3.293  52.598  0.00  0.00    +0.000 A 
ATOM     27  C   UNL     1      22.247   2.157  52.611  0.00  0.00    +0.000 A 
BRANCH  21  28
ATOM     28  C   UNL     1      25.583   0.742  52.149  0.00  0.00    +0.000 C 
BRANCH  28  29
ATOM     29  C   UNL     1      26.354   0.063  53.299  0.00  0.00    +0.000 C 
BRANCH  29  30
ATOM     30  C   UNL     1      27.208  -1.130  52.863  0.00  0.00    +0.000 C 
BRANCH  30  31
ATOM     31  C   UNL     1      28.685  -0.928  53.245  0.00  0.00    +0.000 C 
BRANCH  31  32
ATOM     32  C   UNL     1      29.456  -2.242  53.379  0.00  0.00    +0.000 C 
BRANCH  32  33
ATOM     33  N   UNL     1      28.575  -3.371  53.129  0.00  0.00    +0.000 N 
ATOM     34  H   UNL     1      27.959  -3.156  52.345  0.00  0.00    +0.000 HD
ATOM     35  H   UNL     1      28.015  -3.556  53.961  0.00  0.00    +0.000 HD
ATOM     36  H   UNL     1      29.134  -4.196  52.906  0.00  0.00    +0.000 HD
ENDBRANCH  32  33
ENDBRANCH  31  32
ENDBRANCH  30  31
ENDBRANCH  29  30
ENDBRANCH  28  29
ENDBRANCH  21  28
ENDBRANCH   2  19
TORSDOF 8
ENDMDL
MODEL 7
REMARK VINA RESULT:    -8.157      2.491      4.835
REMARK INTER + INTRA:         -13.025
REMARK INTER:                 -10.758
REMARK INTRA:                  -2.267
REMARK UNBOUND:                -1.292
REMARK  Name = 
REMARK  9 active torsions:
REMARK  status: ('A' for Active; 'I' for Inactive)
REMARK    1  A    between atoms: C_1  and  N_2
REMARK    2  A    between atoms: C_4  and  C_5
REMARK    3  A    between atoms: C_6  and  C_7
REMARK    4  A    between atoms: N_9  and  C_10
REMARK    5  A    between atoms: C_10  and  C_11
REMARK    6  A    between atoms: C_11  and  C_12
REMARK    7  A    between atoms: C_12  and  C_13
REMARK    8  A    between atoms: C_13  and  C_14
REMARK    9  A    between atoms: C_14  and  N_15
REMARK                            x       y       z     vdW  Elec       q    Type
REMARK                         _______ _______ _______ _____ _____    ______ ____
ROOT
ATOM      1  C   UNL     1      24.541   1.660  51.600  0.00  0.00    +0.000 C 
ATOM      2  C   UNL     1      24.782   2.768  50.886  0.00  0.00    +0.000 C 
ATOM      3  C   UNL     1      26.231   2.819  50.586  0.00  0.00    +0.000 C 
ATOM      4  O   UNL     1      26.818   3.665  49.944  0.00  0.00    +0.000 OA
ATOM      5  N   UNL     1      26.777   1.717  51.157  0.00  0.00    +0.000 N 
ATOM      6  C   UNL     1      25.852   0.997  51.809  0.00  0.00    +0.000 C 
ATOM      7  O   UNL     1      26.060   0.004  52.480  0.00  0.00    +0.000 OA
ATOM      8  H   UNL     1      27.731   1.477  51.100  0.00  0.00    +0.000 HD
ENDROOT
BRANCH   1  12
ATOM      9  C   UNL     1      21.224   0.054  54.863  0.00  0.00    +0.000 C 
ATOM     10  N   UNL     1      21.826   0.462  53.614  0.00  0.00    +0.000 N 
ATOM     11  C   UNL     1      23.128   0.865  53.467  0.00  0.00    +0.000 A 
ATOM     12  C   UNL     1      23.318   1.194  52.142  0.00  0.00    +0.000 A 
ATOM     13  C   UNL     1      22.084   0.983  51.457  0.00  0.00    +0.000 A 
ATOM     14  C   UNL     1      21.651   1.143  50.123  0.00  0.00    +0.000 A 
ATOM     15  C   UNL     1      20.335   0.811  49.775  0.00  0.00    +0.000 A 
ATOM     16  C   UNL     1      19.450   0.323  50.731  0.00  0.00    +0.000 A 
ATOM     17  C   UNL     1      19.851   0.159  52.059  0.00  0.00    +0.000 A 
ATOM     18  C   UNL     1      21.169   0.503  52.400  0.00  0.00    +0.000 A 
ENDBRANCH   1  12
BRANCH   2  19
ATOM     19  C   UNL     1      23.887   3.797  50.524  0.00  0.00    +0.000 A 
ATOM     20  C   UNL     1      23.616   4.910  51.282  0.00  0.00    +0.000 A 
ATOM     21  N   UNL     1      22.732   5.689  50.575  0.00  0.00    +0.000 N 
ATOM     22  C   UNL     1      22.350   5.033  49.414  0.00  0.00    +0.000 A 
ATOM     23  C   UNL     1      21.405   5.339  48.419  0.00  0.00    +0.000 A 
ATOM     24  C   UNL     1      21.420   4.587  47.235  0.00  0.00    +0.000 A 
ATOM     25  C   UNL     1      22.254   3.485  47.091  0.00  0.00    +0.000 A 
ATOM     26  C   UNL     1      23.080   3.094  48.146  0.00  0.00    +0.000 A 
ATOM     27  C   UNL     1      23.149   3.888  49.313  0.00  0.00    +0.000 A 
BRANCH  21  28
ATOM     28  C   UNL     1      22.346   7.029  50.996  0.00  0.00    +0.000 C 
BRANCH  28  29
ATOM     29  C   UNL     1      22.802   8.164  50.058  0.00  0.00    +0.000 C 
BRANCH  29  30
ATOM     30  C   UNL     1      24.315   8.221  49.829  0.00  0.00    +0.000 C 
BRANCH  30  31
ATOM     31  C   UNL     1      24.692   7.653  48.449  0.00  0.00    +0.000 C 
BRANCH  31  32
ATOM     32  C   UNL     1      25.915   6.736  48.491  0.00  0.00    +0.000 C 
BRANCH  32  33
ATOM     33  N   UNL     1      26.440   6.656  49.845  0.00  0.00    +0.000 N 
ATOM     34  H   UNL     1      27.443   6.838  49.833  0.00  0.00    +0.000 HD
ATOM     35  H   UNL     1      26.267   5.724  50.221  0.00  0.00    +0.000 HD
ATOM     36  H   UNL     1      25.975   7.350  50.431  0.00  0.00    +0.000 HD
ENDBRANCH  32  33
ENDBRANCH  31  32
ENDBRANCH  30  31
ENDBRANCH  29  30
ENDBRANCH  28  29
ENDBRANCH  21  28
ENDBRANCH   2  19
TORSDOF 8
ENDMDL
MODEL 8
REMARK VINA RESULT:    -8.144      2.836      6.311
REMARK INTER + INTRA:         -13.006
REMARK INTER:                 -11.667
REMARK INTRA:                  -1.339
REMARK UNBOUND:                -1.292
REMARK  Name = 
REMARK  9 active torsions:
REMARK  status: ('A' for Active; 'I' for Inactive)
REMARK    1  A    between atoms: C_1  and  N_2
REMARK    2  A    between atoms: C_4  and  C_5
REMARK    3  A    between atoms: C_6  and  C_7
REMARK    4  A    between atoms: N_9  and  C_10
REMARK    5  A    between atoms: C_10  and  C_11
REMARK    6  A    between atoms: C_11  and  C_12
REMARK    7  A    between atoms: C_12  and  C_13
REMARK    8  A    between atoms: C_13  and  C_14
REMARK    9  A    between atoms: C_14  and  N_15
REMARK                            x       y       z     vdW  Elec       q    Type
REMARK                         _______ _______ _______ _____ _____    ______ ____
ROOT
ATOM      1  C   UNL     1      19.933   0.540  51.124  0.00  0.00    +0.000 C 
ATOM      2  C   UNL     1      20.570   0.092  52.215  0.00  0.00    +0.000 C 
ATOM      3  C   UNL     1      19.611  -0.703  53.016  0.00  0.00    +0.000 C 
ATOM      4  O   UNL     1      19.830  -1.282  54.060  0.00  0.00    +0.000 OA
ATOM      5  N   UNL     1      18.435  -0.673  52.342  0.00  0.00    +0.000 N 
ATOM      6  C   UNL     1      18.528   0.073  51.231  0.00  0.00    +0.000 C 
ATOM      7  O   UNL     1      17.617   0.345  50.473  0.00  0.00    +0.000 OA
ATOM      8  H   UNL     1      17.617  -1.140  52.633  0.00  0.00    +0.000 HD
ENDROOT
BRANCH   1  12
ATOM      9  C   UNL     1      22.536   2.034  47.222  0.00  0.00    +0.000 C 
ATOM     10  N   UNL     1      21.600   2.038  48.325  0.00  0.00    +0.000 N 
ATOM     11  C   UNL     1      21.399   0.990  49.184  0.00  0.00    +0.000 A 
ATOM     12  C   UNL     1      20.420   1.363  50.078  0.00  0.00    +0.000 A 
ATOM     13  C   UNL     1      20.008   2.690  49.750  0.00  0.00    +0.000 A 
ATOM     14  C   UNL     1      19.062   3.593  50.277  0.00  0.00    +0.000 A 
ATOM     15  C   UNL     1      18.925   4.867  49.710  0.00  0.00    +0.000 A 
ATOM     16  C   UNL     1      19.716   5.251  48.631  0.00  0.00    +0.000 A 
ATOM     17  C   UNL     1      20.658   4.376  48.088  0.00  0.00    +0.000 A 
ATOM     18  C   UNL     1      20.782   3.098  48.657  0.00  0.00    +0.000 A 
ENDBRANCH   1  12
BRANCH   2  19
ATOM     19  C   UNL     1      21.887   0.361  52.640  0.00  0.00    +0.000 A 
ATOM     20  C   UNL     1      22.789  -0.585  53.062  0.00  0.00    +0.000 A 
ATOM     21  N   UNL     1      23.967   0.063  53.350  0.00  0.00    +0.000 N 
ATOM     22  C   UNL     1      23.794   1.433  53.220  0.00  0.00    +0.000 A 
ATOM     23  C   UNL     1      24.636   2.525  53.496  0.00  0.00    +0.000 A 
ATOM     24  C   UNL     1      24.255   3.792  53.030  0.00  0.00    +0.000 A 
ATOM     25  C   UNL     1      23.022   3.996  52.423  0.00  0.00    +0.000 A 
ATOM     26  C   UNL     1      22.126   2.934  52.290  0.00  0.00    +0.000 A 
ATOM     27  C   UNL     1      22.522   1.632  52.670  0.00  0.00    +0.000 A 
BRANCH  21  28
ATOM     28  C   UNL     1      25.200  -0.643  53.669  0.00  0.00    +0.000 C 
BRANCH  28  29
ATOM     29  C   UNL     1      26.194  -0.780  52.498  0.00  0.00    +0.000 C 
BRANCH  29  30
ATOM     30  C   UNL     1      27.262   0.316  52.449  0.00  0.00    +0.000 C 
BRANCH  30  31
ATOM     31  C   UNL     1      28.120   0.316  53.726  0.00  0.00    +0.000 C 
BRANCH  31  32
ATOM     32  C   UNL     1      28.997   1.562  53.860  0.00  0.00    +0.000 C 
BRANCH  32  33
ATOM     33  N   UNL     1      28.180   2.724  54.168  0.00  0.00    +0.000 N 
ATOM     34  H   UNL     1      28.207   3.377  53.386  0.00  0.00    +0.000 HD
ATOM     35  H   UNL     1      28.541   3.181  55.006  0.00  0.00    +0.000 HD
ATOM     36  H   UNL     1      27.217   2.428  54.333  0.00  0.00    +0.000 HD
ENDBRANCH  32  33
ENDBRANCH  31  32
ENDBRANCH  30  31
ENDBRANCH  29  30
ENDBRANCH  28  29
ENDBRANCH  21  28
ENDBRANCH   2  19
TORSDOF 8
ENDMDL
MODEL 9
REMARK VINA RESULT:    -8.137      2.530      5.677
REMARK INTER + INTRA:         -12.996
REMARK INTER:                 -10.765
REMARK INTRA:                  -2.231
REMARK UNBOUND:                -1.292
REMARK  Name = 
REMARK  9 active torsions:
REMARK  status: ('A' for Active; 'I' for Inactive)
REMARK    1  A    between atoms: C_1  and  N_2
REMARK    2  A    between atoms: C_4  and  C_5
REMARK    3  A    between atoms: C_6  and  C_7
REMARK    4  A    between atoms: N_9  and  C_10
REMARK    5  A    between atoms: C_10  and  C_11
REMARK    6  A    between atoms: C_11  and  C_12
REMARK    7  A    between atoms: C_12  and  C_13
REMARK    8  A    between atoms: C_13  and  C_14
REMARK    9  A    between atoms: C_14  and  N_15
REMARK                            x       y       z     vdW  Elec       q    Type
REMARK                         _______ _______ _______ _____ _____    ______ ____
ROOT
ATOM      1  C   UNL     1      23.402   1.397  52.263  0.00  0.00    +0.000 C 
ATOM      2  C   UNL     1      24.412   2.277  52.288  0.00  0.00    +0.000 C 
ATOM      3  C   UNL     1      25.482   1.730  53.152  0.00  0.00    +0.000 C 
ATOM      4  O   UNL     1      26.557   2.236  53.399  0.00  0.00    +0.000 OA
ATOM      5  N   UNL     1      25.032   0.533  53.604  0.00  0.00    +0.000 N 
ATOM      6  C   UNL     1      23.793   0.278  53.156  0.00  0.00    +0.000 C 
ATOM      7  O   UNL     1      23.106  -0.679  53.458  0.00  0.00    +0.000 OA
ATOM      8  H   UNL     1      25.548  -0.070  54.187  0.00  0.00    +0.000 HD
ENDROOT
BRANCH   1  12
ATOM      9  C   UNL     1      18.542   1.298  51.488  0.00  0.00    +0.000 C 
ATOM     10  N   UNL     1      19.962   1.433  51.251  0.00  0.00    +0.000 N 
ATOM     11  C   UNL     1      20.934   1.245  52.198  0.00  0.00    +0.000 A 
ATOM     12  C   UNL     1      22.153   1.487  51.601  0.00  0.00    +0.000 A 
ATOM     13  C   UNL     1      21.911   1.836  50.238  0.00  0.00    +0.000 A 
ATOM     14  C   UNL     1      22.731   2.190  49.145  0.00  0.00    +0.000 A 
ATOM     15  C   UNL     1      22.151   2.458  47.899  0.00  0.00    +0.000 A 
ATOM     16  C   UNL     1      20.773   2.376  47.726  0.00  0.00    +0.000 A 
ATOM     17  C   UNL     1      19.938   2.031  48.791  0.00  0.00    +0.000 A 
ATOM     18  C   UNL     1      20.528   1.773  50.039  0.00  0.00    +0.000 A 
ENDBRANCH   1  12
BRANCH   2  19
ATOM     19  C   UNL     1      24.482   3.557  51.699  0.00  0.00    +0.000 A 
ATOM     20  C   UNL     1      23.703   4.632  52.052  0.00  0.00    +0.000 A 
ATOM     21  N   UNL     1      24.096   5.701  51.282  0.00  0.00    +0.000 N 
ATOM     22  C   UNL     1      25.050   5.292  50.361  0.00  0.00    +0.000 A 
ATOM     23  C   UNL     1      25.684   5.955  49.295  0.00  0.00    +0.000 A 
ATOM     24  C   UNL     1      26.787   5.337  48.690  0.00  0.00    +0.000 A 
ATOM     25  C   UNL     1      27.173   4.048  49.040  0.00  0.00    +0.000 A 
ATOM     26  C   UNL     1      26.442   3.336  49.992  0.00  0.00    +0.000 A 
ATOM     27  C   UNL     1      25.382   3.970  50.679  0.00  0.00    +0.000 A 
BRANCH  21  28
ATOM     28  C   UNL     1      23.603   7.054  51.497  0.00  0.00    +0.000 C 
BRANCH  28  29
ATOM     29  C   UNL     1      22.588   7.553  50.449  0.00  0.00    +0.000 C 
BRANCH  29  30
ATOM     30  C   UNL     1      21.273   6.770  50.427  0.00  0.00    +0.000 C 
BRANCH  30  31
ATOM     31  C   UNL     1      21.183   5.866  49.184  0.00  0.00    +0.000 C 
BRANCH  31  32
ATOM     32  C   UNL     1      19.778   5.811  48.583  0.00  0.00    +0.000 C 
BRANCH  32  33
ATOM     33  N   UNL     1      18.776   5.932  49.629  0.00  0.00    +0.000 N 
ATOM     34  H   UNL     1      18.966   6.763  50.188  0.00  0.00    +0.000 HD
ATOM     35  H   UNL     1      18.807   5.106  50.227  0.00  0.00    +0.000 HD
ATOM     36  H   UNL     1      17.850   6.010  49.206  0.00  0.00    +0.000 HD
ENDBRANCH  32  33
ENDBRANCH  31  32
ENDBRANCH  30  31
ENDBRANCH  29  30
ENDBRANCH  28  29
ENDBRANCH  21  28
ENDBRANCH   2  19
TORSDOF 8
ENDMDL
