MODEL 1
REMARK VINA RESULT:    -8.449      0.000      0.000
REMARK INTER + INTRA:         -12.238
REMARK INTER:                 -11.413
REMARK INTRA:                  -0.825
REMARK UNBOUND:                -0.825
REMARK  Name = 
REMARK  8 active torsions:
REMARK  status: ('A' for Active; 'I' for Inactive)
REMARK    1  A    between atoms: C_1  and  C_2
REMARK    2  A    between atoms: C_2  and  N_3
REMARK    3  A    between atoms: N_3  and  C_4
REMARK    4  A    between atoms: C_4  and  C_5
REMARK    5  A    between atoms: N_8  and  C_9
REMARK    6  A    between atoms: C_16  and  C_17
REMARK    7  A    between atoms: N_21  and  C_22
REMARK    8  A    between atoms: C_24  and  C_25
REMARK                            x       y       z     vdW  Elec       q    Type
REMARK                         _______ _______ _______ _____ _____    ______ ____
ROOT
ATOM      1  C   UNL     1      23.965   4.036  51.168  0.00  0.00    +0.000 A 
ATOM      2  C   UNL     1      22.573   4.041  51.361  0.00  0.00    +0.000 A 
ATOM      3  F   UNL     1      21.810   5.016  50.843  0.00  0.00    +0.000 F 
ATOM      4  C   UNL     1      21.910   3.020  52.030  0.00  0.00    +0.000 A 
ATOM      5  C   UNL     1      22.635   1.955  52.564  0.00  0.00    +0.000 A 
ATOM      6  C   UNL     1      21.895   0.899  53.306  0.00  0.00    +0.000 A 
ATOM      7  O   UNL     1      20.686   1.012  53.464  0.00  0.00    +0.000 OA
ATOM      8  C   UNL     1      22.677  -0.234  53.848  0.00  0.00    +0.000 A 
ATOM      9  C   UNL     1      24.004  -0.203  53.664  0.00  0.00    +0.000 A 
ATOM     10  N   UNL     1      24.725   0.794  53.031  0.00  0.00    +0.000 N 
ATOM     11  C   UNL     1      24.030   1.880  52.418  0.00  0.00    +0.000 A 
ATOM     12  C   UNL     1      24.655   2.909  51.680  0.00  0.00    +0.000 A 
ATOM     13  F   UNL     1      25.980   2.835  51.466  0.00  0.00    +0.000 F 
ENDROOT
BRANCH   1  17
ATOM     14  C   UNL     1      25.335   6.374  48.661  0.00  0.00    +0.000 C 
ATOM     15  C   UNL     1      24.553   7.233  49.659  0.00  0.00    +0.000 C 
ATOM     16  C   UNL     1      24.636   6.456  50.965  0.00  0.00    +0.000 C 
ATOM     17  N   UNL     1      24.642   5.067  50.536  0.00  0.00    +0.000 N 
ATOM     18  C   UNL     1      25.086   4.931  49.143  0.00  0.00    +0.000 C 
BRANCH  14  19
ATOM     19  C   UNL     1      26.822   6.754  48.629  0.00  0.00    +0.000 C 
BRANCH  19  20
ATOM     20  N   UNL     1      27.663   5.637  49.067  0.00  0.00    +0.000 N 
ATOM     21  H   UNL     1      27.879   5.749  50.057  0.00  0.00    +0.000 HD
ATOM     22  H   UNL     1      27.154   4.766  48.909  0.00  0.00    +0.000 HD
BRANCH  20  24
ATOM     23  C   UNL     1      29.044   6.841  47.451  0.00  0.00    +0.000 C 
ATOM     24  C   UNL     1      28.912   5.591  48.307  0.00  0.00    +0.000 C 
ENDBRANCH  20  24
ENDBRANCH  19  20
ENDBRANCH  14  19
ENDBRANCH   1  17
BRANCH  10  25
ATOM     25  C   UNL     1      26.204   0.690  53.019  0.00  0.00    +0.000 C 
ATOM     26  C   UNL     1      26.922  -0.438  52.301  0.00  0.00    +0.000 C 
ATOM     27  C   UNL     1      26.939  -0.384  53.797  0.00  0.00    +0.000 C 
ATOM     28  C   UNL     1      28.220  -0.084  54.498  0.00  0.00    +0.000 C 
ENDBRANCH  10  25
BRANCH   8  29
ATOM     29  C   UNL     1      22.126  -1.367  54.602  0.00  0.00    +0.000 C 
ATOM     30  O   UNL     1      21.026  -1.868  54.430  0.00  0.00    +0.000 OA
ATOM     31  O   UNL     1      22.934  -1.825  55.571  0.00  0.00    +0.000 OA
ENDBRANCH   8  29
TORSDOF 6
ENDMDL
MODEL 2
REMARK VINA RESULT:    -8.013      3.903      6.382
REMARK INTER + INTRA:         -11.649
REMARK INTER:                 -11.008
REMARK INTRA:                  -0.641
REMARK UNBOUND:                -0.825
REMARK  Name = 
REMARK  8 active torsions:
REMARK  status: ('A' for Active; 'I' for Inactive)
REMARK    1  A    between atoms: C_1  and  C_2
REMARK    2  A    between atoms: C_2  and  N_3
REMARK    3  A    between atoms: N_3  and  C_4
REMARK    4  A    between atoms: C_4  and  C_5
REMARK    5  A    between atoms: N_8  and  C_9
REMARK    6  A    between atoms: C_16  and  C_17
REMARK    7  A    between atoms: N_21  and  C_22
REMARK    8  A    between atoms: C_24  and  C_25
REMARK                            x       y       z     vdW  Elec       q    Type
REMARK                         _______ _______ _______ _____ _____    ______ ____
ROOT
ATOM      1  C   UNL     1      23.100   0.211  53.241  0.00  0.00    +0.000 A 
ATOM      2  C   UNL     1      22.460  -0.685  54.113  0.00  0.00    +0.000 A 
ATOM      3  F   UNL     1      23.130  -1.259  55.123  0.00  0.00    +0.000 F 
ATOM      4  C   UNL     1      21.104  -0.972  54.023  0.00  0.00    +0.000 A 
ATOM      5  C   UNL     1      20.335  -0.383  53.019  0.00  0.00    +0.000 A 
ATOM      6  C   UNL     1      18.894  -0.742  52.931  0.00  0.00    +0.000 A 
ATOM      7  O   UNL     1      18.433  -1.569  53.708  0.00  0.00    +0.000 OA
ATOM      8  C   UNL     1      18.089  -0.092  51.874  0.00  0.00    +0.000 A 
ATOM      9  C   UNL     1      18.730   0.744  51.045  0.00  0.00    +0.000 A 
ATOM     10  N   UNL     1      20.079   1.051  51.066  0.00  0.00    +0.000 N 
ATOM     11  C   UNL     1      20.903   0.520  52.105  0.00  0.00    +0.000 A 
ATOM     12  C   UNL     1      22.271   0.827  52.270  0.00  0.00    +0.000 A 
ATOM     13  F   UNL     1      22.831   1.735  51.453  0.00  0.00    +0.000 F 
ENDROOT
BRANCH   1  17
ATOM     14  C   UNL     1      26.713   0.410  52.509  0.00  0.00    +0.000 C 
ATOM     15  C   UNL     1      26.224   1.856  52.625  0.00  0.00    +0.000 C 
ATOM     16  C   UNL     1      25.045   1.776  53.584  0.00  0.00    +0.000 C 
ATOM     17  N   UNL     1      24.459   0.476  53.296  0.00  0.00    +0.000 N 
ATOM     18  C   UNL     1      25.427  -0.427  52.662  0.00  0.00    +0.000 C 
BRANCH  14  19
ATOM     19  C   UNL     1      27.778   0.084  53.566  0.00  0.00    +0.000 C 
BRANCH  19  20
ATOM     20  N   UNL     1      28.057  -1.354  53.610  0.00  0.00    +0.000 N 
ATOM     21  H   UNL     1      27.760  -1.724  54.512  0.00  0.00    +0.000 HD
ATOM     22  H   UNL     1      27.546  -1.807  52.852  0.00  0.00    +0.000 HD
BRANCH  20  24
ATOM     23  C   UNL     1      30.270  -0.317  53.553  0.00  0.00    +0.000 C 
ATOM     24  C   UNL     1      29.486  -1.615  53.432  0.00  0.00    +0.000 C 
ENDBRANCH  20  24
ENDBRANCH  19  20
ENDBRANCH  14  19
ENDBRANCH   1  17
BRANCH  10  25
ATOM     25  C   UNL     1      20.615   1.926  49.996  0.00  0.00    +0.000 C 
ATOM     26  C   UNL     1      19.849   2.181  48.712  0.00  0.00    +0.000 C 
ATOM     27  C   UNL     1      21.106   1.369  48.675  0.00  0.00    +0.000 C 
ATOM     28  C   UNL     1      22.314   1.930  48.005  0.00  0.00    +0.000 C 
ENDBRANCH  10  25
BRANCH   8  29
ATOM     29  C   UNL     1      16.657  -0.316  51.632  0.00  0.00    +0.000 C 
ATOM     30  O   UNL     1      16.184  -0.940  50.696  0.00  0.00    +0.000 OA
ATOM     31  O   UNL     1      15.852   0.268  52.532  0.00  0.00    +0.000 OA
ENDBRANCH   8  29
TORSDOF 6
ENDMDL
MODEL 3
REMARK VINA RESULT:    -7.858      3.938      6.327
REMARK INTER + INTRA:         -11.439
REMARK INTER:                 -10.908
REMARK INTRA:                  -0.531
REMARK UNBOUND:                -0.825
REMARK  Name = 
REMARK  8 active torsions:
REMARK  status: ('A' for Active; 'I' for Inactive)
REMARK    1  A    between atoms: C_1  and  C_2
REMARK    2  A    between atoms: C_2  and  N_3
REMARK    3  A    between atoms: N_3  and  C_4
REMARK    4  A    between atoms: C_4  and  C_5
REMARK    5  A    between atoms: N_8  and  C_9
REMARK    6  A    between atoms: C_16  and  C_17
REMARK    7  A    between atoms: N_21  and  C_22
REMARK    8  A    between atoms: C_24  and  C_25
REMARK                            x       y       z     vdW  Elec       q    Type
REMARK                         _______ _______ _______ _____ _____    ______ ____
ROOT
ATOM      1  C   UNL     1      23.046   0.112  53.276  0.00  0.00    +0.000 A 
ATOM      2  C   UNL     1      22.364  -0.767  54.135  0.00  0.00    +0.000 A 
ATOM      3  F   UNL     1      23.000  -1.361  55.157  0.00  0.00    +0.000 F 
ATOM      4  C   UNL     1      21.003  -1.017  54.019  0.00  0.00    +0.000 A 
ATOM      5  C   UNL     1      20.270  -0.405  53.002  0.00  0.00    +0.000 A 
ATOM      6  C   UNL     1      18.822  -0.724  52.885  0.00  0.00    +0.000 A 
ATOM      7  O   UNL     1      18.324  -1.539  53.652  0.00  0.00    +0.000 OA
ATOM      8  C   UNL     1      18.054  -0.051  51.814  0.00  0.00    +0.000 A 
ATOM      9  C   UNL     1      18.734   0.768  51.000  0.00  0.00    +0.000 A 
ATOM     10  N   UNL     1      20.091   1.038  51.047  0.00  0.00    +0.000 N 
ATOM     11  C   UNL     1      20.879   0.483  52.100  0.00  0.00    +0.000 A 
ATOM     12  C   UNL     1      22.252   0.752  52.291  0.00  0.00    +0.000 A 
ATOM     13  F   UNL     1      22.852   1.645  51.487  0.00  0.00    +0.000 F 
ENDROOT
BRANCH   1  17
ATOM     14  C   UNL     1      26.398   1.275  54.295  0.00  0.00    +0.000 C 
ATOM     15  C   UNL     1      26.449  -0.256  54.336  0.00  0.00    +0.000 C 
ATOM     16  C   UNL     1      25.433  -0.692  53.290  0.00  0.00    +0.000 C 
ATOM     17  N   UNL     1      24.410   0.339  53.358  0.00  0.00    +0.000 N 
ATOM     18  C   UNL     1      24.931   1.584  53.936  0.00  0.00    +0.000 C 
BRANCH  14  19
ATOM     19  C   UNL     1      27.403   1.848  53.285  0.00  0.00    +0.000 C 
BRANCH  19  20
ATOM     20  N   UNL     1      28.394   2.699  53.951  0.00  0.00    +0.000 N 
ATOM     21  H   UNL     1      28.808   3.328  53.265  0.00  0.00    +0.000 HD
ATOM     22  H   UNL     1      27.925   3.229  54.685  0.00  0.00    +0.000 HD
BRANCH  20  24
ATOM     23  C   UNL     1      29.810   0.731  53.646  0.00  0.00    +0.000 C 
ATOM     24  C   UNL     1      29.451   1.892  54.560  0.00  0.00    +0.000 C 
ENDBRANCH  20  24
ENDBRANCH  19  20
ENDBRANCH  14  19
ENDBRANCH   1  17
BRANCH  10  25
ATOM     25  C   UNL     1      20.670   1.899  49.989  0.00  0.00    +0.000 C 
ATOM     26  C   UNL     1      19.936   2.176  48.690  0.00  0.00    +0.000 C 
ATOM     27  C   UNL     1      21.172   1.330  48.677  0.00  0.00    +0.000 C 
ATOM     28  C   UNL     1      22.407   1.860  48.031  0.00  0.00    +0.000 C 
ENDBRANCH  10  25
BRANCH   8  29
ATOM     29  C   UNL     1      16.622  -0.235  51.546  0.00  0.00    +0.000 C 
ATOM     30  O   UNL     1      15.715   0.030  52.318  0.00  0.00    +0.000 OA
ATOM     31  O   UNL     1      16.355  -0.775  50.347  0.00  0.00    +0.000 OA
ENDBRANCH   8  29
TORSDOF 6
ENDMDL
MODEL 4
REMARK VINA RESULT:    -7.805      3.687      7.473
REMARK INTER + INTRA:         -11.368
REMARK INTER:                 -10.646
REMARK INTRA:                  -0.722
REMARK UNBOUND:                -0.825
REMARK  Name = 
REMARK  8 active torsions:
REMARK  status: ('A' for Active; 'I' for Inactive)
REMARK    1  A    between atoms: C_1  and  C_2
REMARK    2  A    between atoms: C_2  and  N_3
REMARK    3  A    between atoms: N_3  and  C_4
REMARK    4  A    between atoms: C_4  and  C_5
REMARK    5  A    between atoms: N_8  and  C_9
REMARK    6  A    between atoms: C_16  and  C_17
REMARK    7  A    between atoms: N_21  and  C_22
REMARK    8  A    between atoms: C_24  and  C_25
REMARK                            x       y       z     vdW  Elec       q    Type
REMARK                         _______ _______ _______ _____ _____    ______ ____
ROOT
ATOM      1  C   UNL     1      22.158   0.404  52.159  0.00  0.00    +0.000 A 
ATOM      2  C   UNL     1      22.622  -0.470  53.155  0.00  0.00    +0.000 A 
ATOM      3  F   UNL     1      21.822  -1.420  53.664  0.00  0.00    +0.000 F 
ATOM      4  C   UNL     1      23.932  -0.447  53.617  0.00  0.00    +0.000 A 
ATOM      5  C   UNL     1      24.830   0.490  53.107  0.00  0.00    +0.000 A 
ATOM      6  C   UNL     1      26.214   0.510  53.651  0.00  0.00    +0.000 A 
ATOM      7  O   UNL     1      26.515  -0.262  54.553  0.00  0.00    +0.000 OA
ATOM      8  C   UNL     1      27.161   1.496  53.083  0.00  0.00    +0.000 A 
ATOM      9  C   UNL     1      26.685   2.329  52.147  0.00  0.00    +0.000 A 
ATOM     10  N   UNL     1      25.389   2.373  51.665  0.00  0.00    +0.000 N 
ATOM     11  C   UNL     1      24.442   1.402  52.111  0.00  0.00    +0.000 A 
ATOM     12  C   UNL     1      23.118   1.304  51.631  0.00  0.00    +0.000 A 
ATOM     13  F   UNL     1      22.732   2.118  50.634  0.00  0.00    +0.000 F 
ENDROOT
BRANCH   1  17
ATOM     14  C   UNL     1      18.575   1.161  51.689  0.00  0.00    +0.000 C 
ATOM     15  C   UNL     1      19.242   1.409  50.333  0.00  0.00    +0.000 C 
ATOM     16  C   UNL     1      20.432   0.460  50.323  0.00  0.00    +0.000 C 
ATOM     17  N   UNL     1      20.844   0.416  51.718  0.00  0.00    +0.000 N 
ATOM     18  C   UNL     1      19.753   0.805  52.618  0.00  0.00    +0.000 C 
BRANCH  14  19
ATOM     19  C   UNL     1      17.513   0.056  51.605  0.00  0.00    +0.000 C 
BRANCH  19  20
ATOM     20  N   UNL     1      17.112  -0.394  52.942  0.00  0.00    +0.000 N 
ATOM     21  H   UNL     1      17.804  -0.082  53.621  0.00  0.00    +0.000 HD
ATOM     22  H   UNL     1      16.196   0.003  53.156  0.00  0.00    +0.000 HD
BRANCH  20  24
ATOM     23  C   UNL     1      18.219  -2.429  53.718  0.00  0.00    +0.000 C 
ATOM     24  C   UNL     1      17.012  -1.853  52.995  0.00  0.00    +0.000 C 
ENDBRANCH  20  24
ENDBRANCH  19  20
ENDBRANCH  14  19
ENDBRANCH   1  17
BRANCH  10  25
ATOM     25  C   UNL     1      25.037   3.440  50.698  0.00  0.00    +0.000 C 
ATOM     26  C   UNL     1      25.235   3.263  49.204  0.00  0.00    +0.000 C 
ATOM     27  C   UNL     1      26.096   4.231  49.955  0.00  0.00    +0.000 C 
ATOM     28  C   UNL     1      25.931   5.692  49.708  0.00  0.00    +0.000 C 
ENDBRANCH  10  25
BRANCH   8  29
ATOM     29  C   UNL     1      28.562   1.665  53.488  0.00  0.00    +0.000 C 
ATOM     30  O   UNL     1      29.064   2.699  53.898  0.00  0.00    +0.000 OA
ATOM     31  O   UNL     1      29.311   0.561  53.340  0.00  0.00    +0.000 OA
ENDBRANCH   8  29
TORSDOF 6
ENDMDL
MODEL 5
REMARK VINA RESULT:    -7.792      1.211      2.128
REMARK INTER + INTRA:         -11.350
REMARK INTER:                 -10.298
REMARK INTRA:                  -1.052
REMARK UNBOUND:                -0.825
REMARK  Name = 
REMARK  8 active torsions:
REMARK  status: ('A' for Active; 'I' for Inactive)
REMARK    1  A    between atoms: C_1  and  C_2
REMARK    2  A    between atoms: C_2  and  N_3
REMARK    3  A    between atoms: N_3  and  C_4
REMARK    4  A    between atoms: C_4  and  C_5
REMARK    5  A    between atoms: N_8  and  C_9
REMARK    6  A    between atoms: C_16  and  C_17
REMARK    7  A    between atoms: N_21  and  C_22
REMARK    8  A    between atoms: C_24  and  C_25
REMARK                            x       y       z     vdW  Elec       q    Type
REMARK                         _______ _______ _______ _____ _____    ______ ____
ROOT
ATOM      1  C   UNL     1      23.570   4.099  51.051  0.00  0.00    +0.000 A 
ATOM      2  C   UNL     1      22.181   4.014  51.245  0.00  0.00    +0.000 A 
ATOM      3  F   UNL     1      21.354   4.921  50.702  0.00  0.00    +0.000 F 
ATOM      4  C   UNL     1      21.588   2.969  51.942  0.00  0.00    +0.000 A 
ATOM      5  C   UNL     1      22.383   1.970  52.503  0.00  0.00    +0.000 A 
ATOM      6  C   UNL     1      21.717   0.886  53.273  0.00  0.00    +0.000 A 
ATOM      7  O   UNL     1      20.502   0.920  53.428  0.00  0.00    +0.000 OA
ATOM      8  C   UNL     1      22.574  -0.177  53.844  0.00  0.00    +0.000 A 
ATOM      9  C   UNL     1      23.895  -0.060  53.658  0.00  0.00    +0.000 A 
ATOM     10  N   UNL     1      24.548   0.967  52.998  0.00  0.00    +0.000 N 
ATOM     11  C   UNL     1      23.780   1.986  52.357  0.00  0.00    +0.000 A 
ATOM     12  C   UNL     1      24.335   3.036  51.592  0.00  0.00    +0.000 A 
ATOM     13  F   UNL     1      25.661   3.046  51.379  0.00  0.00    +0.000 F 
ENDROOT
BRANCH   1  17
ATOM     14  C   UNL     1      25.582   7.079  50.214  0.00  0.00    +0.000 C 
ATOM     15  C   UNL     1      26.077   5.960  49.293  0.00  0.00    +0.000 C 
ATOM     16  C   UNL     1      24.864   5.058  49.114  0.00  0.00    +0.000 C 
ATOM     17  N   UNL     1      24.176   5.156  50.392  0.00  0.00    +0.000 N 
ATOM     18  C   UNL     1      24.541   6.381  51.112  0.00  0.00    +0.000 C 
BRANCH  14  19
ATOM     19  C   UNL     1      25.002   8.255  49.416  0.00  0.00    +0.000 C 
BRANCH  19  20
ATOM     20  N   UNL     1      23.611   8.518  49.796  0.00  0.00    +0.000 N 
ATOM     21  H   UNL     1      23.290   7.778  50.419  0.00  0.00    +0.000 HD
ATOM     22  H   UNL     1      23.569   9.423  50.265  0.00  0.00    +0.000 HD
BRANCH  20  24
ATOM     23  C   UNL     1      23.525   8.132  47.385  0.00  0.00    +0.000 C 
ATOM     24  C   UNL     1      22.746   8.562  48.617  0.00  0.00    +0.000 C 
ENDBRANCH  20  24
ENDBRANCH  19  20
ENDBRANCH  14  19
ENDBRANCH   1  17
BRANCH  10  25
ATOM     25  C   UNL     1      26.030   0.963  52.988  0.00  0.00    +0.000 C 
ATOM     26  C   UNL     1      26.822   0.003  52.121  0.00  0.00    +0.000 C 
ATOM     27  C   UNL     1      26.834  -0.162  53.609  0.00  0.00    +0.000 C 
ATOM     28  C   UNL     1      28.091   0.115  54.360  0.00  0.00    +0.000 C 
ENDBRANCH  10  25
BRANCH   8  29
ATOM     29  C   UNL     1      22.100  -1.325  54.628  0.00  0.00    +0.000 C 
ATOM     30  O   UNL     1      21.026  -1.888  54.487  0.00  0.00    +0.000 OA
ATOM     31  O   UNL     1      22.950  -1.721  55.587  0.00  0.00    +0.000 OA
ENDBRANCH   8  29
TORSDOF 6
ENDMDL
MODEL 6
REMARK VINA RESULT:    -7.745      3.511      6.498
REMARK INTER + INTRA:         -11.286
REMARK INTER:                 -10.377
REMARK INTRA:                  -0.909
REMARK UNBOUND:                -0.825
REMARK  Name = 
REMARK  8 active torsions:
REMARK  status: ('A' for Active; 'I' for Inactive)
REMARK    1  A    between atoms: C_1  and  C_2
REMARK    2  A    between atoms: C_2  and  N_3
REMARK    3  A    between atoms: N_3  and  C_4
REMARK    4  A    between atoms: C_4  and  C_5
REMARK    5  A    between atoms: N_8  and  C_9
REMARK    6  A    between atoms: C_16  and  C_17
REMARK    7  A    between atoms: N_21  and  C_22
REMARK    8  A    between atoms: C_24  and  C_25
REMARK                            x       y       z     vdW  Elec       q    Type
REMARK                         _______ _______ _______ _____ _____    ______ ____
ROOT
ATOM      1  C   UNL     1      22.249   0.862  52.178  0.00  0.00    +0.000 A 
ATOM      2  C   UNL     1      22.615  -0.042  53.189  0.00  0.00    +0.000 A 
ATOM      3  F   UNL     1      21.715  -0.887  53.715  0.00  0.00    +0.000 F 
ATOM      4  C   UNL     1      23.921  -0.158  53.649  0.00  0.00    +0.000 A 
ATOM      5  C   UNL     1      24.917   0.664  53.121  0.00  0.00    +0.000 A 
ATOM      6  C   UNL     1      26.297   0.538  53.663  0.00  0.00    +0.000 A 
ATOM      7  O   UNL     1      26.512  -0.248  54.578  0.00  0.00    +0.000 OA
ATOM      8  C   UNL     1      27.345   1.402  53.077  0.00  0.00    +0.000 A 
ATOM      9  C   UNL     1      26.963   2.267  52.128  0.00  0.00    +0.000 A 
ATOM     10  N   UNL     1      25.678   2.447  51.646  0.00  0.00    +0.000 N 
ATOM     11  C   UNL     1      24.630   1.597  52.111  0.00  0.00    +0.000 A 
ATOM     12  C   UNL     1      23.302   1.639  51.634  0.00  0.00    +0.000 A 
ATOM     13  F   UNL     1      23.006   2.474  50.624  0.00  0.00    +0.000 F 
ENDROOT
BRANCH   1  17
ATOM     14  C   UNL     1      18.960   0.367  50.575  0.00  0.00    +0.000 C 
ATOM     15  C   UNL     1      18.683   0.512  52.074  0.00  0.00    +0.000 C 
ATOM     16  C   UNL     1      19.818   1.392  52.580  0.00  0.00    +0.000 C 
ATOM     17  N   UNL     1      20.943   1.013  51.739  0.00  0.00    +0.000 N 
ATOM     18  C   UNL     1      20.498   0.405  50.480  0.00  0.00    +0.000 C 
BRANCH  14  19
ATOM     19  C   UNL     1      18.276   1.475  49.762  0.00  0.00    +0.000 C 
BRANCH  19  20
ATOM     20  N   UNL     1      19.178   2.018  48.743  0.00  0.00    +0.000 N 
ATOM     21  H   UNL     1      20.130   1.715  48.944  0.00  0.00    +0.000 HD
ATOM     22  H   UNL     1      18.880   1.674  47.829  0.00  0.00    +0.000 HD
BRANCH  20  24
ATOM     23  C   UNL     1      19.906   4.034  49.915  0.00  0.00    +0.000 C 
ATOM     24  C   UNL     1      19.133   3.480  48.729  0.00  0.00    +0.000 C 
ENDBRANCH  20  24
ENDBRANCH  19  20
ENDBRANCH  14  19
ENDBRANCH   1  17
BRANCH  10  25
ATOM     25  C   UNL     1      25.445   3.530  50.661  0.00  0.00    +0.000 C 
ATOM     26  C   UNL     1      25.233   3.240  49.187  0.00  0.00    +0.000 C 
ATOM     27  C   UNL     1      26.490   3.920  49.635  0.00  0.00    +0.000 C 
ATOM     28  C   UNL     1      26.713   5.348  49.268  0.00  0.00    +0.000 C 
ENDBRANCH  10  25
BRANCH   8  29
ATOM     29  C   UNL     1      28.759   1.419  53.477  0.00  0.00    +0.000 C 
ATOM     30  O   UNL     1      29.533   0.479  53.388  0.00  0.00    +0.000 OA
ATOM     31  O   UNL     1      29.163   2.582  54.009  0.00  0.00    +0.000 OA
ENDBRANCH   8  29
TORSDOF 6
ENDMDL
MODEL 7
REMARK VINA RESULT:    -7.596      3.823      7.029
REMARK INTER + INTRA:         -11.085
REMARK INTER:                 -10.639
REMARK INTRA:                  -0.446
REMARK UNBOUND:                -0.825
REMARK  Name = 
REMARK  8 active torsions:
REMARK  status: ('A' for Active; 'I' for Inactive)
REMARK    1  A    between atoms: C_1  and  C_2
REMARK    2  A    between atoms: C_2  and  N_3
REMARK    3  A    between atoms: N_3  and  C_4
REMARK    4  A    between atoms: C_4  and  C_5
REMARK    5  A    between atoms: N_8  and  C_9
REMARK    6  A    between atoms: C_16  and  C_17
REMARK    7  A    between atoms: N_21  and  C_22
REMARK    8  A    between atoms: C_24  and  C_25
REMARK                            x       y       z     vdW  Elec       q    Type
REMARK                         _______ _______ _______ _____ _____    ______ ____
ROOT
ATOM      1  C   UNL     1      21.994   1.186  52.287  0.00  0.00    +0.000 A 
ATOM      2  C   UNL     1      22.298   0.298  53.332  0.00  0.00    +0.000 A 
ATOM      3  F   UNL     1      21.338  -0.445  53.905  0.00  0.00    +0.000 F 
ATOM      4  C   UNL     1      23.596   0.092  53.782  0.00  0.00    +0.000 A 
ATOM      5  C   UNL     1      24.650   0.803  53.208  0.00  0.00    +0.000 A 
ATOM      6  C   UNL     1      26.022   0.583  53.740  0.00  0.00    +0.000 A 
ATOM      7  O   UNL     1      26.184  -0.178  54.686  0.00  0.00    +0.000 OA
ATOM      8  C   UNL     1      27.131   1.329  53.105  0.00  0.00    +0.000 A 
ATOM      9  C   UNL     1      26.809   2.182  52.123  0.00  0.00    +0.000 A 
ATOM     10  N   UNL     1      25.537   2.451  51.648  0.00  0.00    +0.000 N 
ATOM     11  C   UNL     1      24.428   1.712  52.161  0.00  0.00    +0.000 A 
ATOM     12  C   UNL     1      23.101   1.847  51.697  0.00  0.00    +0.000 A 
ATOM     13  F   UNL     1      22.862   2.661  50.655  0.00  0.00    +0.000 F 
ENDROOT
BRANCH   1  17
ATOM     14  C   UNL     1      18.920   2.765  50.990  0.00  0.00    +0.000 C 
ATOM     15  C   UNL     1      19.228   1.599  50.046  0.00  0.00    +0.000 C 
ATOM     16  C   UNL     1      19.961   0.593  50.923  0.00  0.00    +0.000 C 
ATOM     17  N   UNL     1      20.700   1.429  51.856  0.00  0.00    +0.000 N 
ATOM     18  C   UNL     1      20.107   2.766  51.973  0.00  0.00    +0.000 C 
BRANCH  14  19
ATOM     19  C   UNL     1      17.560   2.591  51.682  0.00  0.00    +0.000 C 
BRANCH  19  20
ATOM     20  N   UNL     1      17.014   3.883  52.108  0.00  0.00    +0.000 N 
ATOM     21  H   UNL     1      17.104   3.966  53.119  0.00  0.00    +0.000 HD
ATOM     22  H   UNL     1      17.535   4.625  51.640  0.00  0.00    +0.000 HD
BRANCH  20  24
ATOM     23  C   UNL     1      14.725   3.581  52.909  0.00  0.00    +0.000 C 
ATOM     24  C   UNL     1      15.603   4.001  51.740  0.00  0.00    +0.000 C 
ENDBRANCH  20  24
ENDBRANCH  19  20
ENDBRANCH  14  19
ENDBRANCH   1  17
BRANCH  10  25
ATOM     25  C   UNL     1      25.382   3.506  50.620  0.00  0.00    +0.000 C 
ATOM     26  C   UNL     1      25.128   3.172  49.162  0.00  0.00    +0.000 C 
ATOM     27  C   UNL     1      26.442   3.764  49.568  0.00  0.00    +0.000 C 
ATOM     28  C   UNL     1      26.777   5.152  49.138  0.00  0.00    +0.000 C 
ENDBRANCH  10  25
BRANCH   8  29
ATOM     29  C   UNL     1      28.546   1.243  53.489  0.00  0.00    +0.000 C 
ATOM     30  O   UNL     1      29.238   0.239  53.430  0.00  0.00    +0.000 OA
ATOM     31  O   UNL     1      29.055   2.389  53.966  0.00  0.00    +0.000 OA
ENDBRANCH   8  29
TORSDOF 6
ENDMDL
MODEL 8
REMARK VINA RESULT:    -7.404      3.071      6.571
REMARK INTER + INTRA:         -10.826
REMARK INTER:                 -10.540
REMARK INTRA:                  -0.287
REMARK UNBOUND:                -0.825
REMARK  Name = 
REMARK  8 active torsions:
REMARK  status: ('A' for Active; 'I' for Inactive)
REMARK    1  A    between atoms: C_1  and  C_2
REMARK    2  A    between atoms: C_2  and  N_3
REMARK    3  A    between atoms: N_3  and  C_4
REMARK    4  A    between atoms: C_4  and  C_5
REMARK    5  A    between atoms: N_8  and  C_9
REMARK    6  A    between atoms: C_16  and  C_17
REMARK    7  A    between atoms: N_21  and  C_22
REMARK    8  A    between atoms: C_24  and  C_25
REMARK                            x       y       z     vdW  Elec       q    Type
REMARK                         _______ _______ _______ _____ _____    ______ ____
ROOT
ATOM      1  C   UNL     1      23.184   0.867  52.687  0.00  0.00    +0.000 A 
ATOM      2  C   UNL     1      22.212  -0.145  52.614  0.00  0.00    +0.000 A 
ATOM      3  F   UNL     1      22.527  -1.421  52.884  0.00  0.00    +0.000 F 
ATOM      4  C   UNL     1      20.879   0.120  52.330  0.00  0.00    +0.000 A 
ATOM      5  C   UNL     1      20.471   1.429  52.075  0.00  0.00    +0.000 A 
ATOM      6  C   UNL     1      19.042   1.671  51.739  0.00  0.00    +0.000 A 
ATOM      7  O   UNL     1      18.277   0.719  51.654  0.00  0.00    +0.000 OA
ATOM      8  C   UNL     1      18.623   3.069  51.492  0.00  0.00    +0.000 A 
ATOM      9  C   UNL     1      19.574   4.011  51.550  0.00  0.00    +0.000 A 
ATOM     10  N   UNL     1      20.920   3.809  51.802  0.00  0.00    +0.000 N 
ATOM     11  C   UNL     1      21.383   2.497  52.124  0.00  0.00    +0.000 A 
ATOM     12  C   UNL     1      22.716   2.188  52.473  0.00  0.00    +0.000 A 
ATOM     13  F   UNL     1      23.600   3.193  52.592  0.00  0.00    +0.000 F 
ENDROOT
BRANCH   1  17
ATOM     14  C   UNL     1      26.378  -0.697  53.676  0.00  0.00    +0.000 C 
ATOM     15  C   UNL     1      26.506  -0.379  52.183  0.00  0.00    +0.000 C 
ATOM     16  C   UNL     1      25.602   0.829  51.980  0.00  0.00    +0.000 C 
ATOM     17  N   UNL     1      24.523   0.611  52.931  0.00  0.00    +0.000 N 
ATOM     18  C   UNL     1      24.930  -0.291  54.016  0.00  0.00    +0.000 C 
BRANCH  14  19
ATOM     19  C   UNL     1      27.428   0.052  54.508  0.00  0.00    +0.000 C 
BRANCH  19  20
ATOM     20  N   UNL     1      28.568   0.458  53.679  0.00  0.00    +0.000 N 
ATOM     21  H   UNL     1      28.343   0.294  52.699  0.00  0.00    +0.000 HD
ATOM     22  H   UNL     1      28.751   1.448  53.844  0.00  0.00    +0.000 HD
BRANCH  20  24
ATOM     23  C   UNL     1      29.681  -1.706  53.447  0.00  0.00    +0.000 C 
ATOM     24  C   UNL     1      29.767  -0.304  54.030  0.00  0.00    +0.000 C 
ENDBRANCH  20  24
ENDBRANCH  19  20
ENDBRANCH  14  19
ENDBRANCH   1  17
BRANCH  10  25
ATOM     25  C   UNL     1      21.830   4.976  51.724  0.00  0.00    +0.000 C 
ATOM     26  C   UNL     1      21.468   6.222  50.939  0.00  0.00    +0.000 C 
ATOM     27  C   UNL     1      22.569   5.333  50.450  0.00  0.00    +0.000 C 
ATOM     28  C   UNL     1      23.974   5.830  50.490  0.00  0.00    +0.000 C 
ENDBRANCH  10  25
BRANCH   8  29
ATOM     29  C   UNL     1      17.262   3.503  51.151  0.00  0.00    +0.000 C 
ATOM     30  O   UNL     1      16.678   3.257  50.107  0.00  0.00    +0.000 OA
ATOM     31  O   UNL     1      16.676   4.259  52.092  0.00  0.00    +0.000 OA
ENDBRANCH   8  29
TORSDOF 6
ENDMDL
MODEL 9
REMARK VINA RESULT:    -7.350      3.645      6.130
REMARK INTER + INTRA:         -10.753
REMARK INTER:                  -9.677
REMARK INTRA:                  -1.076
REMARK UNBOUND:                -0.825
REMARK  Name = 
REMARK  8 active torsions:
REMARK  status: ('A' for Active; 'I' for Inactive)
REMARK    1  A    between atoms: C_1  and  C_2
REMARK    2  A    between atoms: C_2  and  N_3
REMARK    3  A    between atoms: N_3  and  C_4
REMARK    4  A    between atoms: C_4  and  C_5
REMARK    5  A    between atoms: N_8  and  C_9
REMARK    6  A    between atoms: C_16  and  C_17
REMARK    7  A    between atoms: N_21  and  C_22
REMARK    8  A    between atoms: C_24  and  C_25
REMARK                            x       y       z     vdW  Elec       q    Type
REMARK                         _______ _______ _______ _____ _____    ______ ____
ROOT
ATOM      1  C   UNL     1      21.994   2.874  50.739  0.00  0.00    +0.000 A 
ATOM      2  C   UNL     1      23.165   3.208  50.038  0.00  0.00    +0.000 A 
ATOM      3  F   UNL     1      23.127   4.066  49.007  0.00  0.00    +0.000 F 
ATOM      4  C   UNL     1      24.416   2.731  50.406  0.00  0.00    +0.000 A 
ATOM      5  C   UNL     1      24.536   1.863  51.491  0.00  0.00    +0.000 A 
ATOM      6  C   UNL     1      25.887   1.344  51.833  0.00  0.00    +0.000 A 
ATOM      7  O   UNL     1      26.844   1.655  51.135  0.00  0.00    +0.000 OA
ATOM      8  C   UNL     1      26.000   0.441  53.001  0.00  0.00    +0.000 A 
ATOM      9  C   UNL     1      24.865   0.125  53.638  0.00  0.00    +0.000 A 
ATOM     10  N   UNL     1      23.588   0.545  53.307  0.00  0.00    +0.000 N 
ATOM     11  C   UNL     1      23.412   1.477  52.240  0.00  0.00    +0.000 A 
ATOM     12  C   UNL     1      22.169   2.032  51.866  0.00  0.00    +0.000 A 
ATOM     13  F   UNL     1      21.084   1.735  52.600  0.00  0.00    +0.000 F 
ENDROOT
BRANCH   1  17
ATOM     14  C   UNL     1      19.011   4.934  50.039  0.00  0.00    +0.000 C 
ATOM     15  C   UNL     1      19.414   4.303  48.703  0.00  0.00    +0.000 C 
ATOM     16  C   UNL     1      20.089   2.996  49.095  0.00  0.00    +0.000 C 
ATOM     17  N   UNL     1      20.736   3.312  50.359  0.00  0.00    +0.000 N 
ATOM     18  C   UNL     1      20.114   4.470  51.012  0.00  0.00    +0.000 C 
BRANCH  14  19
ATOM     19  C   UNL     1      17.603   4.500  50.469  0.00  0.00    +0.000 C 
BRANCH  19  20
ATOM     20  N   UNL     1      17.636   3.790  51.751  0.00  0.00    +0.000 N 
ATOM     21  H   UNL     1      18.603   3.564  51.983  0.00  0.00    +0.000 HD
ATOM     22  H   UNL     1      17.229   4.393  52.467  0.00  0.00    +0.000 HD
BRANCH  20  24
ATOM     23  C   UNL     1      17.777   1.376  51.401  0.00  0.00    +0.000 C 
ATOM     24  C   UNL     1      16.858   2.553  51.685  0.00  0.00    +0.000 C 
ENDBRANCH  20  24
ENDBRANCH  19  20
ENDBRANCH  14  19
ENDBRANCH   1  17
BRANCH  10  25
ATOM     25  C   UNL     1      22.448   0.001  54.083  0.00  0.00    +0.000 C 
ATOM     26  C   UNL     1      22.591  -1.230  54.959  0.00  0.00    +0.000 C 
ATOM     27  C   UNL     1      21.773  -1.303  53.708  0.00  0.00    +0.000 C 
ATOM     28  C   UNL     1      20.294  -1.461  53.816  0.00  0.00    +0.000 C 
ENDBRANCH  10  25
BRANCH   8  29
ATOM     29  C   UNL     1      27.243  -0.167  53.492  0.00  0.00    +0.000 C 
ATOM     30  O   UNL     1      28.080   0.389  54.184  0.00  0.00    +0.000 OA
ATOM     31  O   UNL     1      27.433  -1.431  53.084  0.00  0.00    +0.000 OA
ENDBRANCH   8  29
TORSDOF 6
ENDMDL
