MODEL 1
REMARK VINA RESULT:    -8.939      0.000      0.000
REMARK INTER + INTRA:         -12.390
REMARK INTER:                 -11.552
REMARK INTRA:                  -0.838
REMARK UNBOUND:                -0.838
REMARK  Name = 
REMARK  6 active torsions:
REMARK  status: ('A' for Active; 'I' for Inactive)
REMARK    1  A    between atoms: C_1  and  N_2
REMARK    2  A    between atoms: N_11  and  C_12
REMARK    3  A    between atoms: C_12  and  C_13
REMARK    4  A    between atoms: C_17  and  O_18
REMARK    5  A    between atoms: O_18  and  C_19
REMARK    6  A    between atoms: C_19  and  C_20
REMARK                            x       y       z     vdW  Elec       q    Type
REMARK                         _______ _______ _______ _____ _____    ______ ____
ROOT
ATOM      1  C   UNL     1      21.913   0.894  52.437  0.00  0.00    +0.000 A 
ATOM      2  C   UNL     1      20.947   0.421  53.334  0.00  0.00    +0.000 A 
ATOM      3  C   UNL     1      21.308  -0.431  54.376  0.00  0.00    +0.000 A 
ATOM      4  C   UNL     1      22.640  -0.821  54.539  0.00  0.00    +0.000 A 
ATOM      5  C   UNL     1      23.616  -0.365  53.653  0.00  0.00    +0.000 A 
ATOM      6  C   UNL     1      23.244   0.470  52.593  0.00  0.00    +0.000 A 
ENDROOT
BRANCH   1   7
ATOM      7  C   UNL     1      21.527   1.856  51.341  0.00  0.00    +0.000 C 
BRANCH   7  18
ATOM      8  C   UNL     1      25.636   7.720  50.279  0.00  0.00    +0.000 C 
ATOM      9  N   UNL     1      24.905   6.859  51.182  0.00  0.00    +0.000 N 
ATOM     10  C   UNL     1      24.607   5.562  50.769  0.00  0.00    +0.000 A 
ATOM     11  N   UNL     1      25.415   4.896  49.902  0.00  0.00    +0.000 NA
ATOM     12  C   UNL     1      25.111   3.622  49.574  0.00  0.00    +0.000 A 
ATOM     13  N   UNL     1      24.075   2.870  49.998  0.00  0.00    +0.000 NA
ATOM     14  C   UNL     1      23.300   3.567  50.846  0.00  0.00    +0.000 A 
ATOM     15  C   UNL     1      23.479   4.877  51.262  0.00  0.00    +0.000 A 
ATOM     16  N   UNL     1      22.453   5.268  52.103  0.00  0.00    +0.000 NA
ATOM     17  C   UNL     1      21.678   4.208  52.203  0.00  0.00    +0.000 A 
ATOM     18  N   UNL     1      22.167   3.147  51.486  0.00  0.00    +0.000 N 
ATOM     19  H   UNL     1      24.626   7.182  52.068  0.00  0.00    +0.000 HD
ENDBRANCH   7  18
ENDBRANCH   1   7
BRANCH   5  20
ATOM     20  O   UNL     1      24.946  -0.697  53.704  0.00  0.00    +0.000 OA
BRANCH  20  21
ATOM     21  C   UNL     1      25.786  -0.023  52.761  0.00  0.00    +0.000 C 
BRANCH  21  22
ATOM     22  C   UNL     1      27.246  -0.359  52.983  0.00  0.00    +0.000 A 
ATOM     23  C   UNL     1      28.136   0.641  53.404  0.00  0.00    +0.000 A 
ATOM     24  C   UNL     1      29.461   0.330  53.718  0.00  0.00    +0.000 A 
ATOM     25  C   UNL     1      29.911  -0.985  53.623  0.00  0.00    +0.000 A 
ATOM     26  C   UNL     1      29.038  -1.987  53.206  0.00  0.00    +0.000 A 
ATOM     27  C   UNL     1      27.712  -1.678  52.892  0.00  0.00    +0.000 A 
ENDBRANCH  21  22
ENDBRANCH  20  21
ENDBRANCH   5  20
TORSDOF 5
ENDMDL
MODEL 2
REMARK VINA RESULT:    -8.643      3.044      6.332
REMARK INTER + INTRA:         -12.007
REMARK INTER:                 -10.985
REMARK INTRA:                  -1.022
REMARK UNBOUND:                -0.838
REMARK  Name = 
REMARK  6 active torsions:
REMARK  status: ('A' for Active; 'I' for Inactive)
REMARK    1  A    between atoms: C_1  and  N_2
REMARK    2  A    between atoms: N_11  and  C_12
REMARK    3  A    between atoms: C_12  and  C_13
REMARK    4  A    between atoms: C_17  and  O_18
REMARK    5  A    between atoms: O_18  and  C_19
REMARK    6  A    between atoms: C_19  and  C_20
REMARK                            x       y       z     vdW  Elec       q    Type
REMARK                         _______ _______ _______ _____ _____    ______ ____
ROOT
ATOM      1  C   UNL     1      22.551   1.703  51.376  0.00  0.00    +0.000 A 
ATOM      2  C   UNL     1      21.662   0.785  50.803  0.00  0.00    +0.000 A 
ATOM      3  C   UNL     1      21.346   0.860  49.447  0.00  0.00    +0.000 A 
ATOM      4  C   UNL     1      21.914   1.852  48.644  0.00  0.00    +0.000 A 
ATOM      5  C   UNL     1      22.797   2.779  49.197  0.00  0.00    +0.000 A 
ATOM      6  C   UNL     1      23.092   2.716  50.563  0.00  0.00    +0.000 A 
ENDROOT
BRANCH   1   7
ATOM      7  C   UNL     1      22.930   1.588  52.831  0.00  0.00    +0.000 C 
BRANCH   7  18
ATOM      8  C   UNL     1      29.618  -0.919  54.006  0.00  0.00    +0.000 C 
ATOM      9  N   UNL     1      28.285  -1.126  53.488  0.00  0.00    +0.000 N 
ATOM     10  C   UNL     1      27.497  -0.010  53.215  0.00  0.00    +0.000 A 
ATOM     11  N   UNL     1      28.055   1.174  52.849  0.00  0.00    +0.000 NA
ATOM     12  C   UNL     1      27.245   2.211  52.544  0.00  0.00    +0.000 A 
ATOM     13  N   UNL     1      25.897   2.253  52.548  0.00  0.00    +0.000 NA
ATOM     14  C   UNL     1      25.387   1.067  52.920  0.00  0.00    +0.000 A 
ATOM     15  C   UNL     1      26.090  -0.075  53.273  0.00  0.00    +0.000 A 
ATOM     16  N   UNL     1      25.225  -1.088  53.643  0.00  0.00    +0.000 NA
ATOM     17  C   UNL     1      24.022  -0.569  53.503  0.00  0.00    +0.000 A 
ATOM     18  N   UNL     1      24.070   0.719  53.039  0.00  0.00    +0.000 N 
ATOM     19  H   UNL     1      27.943  -2.035  53.330  0.00  0.00    +0.000 HD
ENDBRANCH   7  18
ENDBRANCH   1   7
BRANCH   5  20
ATOM     20  O   UNL     1      23.398   3.805  48.511  0.00  0.00    +0.000 OA
BRANCH  20  21
ATOM     21  C   UNL     1      23.824   4.913  49.310  0.00  0.00    +0.000 C 
BRANCH  21  22
ATOM     22  C   UNL     1      25.278   5.251  49.052  0.00  0.00    +0.000 A 
ATOM     23  C   UNL     1      26.257   4.251  49.160  0.00  0.00    +0.000 A 
ATOM     24  C   UNL     1      27.586   4.515  48.823  0.00  0.00    +0.000 A 
ATOM     25  C   UNL     1      27.952   5.779  48.367  0.00  0.00    +0.000 A 
ATOM     26  C   UNL     1      26.992   6.781  48.255  0.00  0.00    +0.000 A 
ATOM     27  C   UNL     1      25.661   6.518  48.591  0.00  0.00    +0.000 A 
ENDBRANCH  21  22
ENDBRANCH  20  21
ENDBRANCH   5  20
TORSDOF 5
ENDMDL
MODEL 3
REMARK VINA RESULT:    -8.114      2.885      4.654
REMARK INTER + INTRA:         -11.324
REMARK INTER:                 -10.465
REMARK INTRA:                  -0.859
REMARK UNBOUND:                -0.838
REMARK  Name = 
REMARK  6 active torsions:
REMARK  status: ('A' for Active; 'I' for Inactive)
REMARK    1  A    between atoms: C_1  and  N_2
REMARK    2  A    between atoms: N_11  and  C_12
REMARK    3  A    between atoms: C_12  and  C_13
REMARK    4  A    between atoms: C_17  and  O_18
REMARK    5  A    between atoms: O_18  and  C_19
REMARK    6  A    between atoms: C_19  and  C_20
REMARK                            x       y       z     vdW  Elec       q    Type
REMARK                         _______ _______ _______ _____ _____    ______ ____
ROOT
ATOM      1  C   UNL     1      22.281   0.311  51.932  0.00  0.00    +0.000 A 
ATOM      2  C   UNL     1      21.686  -0.656  52.753  0.00  0.00    +0.000 A 
ATOM      3  C   UNL     1      22.331  -1.095  53.908  0.00  0.00    +0.000 A 
ATOM      4  C   UNL     1      23.579  -0.574  54.261  0.00  0.00    +0.000 A 
ATOM      5  C   UNL     1      24.190   0.385  53.454  0.00  0.00    +0.000 A 
ATOM      6  C   UNL     1      23.550   0.804  52.282  0.00  0.00    +0.000 A 
ENDROOT
BRANCH   1   7
ATOM      7  C   UNL     1      21.557   0.821  50.711  0.00  0.00    +0.000 C 
BRANCH   7  18
ATOM      8  C   UNL     1      15.459   4.125  52.783  0.00  0.00    +0.000 C 
ATOM      9  N   UNL     1      16.693   4.148  52.031  0.00  0.00    +0.000 N 
ATOM     10  C   UNL     1      17.309   2.936  51.725  0.00  0.00    +0.000 A 
ATOM     11  N   UNL     1      16.581   1.799  51.559  0.00  0.00    +0.000 NA
ATOM     12  C   UNL     1      17.219   0.661  51.211  0.00  0.00    +0.000 A 
ATOM     13  N   UNL     1      18.536   0.471  50.990  0.00  0.00    +0.000 NA
ATOM     14  C   UNL     1      19.217   1.615  51.170  0.00  0.00    +0.000 A 
ATOM     15  C   UNL     1      18.703   2.849  51.538  0.00  0.00    +0.000 A 
ATOM     16  N   UNL     1      19.714   3.781  51.670  0.00  0.00    +0.000 NA
ATOM     17  C   UNL     1      20.817   3.125  51.373  0.00  0.00    +0.000 A 
ATOM     18  N   UNL     1      20.562   1.822  51.035  0.00  0.00    +0.000 N 
ATOM     19  H   UNL     1      17.089   5.001  51.741  0.00  0.00    +0.000 HD
ENDBRANCH   7  18
ENDBRANCH   1   7
BRANCH   5  20
ATOM     20  O   UNL     1      25.418   0.950  53.690  0.00  0.00    +0.000 OA
BRANCH  20  21
ATOM     21  C   UNL     1      26.372   0.813  52.632  0.00  0.00    +0.000 C 
BRANCH  21  22
ATOM     22  C   UNL     1      27.416  -0.234  52.962  0.00  0.00    +0.000 A 
ATOM     23  C   UNL     1      27.160  -1.586  52.686  0.00  0.00    +0.000 A 
ATOM     24  C   UNL     1      28.148  -2.553  52.882  0.00  0.00    +0.000 A 
ATOM     25  C   UNL     1      29.406  -2.181  53.351  0.00  0.00    +0.000 A 
ATOM     26  C   UNL     1      29.673  -0.842  53.630  0.00  0.00    +0.000 A 
ATOM     27  C   UNL     1      28.686   0.127  53.432  0.00  0.00    +0.000 A 
ENDBRANCH  21  22
ENDBRANCH  20  21
ENDBRANCH   5  20
TORSDOF 5
ENDMDL
MODEL 4
REMARK VINA RESULT:    -7.894      1.738      2.075
REMARK INTER + INTRA:         -11.040
REMARK INTER:                 -10.102
REMARK INTRA:                  -0.938
REMARK UNBOUND:                -0.838
REMARK  Name = 
REMARK  6 active torsions:
REMARK  status: ('A' for Active; 'I' for Inactive)
REMARK    1  A    between atoms: C_1  and  N_2
REMARK    2  A    between atoms: N_11  and  C_12
REMARK    3  A    between atoms: C_12  and  C_13
REMARK    4  A    between atoms: C_17  and  O_18
REMARK    5  A    between atoms: O_18  and  C_19
REMARK    6  A    between atoms: C_19  and  C_20
REMARK                            x       y       z     vdW  Elec       q    Type
REMARK                         _______ _______ _______ _____ _____    ______ ____
ROOT
ATOM      1  C   UNL     1      22.414   1.679  50.355  0.00  0.00    +0.000 A 
ATOM      2  C   UNL     1      21.228   0.945  50.484  0.00  0.00    +0.000 A 
ATOM      3  C   UNL     1      21.036   0.099  51.576  0.00  0.00    +0.000 A 
ATOM      4  C   UNL     1      22.026  -0.024  52.555  0.00  0.00    +0.000 A 
ATOM      5  C   UNL     1      23.215   0.695  52.442  0.00  0.00    +0.000 A 
ATOM      6  C   UNL     1      23.414   1.523  51.332  0.00  0.00    +0.000 A 
ENDROOT
BRANCH   1   7
ATOM      7  C   UNL     1      22.596   2.632  49.200  0.00  0.00    +0.000 C 
BRANCH   7  18
ATOM      8  C   UNL     1      25.786   9.065  50.111  0.00  0.00    +0.000 C 
ATOM      9  N   UNL     1      24.901   8.034  50.604  0.00  0.00    +0.000 N 
ATOM     10  C   UNL     1      25.007   6.753  50.067  0.00  0.00    +0.000 A 
ATOM     11  N   UNL     1      26.193   6.284  49.594  0.00  0.00    +0.000 NA
ATOM     12  C   UNL     1      26.257   5.016  49.133  0.00  0.00    +0.000 A 
ATOM     13  N   UNL     1      25.272   4.097  49.066  0.00  0.00    +0.000 NA
ATOM     14  C   UNL     1      24.119   4.602  49.536  0.00  0.00    +0.000 A 
ATOM     15  C   UNL     1      23.901   5.881  50.027  0.00  0.00    +0.000 A 
ATOM     16  N   UNL     1      22.575   6.051  50.377  0.00  0.00    +0.000 NA
ATOM     17  C   UNL     1      22.007   4.892  50.115  0.00  0.00    +0.000 A 
ATOM     18  N   UNL     1      22.907   3.977  49.635  0.00  0.00    +0.000 N 
ATOM     19  H   UNL     1      24.238   8.233  51.303  0.00  0.00    +0.000 HD
ENDBRANCH   7  18
ENDBRANCH   1   7
BRANCH   5  20
ATOM     20  O   UNL     1      24.260   0.638  53.329  0.00  0.00    +0.000 OA
BRANCH  20  21
ATOM     21  C   UNL     1      25.070   1.816  53.404  0.00  0.00    +0.000 C 
BRANCH  21  22
ATOM     22  C   UNL     1      26.513   1.474  53.711  0.00  0.00    +0.000 A 
ATOM     23  C   UNL     1      27.537   2.351  53.318  0.00  0.00    +0.000 A 
ATOM     24  C   UNL     1      28.863   2.109  53.685  0.00  0.00    +0.000 A 
ATOM     25  C   UNL     1      29.181   0.993  54.455  0.00  0.00    +0.000 A 
ATOM     26  C   UNL     1      28.175   0.114  54.852  0.00  0.00    +0.000 A 
ATOM     27  C   UNL     1      26.848   0.356  54.486  0.00  0.00    +0.000 A 
ENDBRANCH  21  22
ENDBRANCH  20  21
ENDBRANCH   5  20
TORSDOF 5
ENDMDL
MODEL 5
REMARK VINA RESULT:    -7.817      1.603      4.783
REMARK INTER + INTRA:         -10.939
REMARK INTER:                 -10.462
REMARK INTRA:                  -0.477
REMARK UNBOUND:                -0.838
REMARK  Name = 
REMARK  6 active torsions:
REMARK  status: ('A' for Active; 'I' for Inactive)
REMARK    1  A    between atoms: C_1  and  N_2
REMARK    2  A    between atoms: N_11  and  C_12
REMARK    3  A    between atoms: C_12  and  C_13
REMARK    4  A    between atoms: C_17  and  O_18
REMARK    5  A    between atoms: O_18  and  C_19
REMARK    6  A    between atoms: C_19  and  C_20
REMARK                            x       y       z     vdW  Elec       q    Type
REMARK                         _______ _______ _______ _____ _____    ______ ____
ROOT
ATOM      1  C   UNL     1      26.723   1.897  51.970  0.00  0.00    +0.000 A 
ATOM      2  C   UNL     1      27.871   2.206  52.709  0.00  0.00    +0.000 A 
ATOM      3  C   UNL     1      28.259   1.403  53.780  0.00  0.00    +0.000 A 
ATOM      4  C   UNL     1      27.506   0.279  54.128  0.00  0.00    +0.000 A 
ATOM      5  C   UNL     1      26.356  -0.043  53.408  0.00  0.00    +0.000 A 
ATOM      6  C   UNL     1      25.956   0.780  52.349  0.00  0.00    +0.000 A 
ENDROOT
BRANCH   1   7
ATOM      7  C   UNL     1      26.335   2.739  50.780  0.00  0.00    +0.000 C 
BRANCH   7  18
ATOM      8  C   UNL     1      21.359   7.976  50.322  0.00  0.00    +0.000 C 
ATOM      9  N   UNL     1      22.238   7.162  51.130  0.00  0.00    +0.000 N 
ATOM     10  C   UNL     1      23.313   6.526  50.512  0.00  0.00    +0.000 A 
ATOM     11  N   UNL     1      23.909   7.061  49.413  0.00  0.00    +0.000 NA
ATOM     12  C   UNL     1      24.980   6.434  48.882  0.00  0.00    +0.000 A 
ATOM     13  N   UNL     1      25.581   5.299  49.297  0.00  0.00    +0.000 NA
ATOM     14  C   UNL     1      24.958   4.803  50.379  0.00  0.00    +0.000 A 
ATOM     15  C   UNL     1      23.847   5.326  51.022  0.00  0.00    +0.000 A 
ATOM     16  N   UNL     1      23.461   4.514  52.072  0.00  0.00    +0.000 NA
ATOM     17  C   UNL     1      24.333   3.527  52.071  0.00  0.00    +0.000 A 
ATOM     18  N   UNL     1      25.274   3.675  51.085  0.00  0.00    +0.000 N 
ATOM     19  H   UNL     1      22.081   7.060  52.096  0.00  0.00    +0.000 HD
ENDBRANCH   7  18
ENDBRANCH   1   7
BRANCH   5  20
ATOM     20  O   UNL     1      25.531  -1.107  53.671  0.00  0.00    +0.000 OA
BRANCH  20  21
ATOM     21  C   UNL     1      24.612  -0.922  54.753  0.00  0.00    +0.000 C 
BRANCH  21  22
ATOM     22  C   UNL     1      23.189  -0.791  54.251  0.00  0.00    +0.000 A 
ATOM     23  C   UNL     1      22.220  -1.725  54.650  0.00  0.00    +0.000 A 
ATOM     24  C   UNL     1      20.881  -1.562  54.287  0.00  0.00    +0.000 A 
ATOM     25  C   UNL     1      20.493  -0.461  53.528  0.00  0.00    +0.000 A 
ATOM     26  C   UNL     1      21.444   0.474  53.124  0.00  0.00    +0.000 A 
ATOM     27  C   UNL     1      22.784   0.312  53.488  0.00  0.00    +0.000 A 
ENDBRANCH  21  22
ENDBRANCH  20  21
ENDBRANCH   5  20
TORSDOF 5
ENDMDL
MODEL 6
REMARK VINA RESULT:    -7.807      2.707      4.370
REMARK INTER + INTRA:         -10.927
REMARK INTER:                 -10.070
REMARK INTRA:                  -0.857
REMARK UNBOUND:                -0.838
REMARK  Name = 
REMARK  6 active torsions:
REMARK  status: ('A' for Active; 'I' for Inactive)
REMARK    1  A    between atoms: C_1  and  N_2
REMARK    2  A    between atoms: N_11  and  C_12
REMARK    3  A    between atoms: C_12  and  C_13
REMARK    4  A    between atoms: C_17  and  O_18
REMARK    5  A    between atoms: O_18  and  C_19
REMARK    6  A    between atoms: C_19  and  C_20
REMARK                            x       y       z     vdW  Elec       q    Type
REMARK                         _______ _______ _______ _____ _____    ______ ____
ROOT
ATOM      1  C   UNL     1      24.031   5.128  50.351  0.00  0.00    +0.000 A 
ATOM      2  C   UNL     1      23.206   5.379  51.455  0.00  0.00    +0.000 A 
ATOM      3  C   UNL     1      23.121   4.456  52.497  0.00  0.00    +0.000 A 
ATOM      4  C   UNL     1      23.859   3.271  52.451  0.00  0.00    +0.000 A 
ATOM      5  C   UNL     1      24.682   3.000  51.358  0.00  0.00    +0.000 A 
ATOM      6  C   UNL     1      24.745   3.918  50.303  0.00  0.00    +0.000 A 
ENDROOT
BRANCH   1   7
ATOM      7  C   UNL     1      24.160   6.152  49.251  0.00  0.00    +0.000 C 
BRANCH   7  18
ATOM      8  C   UNL     1      30.105  10.278  49.077  0.00  0.00    +0.000 C 
ATOM      9  N   UNL     1      28.993   9.730  49.818  0.00  0.00    +0.000 N 
ATOM     10  C   UNL     1      28.350   8.599  49.317  0.00  0.00    +0.000 A 
ATOM     11  N   UNL     1      29.020   7.684  48.567  0.00  0.00    +0.000 NA
ATOM     12  C   UNL     1      28.367   6.579  48.149  0.00  0.00    +0.000 A 
ATOM     13  N   UNL     1      27.084   6.226  48.373  0.00  0.00    +0.000 NA
ATOM     14  C   UNL     1      26.459   7.159  49.110  0.00  0.00    +0.000 A 
ATOM     15  C   UNL     1      26.994   8.342  49.597  0.00  0.00    +0.000 A 
ATOM     16  N   UNL     1      26.034   9.071  50.275  0.00  0.00    +0.000 NA
ATOM     17  C   UNL     1      24.945   8.334  50.210  0.00  0.00    +0.000 A 
ATOM     18  N   UNL     1      25.161   7.156  49.543  0.00  0.00    +0.000 N 
ATOM     19  H   UNL     1      28.695  10.145  50.660  0.00  0.00    +0.000 HD
ENDBRANCH   7  18
ENDBRANCH   1   7
BRANCH   5  20
ATOM     20  O   UNL     1      25.434   1.864  51.197  0.00  0.00    +0.000 OA
BRANCH  20  21
ATOM     21  C   UNL     1      25.488   0.995  52.333  0.00  0.00    +0.000 C 
BRANCH  21  22
ATOM     22  C   UNL     1      26.914   0.786  52.799  0.00  0.00    +0.000 A 
ATOM     23  C   UNL     1      27.663   1.878  53.264  0.00  0.00    +0.000 A 
ATOM     24  C   UNL     1      28.940   1.691  53.799  0.00  0.00    +0.000 A 
ATOM     25  C   UNL     1      29.481   0.410  53.881  0.00  0.00    +0.000 A 
ATOM     26  C   UNL     1      28.749  -0.683  53.422  0.00  0.00    +0.000 A 
ATOM     27  C   UNL     1      27.471  -0.497  52.888  0.00  0.00    +0.000 A 
ENDBRANCH  21  22
ENDBRANCH  20  21
ENDBRANCH   5  20
TORSDOF 5
ENDMDL
MODEL 7
REMARK VINA RESULT:    -7.799      3.215      5.791
REMARK INTER + INTRA:         -10.916
REMARK INTER:                 -10.108
REMARK INTRA:                  -0.808
REMARK UNBOUND:                -0.838
REMARK  Name = 
REMARK  6 active torsions:
REMARK  status: ('A' for Active; 'I' for Inactive)
REMARK    1  A    between atoms: C_1  and  N_2
REMARK    2  A    between atoms: N_11  and  C_12
REMARK    3  A    between atoms: C_12  and  C_13
REMARK    4  A    between atoms: C_17  and  O_18
REMARK    5  A    between atoms: O_18  and  C_19
REMARK    6  A    between atoms: C_19  and  C_20
REMARK                            x       y       z     vdW  Elec       q    Type
REMARK                         _______ _______ _______ _____ _____    ______ ____
ROOT
ATOM      1  C   UNL     1      22.755   1.507  51.970  0.00  0.00    +0.000 A 
ATOM      2  C   UNL     1      22.186   2.782  52.069  0.00  0.00    +0.000 A 
ATOM      3  C   UNL     1      22.901   3.832  52.644  0.00  0.00    +0.000 A 
ATOM      4  C   UNL     1      24.195   3.623  53.128  0.00  0.00    +0.000 A 
ATOM      5  C   UNL     1      24.777   2.358  53.043  0.00  0.00    +0.000 A 
ATOM      6  C   UNL     1      24.047   1.302  52.488  0.00  0.00    +0.000 A 
ENDROOT
BRANCH   1   7
ATOM      7  C   UNL     1      21.999   0.386  51.301  0.00  0.00    +0.000 C 
BRANCH   7  18
ATOM      8  C   UNL     1      15.044  -1.096  52.655  0.00  0.00    +0.000 C 
ATOM      9  N   UNL     1      16.317  -0.579  53.105  0.00  0.00    +0.000 N 
ATOM     10  C   UNL     1      17.256  -0.200  52.148  0.00  0.00    +0.000 A 
ATOM     11  N   UNL     1      16.873   0.259  50.927  0.00  0.00    +0.000 NA
ATOM     12  C   UNL     1      17.821   0.664  50.054  0.00  0.00    +0.000 A 
ATOM     13  N   UNL     1      19.159   0.683  50.218  0.00  0.00    +0.000 NA
ATOM     14  C   UNL     1      19.495   0.217  51.432  0.00  0.00    +0.000 A 
ATOM     15  C   UNL     1      18.638  -0.242  52.421  0.00  0.00    +0.000 A 
ATOM     16  N   UNL     1      19.351  -0.686  53.519  0.00  0.00    +0.000 NA
ATOM     17  C   UNL     1      20.614  -0.484  53.204  0.00  0.00    +0.000 A 
ATOM     18  N   UNL     1      20.748   0.088  51.965  0.00  0.00    +0.000 N 
ATOM     19  H   UNL     1      16.514  -0.494  54.065  0.00  0.00    +0.000 HD
ENDBRANCH   7  18
ENDBRANCH   1   7
BRANCH   5  20
ATOM     20  O   UNL     1      26.029   2.033  53.502  0.00  0.00    +0.000 OA
BRANCH  20  21
ATOM     21  C   UNL     1      26.083   0.933  54.415  0.00  0.00    +0.000 C 
BRANCH  21  22
ATOM     22  C   UNL     1      27.236   0.005  54.093  0.00  0.00    +0.000 A 
ATOM     23  C   UNL     1      27.022  -1.117  53.276  0.00  0.00    +0.000 A 
ATOM     24  C   UNL     1      28.091  -1.924  52.879  0.00  0.00    +0.000 A 
ATOM     25  C   UNL     1      29.386  -1.616  53.286  0.00  0.00    +0.000 A 
ATOM     26  C   UNL     1      29.614  -0.507  54.097  0.00  0.00    +0.000 A 
ATOM     27  C   UNL     1      28.546   0.302  54.494  0.00  0.00    +0.000 A 
ENDBRANCH  21  22
ENDBRANCH  20  21
ENDBRANCH   5  20
TORSDOF 5
ENDMDL
MODEL 8
REMARK VINA RESULT:    -7.791      2.334      4.108
REMARK INTER + INTRA:         -10.906
REMARK INTER:                 -10.037
REMARK INTRA:                  -0.869
REMARK UNBOUND:                -0.838
REMARK  Name = 
REMARK  6 active torsions:
REMARK  status: ('A' for Active; 'I' for Inactive)
REMARK    1  A    between atoms: C_1  and  N_2
REMARK    2  A    between atoms: N_11  and  C_12
REMARK    3  A    between atoms: C_12  and  C_13
REMARK    4  A    between atoms: C_17  and  O_18
REMARK    5  A    between atoms: O_18  and  C_19
REMARK    6  A    between atoms: C_19  and  C_20
REMARK                            x       y       z     vdW  Elec       q    Type
REMARK                         _______ _______ _______ _____ _____    ______ ____
ROOT
ATOM      1  C   UNL     1      24.287   3.875  50.537  0.00  0.00    +0.000 A 
ATOM      2  C   UNL     1      23.845   4.629  51.631  0.00  0.00    +0.000 A 
ATOM      3  C   UNL     1      23.761   4.053  52.898  0.00  0.00    +0.000 A 
ATOM      4  C   UNL     1      24.119   2.716  53.089  0.00  0.00    +0.000 A 
ATOM      5  C   UNL     1      24.556   1.947  52.011  0.00  0.00    +0.000 A 
ATOM      6  C   UNL     1      24.615   2.523  50.737  0.00  0.00    +0.000 A 
ENDROOT
BRANCH   1   7
ATOM      7  C   UNL     1      24.426   4.516  49.178  0.00  0.00    +0.000 C 
BRANCH   7  18
ATOM      8  C   UNL     1      29.632   9.539  49.414  0.00  0.00    +0.000 C 
ATOM      9  N   UNL     1      29.063   8.365  48.792  0.00  0.00    +0.000 N 
ATOM     10  C   UNL     1      27.719   8.077  49.019  0.00  0.00    +0.000 A 
ATOM     11  N   UNL     1      26.818   9.066  49.261  0.00  0.00    +0.000 NA
ATOM     12  C   UNL     1      25.518   8.740  49.422  0.00  0.00    +0.000 A 
ATOM     13  N   UNL     1      24.947   7.518  49.377  0.00  0.00    +0.000 NA
ATOM     14  C   UNL     1      25.871   6.572  49.143  0.00  0.00    +0.000 A 
ATOM     15  C   UNL     1      27.234   6.755  48.970  0.00  0.00    +0.000 A 
ATOM     16  N   UNL     1      27.873   5.541  48.795  0.00  0.00    +0.000 NA
ATOM     17  C   UNL     1      26.909   4.644  48.846  0.00  0.00    +0.000 A 
ATOM     18  N   UNL     1      25.680   5.223  49.024  0.00  0.00    +0.000 N 
ATOM     19  H   UNL     1      29.613   7.783  48.220  0.00  0.00    +0.000 HD
ENDBRANCH   7  18
ENDBRANCH   1   7
BRANCH   5  20
ATOM     20  O   UNL     1      24.913   0.624  52.078  0.00  0.00    +0.000 OA
BRANCH  20  21
ATOM     21  C   UNL     1      25.078   0.096  53.398  0.00  0.00    +0.000 C 
BRANCH  21  22
ATOM     22  C   UNL     1      26.529  -0.231  53.684  0.00  0.00    +0.000 A 
ATOM     23  C   UNL     1      27.206  -1.160  52.878  0.00  0.00    +0.000 A 
ATOM     24  C   UNL     1      28.572  -1.396  53.055  0.00  0.00    +0.000 A 
ATOM     25  C   UNL     1      29.277  -0.703  54.036  0.00  0.00    +0.000 A 
ATOM     26  C   UNL     1      28.618   0.221  54.843  0.00  0.00    +0.000 A 
ATOM     27  C   UNL     1      27.252   0.459  54.665  0.00  0.00    +0.000 A 
ENDBRANCH  21  22
ENDBRANCH  20  21
ENDBRANCH   5  20
TORSDOF 5
ENDMDL
MODEL 9
REMARK VINA RESULT:    -7.763      2.441      5.708
REMARK INTER + INTRA:         -10.870
REMARK INTER:                 -10.016
REMARK INTRA:                  -0.854
REMARK UNBOUND:                -0.838
REMARK  Name = 
REMARK  6 active torsions:
REMARK  status: ('A' for Active; 'I' for Inactive)
REMARK    1  A    between atoms: C_1  and  N_2
REMARK    2  A    between atoms: N_11  and  C_12
REMARK    3  A    between atoms: C_12  and  C_13
REMARK    4  A    between atoms: C_17  and  O_18
REMARK    5  A    between atoms: O_18  and  C_19
REMARK    6  A    between atoms: C_19  and  C_20
REMARK                            x       y       z     vdW  Elec       q    Type
REMARK                         _______ _______ _______ _____ _____    ______ ____
ROOT
ATOM      1  C   UNL     1      24.439   0.298  53.170  0.00  0.00    +0.000 A 
ATOM      2  C   UNL     1      25.307  -0.241  54.127  0.00  0.00    +0.000 A 
ATOM      3  C   UNL     1      24.822  -1.091  55.121  0.00  0.00    +0.000 A 
ATOM      4  C   UNL     1      23.464  -1.415  55.171  0.00  0.00    +0.000 A 
ATOM      5  C   UNL     1      22.583  -0.885  54.229  0.00  0.00    +0.000 A 
ATOM      6  C   UNL     1      23.069  -0.012  53.249  0.00  0.00    +0.000 A 
ENDROOT
BRANCH   1   7
ATOM      7  C   UNL     1      24.975   1.175  52.066  0.00  0.00    +0.000 C 
BRANCH   7  18
ATOM      8  C   UNL     1      21.566   7.406  50.668  0.00  0.00    +0.000 C 
ATOM      9  N   UNL     1      22.638   6.695  51.326  0.00  0.00    +0.000 N 
ATOM     10  C   UNL     1      22.993   5.435  50.849  0.00  0.00    +0.000 A 
ATOM     11  N   UNL     1      22.836   5.108  49.538  0.00  0.00    +0.000 NA
ATOM     12  C   UNL     1      23.244   3.893  49.115  0.00  0.00    +0.000 A 
ATOM     13  N   UNL     1      23.813   2.901  49.831  0.00  0.00    +0.000 NA
ATOM     14  C   UNL     1      23.943   3.262  51.118  0.00  0.00    +0.000 A 
ATOM     15  C   UNL     1      23.561   4.463  51.697  0.00  0.00    +0.000 A 
ATOM     16  N   UNL     1      23.812   4.453  53.056  0.00  0.00    +0.000 NA
ATOM     17  C   UNL     1      24.349   3.274  53.290  0.00  0.00    +0.000 A 
ATOM     18  N   UNL     1      24.476   2.532  52.145  0.00  0.00    +0.000 N 
ATOM     19  H   UNL     1      23.108   7.092  52.094  0.00  0.00    +0.000 HD
ENDBRANCH   7  18
ENDBRANCH   1   7
BRANCH   5  20
ATOM     20  O   UNL     1      21.231  -1.117  54.193  0.00  0.00    +0.000 OA
BRANCH  20  21
ATOM     21  C   UNL     1      20.415   0.032  53.944  0.00  0.00    +0.000 C 
BRANCH  21  22
ATOM     22  C   UNL     1      19.327  -0.273  52.936  0.00  0.00    +0.000 A 
ATOM     23  C   UNL     1      18.258  -1.110  53.294  0.00  0.00    +0.000 A 
ATOM     24  C   UNL     1      17.190  -1.317  52.418  0.00  0.00    +0.000 A 
ATOM     25  C   UNL     1      17.174  -0.686  51.176  0.00  0.00    +0.000 A 
ATOM     26  C   UNL     1      18.228   0.147  50.807  0.00  0.00    +0.000 A 
ATOM     27  C   UNL     1      19.296   0.356  51.684  0.00  0.00    +0.000 A 
ENDBRANCH  21  22
ENDBRANCH  20  21
ENDBRANCH   5  20
TORSDOF 5
ENDMDL
