
     RDKit          3D

 28 31  0  0  0  0  0  0  0  0999 V2000
   -1.0436   -3.1598    1.6502 N   0  0  0  0  0  0  0  0  0  0  0  0
   -1.2623   -1.8449    1.1379 C   0  0  0  0  0  0  0  0  0  0  0  0
   -2.5116   -1.2981    1.1555 N   0  0  0  0  0  0  0  0  0  0  0  0
   -2.7389   -0.0397    0.6688 C   0  0  0  0  0  0  0  0  0  0  0  0
   -4.0275    0.5042    0.6954 C   0  0  0  0  0  0  0  0  0  0  0  0
   -4.2552    1.7917    0.1964 C   0  0  0  0  0  0  0  0  0  0  0  0
   -3.1976    2.5439   -0.3321 C   0  0  0  0  0  0  0  0  0  0  0  0
   -3.4968    4.1565   -0.9542 Cl  0  0  0  0  0  0  0  0  0  0  0  0
   -1.9029    2.0121   -0.3650 C   0  0  0  0  0  0  0  0  0  0  0  0
   -1.6700    0.7229    0.1336 C   0  0  0  0  0  0  0  0  0  0  0  0
   -0.4108    0.1221    0.1369 C   0  0  0  0  0  0  0  0  0  0  0  0
    0.7448    0.6457   -0.3145 N   0  0  0  0  0  0  0  0  0  0  0  0
    1.6129   -0.3687   -0.0585 C   0  0  0  0  0  0  0  0  0  0  0  0
    3.0440   -0.3067   -0.3697 C   0  0  0  0  0  0  0  0  0  0  0  0
    3.7020    0.7601   -0.9516 C   0  0  0  0  0  0  0  0  0  0  0  0
    5.0218    0.3736   -1.0510 C   0  0  0  0  0  0  0  0  0  0  0  0
    5.0810   -0.9003   -0.5243 C   0  0  0  0  0  0  0  0  0  0  0  0
    6.6518   -1.9710   -0.3844 Br  0  0  0  0  0  0  0  0  0  0  0  0
    3.8898   -1.2811   -0.1262 O   0  0  0  0  0  0  0  0  0  0  0  0
    1.0266   -1.4468    0.5139 N   0  0  0  0  0  0  0  0  0  0  0  0
   -0.2429   -1.1099    0.6242 N   0  0  0  0  0  0  0  0  0  0  0  0
   -1.8402   -3.7098    2.0413 H   0  0  0  0  0  0  0  0  0  0  0  0
   -0.0917   -3.5883    1.6418 H   0  0  0  0  0  0  0  0  0  0  0  0
   -4.8530   -0.0673    1.1013 H   0  0  0  0  0  0  0  0  0  0  0  0
   -5.2555    2.2049    0.2209 H   0  0  0  0  0  0  0  0  0  0  0  0
   -1.0907    2.6000   -0.7753 H   0  0  0  0  0  0  0  0  0  0  0  0
    3.2754    1.7037   -1.2656 H   0  0  0  0  0  0  0  0  0  0  0  0
    5.8410    0.9509   -1.4581 H   0  0  0  0  0  0  0  0  0  0  0  0
  1  2  1  0
  2  3  2  0
  3  4  1  0
  4  5  2  0
  5  6  1  0
  6  7  2  0
  7  8  1  0
  7  9  1  0
  9 10  2  0
 10 11  1  0
 11 12  2  0
 12 13  1  0
 13 14  1  0
 14 15  2  0
 15 16  1  0
 16 17  2  0
 17 18  1  0
 17 19  1  0
 13 20  2  0
 20 21  1  0
 21  2  1  0
 10  4  1  0
 21 11  1  0
 19 14  1  0
  1 22  1  0
  1 23  1  0
  5 24  1  0
  6 25  1  0
  9 26  1  0
 15 27  1  0
 16 28  1  0
M  END
$$$$
