
     RDKit          3D

 54 57  0  0  0  0  0  0  0  0999 V2000
   -2.6843   -2.3921   -3.3941 C   0  0  0  0  0  0  0  0  0  0  0  0
   -1.9101   -2.9107   -2.6293 C   0  0  0  0  0  0  0  0  0  0  0  0
   -0.9652   -3.5390   -1.6993 C   0  0  0  0  0  0  0  0  0  0  0  0
   -0.8880   -2.7710   -0.4498 N   0  0  0  0  0  0  0  0  0  0  0  0
   -1.9221   -2.9569    0.5814 C   0  0  0  0  0  0  0  0  0  0  0  0
   -2.6591   -1.6660    0.8318 C   0  0  0  0  0  0  0  0  0  0  0  0
   -2.2767   -0.8271    1.8888 C   0  0  0  0  0  0  0  0  0  0  0  0
   -2.9281    0.3888    2.0951 C   0  0  0  0  0  0  0  0  0  0  0  0
   -3.9633    0.7858    1.2440 C   0  0  0  0  0  0  0  0  0  0  0  0
   -4.5868    1.9725    1.4571 N   0  0  0  0  0  0  0  0  0  0  0  0
   -5.5891    2.3940    0.6466 C   0  0  0  0  0  0  0  0  0  0  0  0
   -6.2826    3.6848    0.9288 C   0  0  0  0  0  0  0  0  0  0  0  0
   -5.9970    1.6143   -0.3874 N   0  0  0  0  0  0  0  0  0  0  0  0
   -5.4157    0.4162   -0.6572 C   0  0  0  0  0  0  0  0  0  0  0  0
   -5.8975   -0.3072   -1.7510 O   0  0  0  0  0  0  0  0  0  0  0  0
   -4.3617   -0.0429    0.1688 C   0  0  0  0  0  0  0  0  0  0  0  0
   -3.7001   -1.2724   -0.0245 C   0  0  0  0  0  0  0  0  0  0  0  0
    0.1882   -1.8284   -0.2500 C   0  0  0  0  0  0  0  0  0  0  0  0
    0.5302   -0.9150   -1.2602 C   0  0  0  0  0  0  0  0  0  0  0  0
    1.5660    0.0033   -1.0676 C   0  0  0  0  0  0  0  0  0  0  0  0
    2.2882    0.0221    0.1384 C   0  0  0  0  0  0  0  0  0  0  0  0
    3.3900    0.9892    0.3600 C   0  0  0  0  0  0  0  0  0  0  0  0
    3.6890    1.3243    1.5390 O   0  0  0  0  0  0  0  0  0  0  0  0
    4.1354    1.5338   -0.7429 N   0  0  0  0  0  0  0  0  0  0  0  0
    5.1921    2.5240   -0.5527 C   0  0  0  0  0  0  0  0  0  0  0  0
    6.4005    1.8769    0.0472 C   0  0  0  0  0  0  0  0  0  0  0  0
    6.9874    2.2148    1.2502 C   0  0  0  0  0  0  0  0  0  0  0  0
    8.0548    1.3553    1.3932 C   0  0  0  0  0  0  0  0  0  0  0  0
    8.0521    0.5493    0.2724 C   0  0  0  0  0  0  0  0  0  0  0  0
    7.0543    0.8849   -0.5118 O   0  0  0  0  0  0  0  0  0  0  0  0
    1.9379   -0.8854    1.1523 C   0  0  0  0  0  0  0  0  0  0  0  0
    0.9042   -1.8052    0.9578 C   0  0  0  0  0  0  0  0  0  0  0  0
   -3.3653   -1.9352   -4.0628 H   0  0  0  0  0  0  0  0  0  0  0  0
   -1.2962   -4.5783   -1.4902 H   0  0  0  0  0  0  0  0  0  0  0  0
    0.0338   -3.5996   -2.1820 H   0  0  0  0  0  0  0  0  0  0  0  0
   -1.4619   -3.3358    1.5180 H   0  0  0  0  0  0  0  0  0  0  0  0
   -2.6534   -3.7337    0.2665 H   0  0  0  0  0  0  0  0  0  0  0  0
   -1.4729   -1.1140    2.5553 H   0  0  0  0  0  0  0  0  0  0  0  0
   -2.6232    1.0254    2.9172 H   0  0  0  0  0  0  0  0  0  0  0  0
   -6.7561    4.0784    0.0042 H   0  0  0  0  0  0  0  0  0  0  0  0
   -5.5534    4.4353    1.3017 H   0  0  0  0  0  0  0  0  0  0  0  0
   -7.0658    3.5223    1.6984 H   0  0  0  0  0  0  0  0  0  0  0  0
   -5.5356   -1.2009   -2.0495 H   0  0  0  0  0  0  0  0  0  0  0  0
   -3.9762   -1.9408   -0.8230 H   0  0  0  0  0  0  0  0  0  0  0  0
   -0.0178   -0.8978   -2.1925 H   0  0  0  0  0  0  0  0  0  0  0  0
    1.7775    0.7127   -1.8554 H   0  0  0  0  0  0  0  0  0  0  0  0
    3.9804    1.1708   -1.7093 H   0  0  0  0  0  0  0  0  0  0  0  0
    5.4757    2.9560   -1.5367 H   0  0  0  0  0  0  0  0  0  0  0  0
    4.8233    3.3526    0.0912 H   0  0  0  0  0  0  0  0  0  0  0  0
    6.6790    2.9922    1.9371 H   0  0  0  0  0  0  0  0  0  0  0  0
    8.7555    1.3209    2.2174 H   0  0  0  0  0  0  0  0  0  0  0  0
    8.7580   -0.2418    0.0583 H   0  0  0  0  0  0  0  0  0  0  0  0
    2.4761   -0.8961    2.0926 H   0  0  0  0  0  0  0  0  0  0  0  0
    0.6758   -2.5075    1.7479 H   0  0  0  0  0  0  0  0  0  0  0  0
  1  2  3  0
  2  3  1  0
  3  4  1  0
  4  5  1  0
  5  6  1  0
  6  7  2  0
  7  8  1  0
  8  9  2  0
  9 10  1  0
 10 11  2  0
 11 12  1  0
 11 13  1  0
 13 14  2  0
 14 15  1  0
 14 16  1  0
 16 17  2  0
  4 18  1  0
 18 19  2  0
 19 20  1  0
 20 21  2  0
 21 22  1  0
 22 23  2  0
 22 24  1  0
 24 25  1  0
 25 26  1  0
 26 27  2  0
 27 28  1  0
 28 29  2  0
 29 30  1  0
 21 31  1  0
 31 32  2  0
 17  6  1  0
 32 18  1  0
 16  9  1  0
 30 26  1  0
  1 33  1  0
  3 34  1  0
  3 35  1  0
  5 36  1  0
  5 37  1  0
  7 38  1  0
  8 39  1  0
 12 40  1  0
 12 41  1  0
 12 42  1  0
 15 43  1  0
 17 44  1  0
 19 45  1  0
 20 46  1  0
 24 47  1  0
 25 48  1  0
 25 49  1  0
 27 50  1  0
 28 51  1  0
 29 52  1  0
 31 53  1  0
 32 54  1  0
M  END
$$$$
