
     RDKit          3D

 53 57  0  0  0  0  0  0  0  0999 V2000
    1.6179    0.1845   -2.8788 C   0  0  0  0  0  0  0  0  0  0  0  0
    0.8436   -0.5757   -1.7962 C   0  0  0  0  0  0  0  0  0  0  0  0
   -0.5970   -0.8429   -2.2677 C   0  0  0  0  0  0  0  0  0  0  0  0
   -1.4202   -1.4370   -1.1575 C   0  0  0  0  0  0  0  0  0  0  0  0
   -1.8137   -2.7928   -1.2111 C   0  0  0  0  0  0  0  0  0  0  0  0
   -2.5795   -3.2927   -0.1639 C   0  0  0  0  0  0  0  0  0  0  0  0
   -2.9454   -2.5238    0.8906 C   0  0  0  0  0  0  0  0  0  0  0  0
   -2.5753   -1.1876    0.9931 C   0  0  0  0  0  0  0  0  0  0  0  0
   -1.7958   -0.6305   -0.0460 C   0  0  0  0  0  0  0  0  0  0  0  0
   -1.3530    0.7855    0.0375 C   0  0  0  0  0  0  0  0  0  0  0  0
   -2.3113    1.8595    0.4076 C   0  0  0  0  0  0  0  0  0  0  0  0
   -1.8550    3.0386    1.0260 C   0  0  0  0  0  0  0  0  0  0  0  0
   -2.7525    4.0543    1.3683 C   0  0  0  0  0  0  0  0  0  0  0  0
   -4.1184    3.9128    1.0927 C   0  0  0  0  0  0  0  0  0  0  0  0
   -5.0353    4.9527    1.4432 N   0  0  0  0  0  0  0  0  0  0  0  0
   -4.5792    2.7470    0.4681 C   0  0  0  0  0  0  0  0  0  0  0  0
   -3.6842    1.7296    0.1250 C   0  0  0  0  0  0  0  0  0  0  0  0
   -0.1085    1.1033   -0.1853 N   0  0  0  0  0  0  0  0  0  0  0  0
    0.8971    0.1732   -0.5203 N   0  0  0  0  0  0  0  0  0  0  0  0
    2.1339    0.2560    0.2125 C   0  0  0  0  0  0  0  0  0  0  0  0
    2.3324    1.2342    0.9840 O   0  0  0  0  0  0  0  0  0  0  0  0
    3.1210   -0.7832    0.1168 N   0  0  0  0  0  0  0  0  0  0  0  0
    4.5258   -0.5661    0.3342 C   0  0  0  0  0  0  0  0  0  0  0  0
    5.3289   -1.6300    0.7759 C   0  0  0  0  0  0  0  0  0  0  0  0
    6.7011   -1.4469    0.9727 C   0  0  0  0  0  0  0  0  0  0  0  0
    7.2854   -0.2038    0.7175 C   0  0  0  0  0  0  0  0  0  0  0  0
    6.4994    0.8561    0.2586 C   0  0  0  0  0  0  0  0  0  0  0  0
    5.1265    0.6777    0.0614 C   0  0  0  0  0  0  0  0  0  0  0  0
   -3.6941   -3.2781    1.7732 O   0  0  0  0  0  0  0  0  0  0  0  0
   -3.8060   -4.6042    1.2381 C   0  0  0  0  0  0  0  0  0  0  0  0
   -3.0800   -4.5697    0.0015 O   0  0  0  0  0  0  0  0  0  0  0  0
    2.6814    0.2996   -2.5806 H   0  0  0  0  0  0  0  0  0  0  0  0
    1.5875   -0.3734   -3.8390 H   0  0  0  0  0  0  0  0  0  0  0  0
    1.1793    1.1938   -3.0318 H   0  0  0  0  0  0  0  0  0  0  0  0
    1.3218   -1.5692   -1.6668 H   0  0  0  0  0  0  0  0  0  0  0  0
   -1.0746    0.1012   -2.6116 H   0  0  0  0  0  0  0  0  0  0  0  0
   -0.5760   -1.5267   -3.1451 H   0  0  0  0  0  0  0  0  0  0  0  0
   -1.5359   -3.4325   -2.0390 H   0  0  0  0  0  0  0  0  0  0  0  0
   -2.8701   -0.6036    1.8558 H   0  0  0  0  0  0  0  0  0  0  0  0
   -0.8050    3.1711    1.2560 H   0  0  0  0  0  0  0  0  0  0  0  0
   -2.3829    4.9514    1.8491 H   0  0  0  0  0  0  0  0  0  0  0  0
   -4.7008    5.8262    1.9079 H   0  0  0  0  0  0  0  0  0  0  0  0
   -6.0554    4.8567    1.2407 H   0  0  0  0  0  0  0  0  0  0  0  0
   -5.6317    2.6282    0.2428 H   0  0  0  0  0  0  0  0  0  0  0  0
   -4.0659    0.8480   -0.3742 H   0  0  0  0  0  0  0  0  0  0  0  0
    2.7895   -1.7656   -0.0075 H   0  0  0  0  0  0  0  0  0  0  0  0
    4.8889   -2.5991    0.9752 H   0  0  0  0  0  0  0  0  0  0  0  0
    7.3119   -2.2697    1.3211 H   0  0  0  0  0  0  0  0  0  0  0  0
    8.3480   -0.0641    0.8682 H   0  0  0  0  0  0  0  0  0  0  0  0
    6.9555    1.8149    0.0482 H   0  0  0  0  0  0  0  0  0  0  0  0
    4.5424    1.5032   -0.3233 H   0  0  0  0  0  0  0  0  0  0  0  0
   -3.3452   -5.3377    1.9325 H   0  0  0  0  0  0  0  0  0  0  0  0
   -4.8715   -4.8527    1.0499 H   0  0  0  0  0  0  0  0  0  0  0  0
  1  2  1  0
  2  3  1  0
  3  4  1  0
  4  5  2  0
  5  6  1  0
  6  7  2  0
  7  8  1  0
  8  9  2  0
  9 10  1  0
 10 11  1  0
 11 12  2  0
 12 13  1  0
 13 14  2  0
 14 15  1  0
 14 16  1  0
 16 17  2  0
 10 18  2  0
 18 19  1  0
 19 20  1  0
 20 21  2  0
 20 22  1  0
 22 23  1  0
 23 24  2  0
 24 25  1  0
 25 26  2  0
 26 27  1  0
 27 28  2  0
  7 29  1  0
 29 30  1  0
 30 31  1  0
 19  2  1  0
 28 23  1  0
  9  4  1  0
 17 11  1  0
 31  6  1  0
  1 32  1  0
  1 33  1  0
  1 34  1  0
  2 35  1  0
  3 36  1  0
  3 37  1  0
  5 38  1  0
  8 39  1  0
 12 40  1  0
 13 41  1  0
 15 42  1  0
 15 43  1  0
 16 44  1  0
 17 45  1  0
 22 46  1  0
 24 47  1  0
 25 48  1  0
 26 49  1  0
 27 50  1  0
 28 51  1  0
 30 52  1  0
 30 53  1  0
M  END
$$$$
