
     RDKit          3D

 42 46  0  0  0  0  0  0  0  0999 V2000
    9.1477   -0.0048    1.3497 O   0  0  0  0  0  0  0  0  0  0  0  0
    7.9117   -0.0727    1.1153 C   0  0  0  0  0  0  0  0  0  0  0  0
    7.0319   -0.4909    2.1072 C   0  0  0  0  0  0  0  0  0  0  0  0
    5.7084   -0.5571    1.8208 N   0  0  0  0  0  0  0  0  0  0  0  0
    5.2318   -0.2351    0.6144 N   0  0  0  0  0  0  0  0  0  0  0  0
    3.8120   -0.3362    0.3928 C   0  0  0  0  0  0  0  0  0  0  0  0
    3.3028   -1.0026   -0.7343 C   0  0  0  0  0  0  0  0  0  0  0  0
    1.9232   -1.1149   -0.9276 C   0  0  0  0  0  0  0  0  0  0  0  0
    1.0243   -0.5708    0.0070 C   0  0  0  0  0  0  0  0  0  0  0  0
   -0.4420   -0.6886   -0.1981 C   0  0  0  0  0  0  0  0  0  0  0  0
   -1.0004   -1.8881   -0.6742 C   0  0  0  0  0  0  0  0  0  0  0  0
   -2.3787   -2.0033   -0.8669 C   0  0  0  0  0  0  0  0  0  0  0  0
   -3.2224   -0.9252   -0.5892 C   0  0  0  0  0  0  0  0  0  0  0  0
   -4.5316   -1.0527   -0.7790 O   0  0  0  0  0  0  0  0  0  0  0  0
   -5.3922   -0.0697   -0.5372 C   0  0  0  0  0  0  0  0  0  0  0  0
   -6.7575   -0.2773   -0.7608 C   0  0  0  0  0  0  0  0  0  0  0  0
   -7.6746    0.7470   -0.5114 C   0  0  0  0  0  0  0  0  0  0  0  0
   -7.2328    1.9861   -0.0367 C   0  0  0  0  0  0  0  0  0  0  0  0
   -8.3903    3.2671    0.2741 Cl  0  0  0  0  0  0  0  0  0  0  0  0
   -5.8694    2.2056    0.1908 C   0  0  0  0  0  0  0  0  0  0  0  0
   -4.9373    1.1804   -0.0572 C   0  0  0  0  0  0  0  0  0  0  0  0
   -3.5587    1.3551    0.1569 C   0  0  0  0  0  0  0  0  0  0  0  0
   -3.1140    2.4569    0.5851 O   0  0  0  0  0  0  0  0  0  0  0  0
   -2.6811    0.2889   -0.1106 C   0  0  0  0  0  0  0  0  0  0  0  0
   -1.2913    0.3982    0.0818 C   0  0  0  0  0  0  0  0  0  0  0  0
    1.5369    0.0813    1.1425 C   0  0  0  0  0  0  0  0  0  0  0  0
    2.9167    0.1911    1.3356 C   0  0  0  0  0  0  0  0  0  0  0  0
    6.0914    0.1972   -0.3636 C   0  0  0  0  0  0  0  0  0  0  0  0
    5.6591    0.5536   -1.4943 O   0  0  0  0  0  0  0  0  0  0  0  0
    7.4255    0.2661   -0.1062 N   0  0  0  0  0  0  0  0  0  0  0  0
    7.3882   -0.7619    3.0927 H   0  0  0  0  0  0  0  0  0  0  0  0
    3.9739   -1.4482   -1.4574 H   0  0  0  0  0  0  0  0  0  0  0  0
    1.5594   -1.6176   -1.8149 H   0  0  0  0  0  0  0  0  0  0  0  0
   -0.3717   -2.7450   -0.8811 H   0  0  0  0  0  0  0  0  0  0  0  0
   -2.7923   -2.9357   -1.2303 H   0  0  0  0  0  0  0  0  0  0  0  0
   -7.1085   -1.2334   -1.1283 H   0  0  0  0  0  0  0  0  0  0  0  0
   -8.7290    0.5765   -0.6875 H   0  0  0  0  0  0  0  0  0  0  0  0
   -5.5453    3.1716    0.5587 H   0  0  0  0  0  0  0  0  0  0  0  0
   -0.8660    1.3313    0.4315 H   0  0  0  0  0  0  0  0  0  0  0  0
    0.8705    0.4907    1.8914 H   0  0  0  0  0  0  0  0  0  0  0  0
    3.2899    0.6952    2.2182 H   0  0  0  0  0  0  0  0  0  0  0  0
    8.0818    0.5919   -0.8524 H   0  0  0  0  0  0  0  0  0  0  0  0
  1  2  2  0
  2  3  1  0
  3  4  2  0
  4  5  1  0
  5  6  1  0
  6  7  2  0
  7  8  1  0
  8  9  2  0
  9 10  1  0
 10 11  2  0
 11 12  1  0
 12 13  2  0
 13 14  1  0
 14 15  1  0
 15 16  2  0
 16 17  1  0
 17 18  2  0
 18 19  1  0
 18 20  1  0
 20 21  2  0
 21 22  1  0
 22 23  2  0
 22 24  1  0
 24 25  2  0
  9 26  1  0
 26 27  2  0
  5 28  1  0
 28 29  2  0
 28 30  1  0
 30  2  1  0
 27  6  1  0
 25 10  1  0
 24 13  1  0
 21 15  1  0
  3 31  1  0
  7 32  1  0
  8 33  1  0
 11 34  1  0
 12 35  1  0
 16 36  1  0
 17 37  1  0
 20 38  1  0
 25 39  1  0
 26 40  1  0
 27 41  1  0
 30 42  1  0
M  END
$$$$
