
     RDKit          3D

 60 63  0  0  0  0  0  0  0  0999 V2000
   -6.5030   -0.3193    0.7506 C   0  0  0  0  0  0  0  0  0  0  0  0
   -5.2953   -1.2199    0.5069 C   0  0  0  0  0  0  0  0  0  0  0  0
   -4.1034   -0.7966    1.3633 C   0  0  0  0  0  0  0  0  0  0  0  0
   -3.0154   -1.6574    1.0955 O   0  0  0  0  0  0  0  0  0  0  0  0
   -1.8453   -1.2018    1.7496 C   0  0  0  0  0  0  0  0  0  0  0  0
   -0.9620   -0.4263    0.7638 C   0  0  0  0  0  0  0  0  0  0  0  0
    0.2376    0.1182    1.4503 N   0  0  0  0  0  0  0  0  0  0  0  0
    1.2593   -0.9377    1.6571 C   0  0  0  0  0  0  0  0  0  0  0  0
    2.4675   -0.6331    0.7503 C   0  0  1  0  0  0  0  0  0  0  0  0
    3.0094   -1.8460    0.0130 C   0  0  0  0  0  0  0  0  0  0  0  0
    2.1739   -2.6403   -0.8214 C   0  0  0  0  0  0  0  0  0  0  0  0
    2.6940   -3.7504   -1.5105 C   0  0  0  0  0  0  0  0  0  0  0  0
    4.0446   -4.0387   -1.3522 C   0  0  0  0  0  0  0  0  0  0  0  0
    4.8517   -3.2863   -0.5644 C   0  0  0  0  0  0  0  0  0  0  0  0
    4.3787   -2.1803    0.1351 C   0  0  0  0  0  0  0  0  0  0  0  0
    6.1343   -3.7986   -0.5969 O   0  0  0  0  0  0  0  0  0  0  0  0
    6.1317   -4.9453   -1.4588 C   0  0  0  0  0  0  0  0  0  0  0  0
    4.7783   -5.0626   -1.9196 O   0  0  0  0  0  0  0  0  0  0  0  0
    1.9702    0.4630   -0.1860 C   0  0  2  0  0  0  0  0  0  0  0  0
    3.0767    1.3677   -0.6613 C   0  0  0  0  0  0  0  0  0  0  0  0
    3.3465    1.4337   -1.8903 O   0  0  0  0  0  0  0  0  0  0  0  0
    3.8122    2.1222    0.2489 O   0  0  0  0  0  0  0  0  0  0  0  0
    0.9427    1.1773    0.6922 C   0  0  1  0  0  0  0  0  0  0  0  0
    0.0332    2.2026    0.0172 C   0  0  0  0  0  0  0  0  0  0  0  0
   -0.2153    2.2178   -1.3707 C   0  0  0  0  0  0  0  0  0  0  0  0
   -1.0918    3.1554   -1.9252 C   0  0  0  0  0  0  0  0  0  0  0  0
   -1.7455    4.0918   -1.1045 C   0  0  0  0  0  0  0  0  0  0  0  0
   -2.6345    5.0496   -1.6145 O   0  0  0  0  0  0  0  0  0  0  0  0
   -2.9707    5.1813   -2.9919 C   0  0  0  0  0  0  0  0  0  0  0  0
   -1.5079    4.0722    0.2726 C   0  0  0  0  0  0  0  0  0  0  0  0
   -0.6325    3.1371    0.8293 C   0  0  0  0  0  0  0  0  0  0  0  0
   -7.3502   -0.6545    0.1158 H   0  0  0  0  0  0  0  0  0  0  0  0
   -6.2588    0.7328    0.4905 H   0  0  0  0  0  0  0  0  0  0  0  0
   -6.8147   -0.3715    1.8156 H   0  0  0  0  0  0  0  0  0  0  0  0
   -5.0145   -1.1687   -0.5678 H   0  0  0  0  0  0  0  0  0  0  0  0
   -5.5697   -2.2699    0.7484 H   0  0  0  0  0  0  0  0  0  0  0  0
   -4.3888   -0.8695    2.4375 H   0  0  0  0  0  0  0  0  0  0  0  0
   -3.8475    0.2602    1.1189 H   0  0  0  0  0  0  0  0  0  0  0  0
   -2.0504   -0.5738    2.6499 H   0  0  0  0  0  0  0  0  0  0  0  0
   -1.3004   -2.0952    2.1158 H   0  0  0  0  0  0  0  0  0  0  0  0
   -0.6808   -1.0733   -0.0957 H   0  0  0  0  0  0  0  0  0  0  0  0
   -1.5978    0.3875    0.3648 H   0  0  0  0  0  0  0  0  0  0  0  0
    0.8682   -1.9627    1.4766 H   0  0  0  0  0  0  0  0  0  0  0  0
    1.5802   -0.9139    2.7211 H   0  0  0  0  0  0  0  0  0  0  0  0
    3.2654   -0.2122    1.4063 H   0  0  0  0  0  0  0  0  0  0  0  0
    1.1262   -2.4011   -0.9389 H   0  0  0  0  0  0  0  0  0  0  0  0
    2.0645   -4.3598   -2.1454 H   0  0  0  0  0  0  0  0  0  0  0  0
    5.0528   -1.5989    0.7511 H   0  0  0  0  0  0  0  0  0  0  0  0
    6.8158   -4.7807   -2.3176 H   0  0  0  0  0  0  0  0  0  0  0  0
    6.4226   -5.8530   -0.8896 H   0  0  0  0  0  0  0  0  0  0  0  0
    1.4622   -0.0064   -1.0545 H   0  0  0  0  0  0  0  0  0  0  0  0
    4.5606    2.7288   -0.0640 H   0  0  0  0  0  0  0  0  0  0  0  0
    1.5218    1.7612    1.4470 H   0  0  0  0  0  0  0  0  0  0  0  0
    0.2539    1.5127   -2.0390 H   0  0  0  0  0  0  0  0  0  0  0  0
   -1.2574    3.1400   -2.9938 H   0  0  0  0  0  0  0  0  0  0  0  0
   -2.0613    5.4092   -3.5869 H   0  0  0  0  0  0  0  0  0  0  0  0
   -3.6915    6.0160   -3.1109 H   0  0  0  0  0  0  0  0  0  0  0  0
   -3.4447    4.2470   -3.3601 H   0  0  0  0  0  0  0  0  0  0  0  0
   -2.0088    4.7838    0.9167 H   0  0  0  0  0  0  0  0  0  0  0  0
   -0.4771    3.1367    1.9012 H   0  0  0  0  0  0  0  0  0  0  0  0
  1  2  1  0
  2  3  1  0
  3  4  1  0
  4  5  1  0
  5  6  1  0
  6  7  1  0
  7  8  1  0
  8  9  1  0
  9 10  1  0
 10 11  2  0
 11 12  1  0
 12 13  2  0
 13 14  1  0
 14 15  2  0
 14 16  1  0
 16 17  1  0
 17 18  1  0
  9 19  1  0
 19 20  1  0
 20 21  2  0
 20 22  1  0
 19 23  1  0
 23 24  1  0
 24 25  2  0
 25 26  1  0
 26 27  2  0
 27 28  1  0
 28 29  1  0
 27 30  1  0
 30 31  2  0
 23  7  1  0
 31 24  1  0
 15 10  1  0
 18 13  1  0
  1 32  1  0
  1 33  1  0
  1 34  1  0
  2 35  1  0
  2 36  1  0
  3 37  1  0
  3 38  1  0
  5 39  1  0
  5 40  1  0
  6 41  1  0
  6 42  1  0
  8 43  1  0
  8 44  1  0
  9 45  1  1
 11 46  1  0
 12 47  1  0
 15 48  1  0
 17 49  1  0
 17 50  1  0
 19 51  1  6
 22 52  1  0
 23 53  1  1
 25 54  1  0
 26 55  1  0
 29 56  1  0
 29 57  1  0
 29 58  1  0
 30 59  1  0
 31 60  1  0
M  END
$$$$
