
     RDKit          3D

 51 54  0  0  0  0  0  0  0  0999 V2000
    5.1823    1.8111   -3.5140 C   0  0  0  0  0  0  0  0  0  0  0  0
    5.6429    1.2671   -2.2812 O   0  0  0  0  0  0  0  0  0  0  0  0
    4.8066    0.7874   -1.2603 C   0  0  0  0  0  0  0  0  0  0  0  0
    3.4063    0.8080   -1.3726 C   0  0  0  0  0  0  0  0  0  0  0  0
    2.6031    0.3208   -0.3388 C   0  0  0  0  0  0  0  0  0  0  0  0
    1.2525    0.3710   -0.4705 N   0  0  0  0  0  0  0  0  0  0  0  0
    0.4033   -0.0739    0.4932 C   0  0  0  0  0  0  0  0  0  0  0  0
   -1.0245    0.0157    0.2849 N   0  0  0  0  0  0  0  0  0  0  0  0
   -1.5485    0.2006   -1.0760 C   0  0  0  0  0  0  0  0  0  0  0  0
   -2.9129   -0.4795   -1.2243 C   0  0  0  0  0  0  0  0  0  0  0  0
   -3.8357   -0.0860   -0.1481 N   0  0  0  0  0  0  0  0  0  0  0  0
   -5.2574   -0.2812   -0.3198 C   0  0  0  0  0  0  0  0  0  0  0  0
   -6.1764    0.6804    0.1442 C   0  0  0  0  0  0  0  0  0  0  0  0
   -7.5507    0.4896   -0.0283 C   0  0  0  0  0  0  0  0  0  0  0  0
   -8.0244   -0.6589   -0.6655 C   0  0  0  0  0  0  0  0  0  0  0  0
   -7.1245   -1.6186   -1.1334 C   0  0  0  0  0  0  0  0  0  0  0  0
   -5.7490   -1.4328   -0.9643 C   0  0  0  0  0  0  0  0  0  0  0  0
   -3.3215    0.6132    1.0381 C   0  0  0  0  0  0  0  0  0  0  0  0
   -1.9436    0.0713    1.4342 C   0  0  0  0  0  0  0  0  0  0  0  0
    0.9379   -0.6213    1.6697 C   0  0  0  0  0  0  0  0  0  0  0  0
    2.3262   -0.7055    1.8493 C   0  0  0  0  0  0  0  0  0  0  0  0
    2.8177   -1.3083    3.0573 N   0  0  0  0  0  0  0  0  0  0  0  0
    3.1865   -0.2119    0.8343 C   0  0  0  0  0  0  0  0  0  0  0  0
    4.5925   -0.2147    0.9459 C   0  0  0  0  0  0  0  0  0  0  0  0
    5.4011    0.2789   -0.0977 C   0  0  0  0  0  0  0  0  0  0  0  0
    6.8035    0.2833   -0.0166 O   0  0  0  0  0  0  0  0  0  0  0  0
    7.5539   -0.1992    1.0934 C   0  0  0  0  0  0  0  0  0  0  0  0
    4.5965    1.0504   -4.0720 H   0  0  0  0  0  0  0  0  0  0  0  0
    6.0570    2.1066   -4.1288 H   0  0  0  0  0  0  0  0  0  0  0  0
    4.5602    2.7114   -3.3255 H   0  0  0  0  0  0  0  0  0  0  0  0
    2.9299    1.2047   -2.2596 H   0  0  0  0  0  0  0  0  0  0  0  0
   -1.6445    1.2876   -1.2871 H   0  0  0  0  0  0  0  0  0  0  0  0
   -0.8588   -0.2426   -1.8272 H   0  0  0  0  0  0  0  0  0  0  0  0
   -2.7719   -1.5815   -1.2015 H   0  0  0  0  0  0  0  0  0  0  0  0
   -3.3414   -0.1965   -2.2107 H   0  0  0  0  0  0  0  0  0  0  0  0
   -5.8322    1.5866    0.6252 H   0  0  0  0  0  0  0  0  0  0  0  0
   -8.2488    1.2354    0.3294 H   0  0  0  0  0  0  0  0  0  0  0  0
   -9.0887   -0.8046   -0.7981 H   0  0  0  0  0  0  0  0  0  0  0  0
   -7.4929   -2.5092   -1.6261 H   0  0  0  0  0  0  0  0  0  0  0  0
   -5.0723   -2.1957   -1.3249 H   0  0  0  0  0  0  0  0  0  0  0  0
   -3.2465    1.7003    0.8184 H   0  0  0  0  0  0  0  0  0  0  0  0
   -4.0101    0.4744    1.9003 H   0  0  0  0  0  0  0  0  0  0  0  0
   -2.0621   -0.9504    1.8553 H   0  0  0  0  0  0  0  0  0  0  0  0
   -1.5245    0.7354    2.2215 H   0  0  0  0  0  0  0  0  0  0  0  0
    0.2830   -1.0066    2.4400 H   0  0  0  0  0  0  0  0  0  0  0  0
    2.1542   -1.5673    3.8214 H   0  0  0  0  0  0  0  0  0  0  0  0
    3.8094   -1.5941    3.1934 H   0  0  0  0  0  0  0  0  0  0  0  0
    5.0730   -0.5800    1.8363 H   0  0  0  0  0  0  0  0  0  0  0  0
    7.3446   -1.2775    1.2565 H   0  0  0  0  0  0  0  0  0  0  0  0
    8.6354   -0.0763    0.8802 H   0  0  0  0  0  0  0  0  0  0  0  0
    7.3040    0.3829    2.0056 H   0  0  0  0  0  0  0  0  0  0  0  0
  1  2  1  0
  2  3  1  0
  3  4  2  0
  4  5  1  0
  5  6  2  0
  6  7  1  0
  7  8  1  0
  8  9  1  0
  9 10  1  0
 10 11  1  0
 11 12  1  0
 12 13  2  0
 13 14  1  0
 14 15  2  0
 15 16  1  0
 16 17  2  0
 11 18  1  0
 18 19  1  0
  7 20  2  0
 20 21  1  0
 21 22  1  0
 21 23  2  0
 23 24  1  0
 24 25  2  0
 25 26  1  0
 26 27  1  0
 25  3  1  0
 23  5  1  0
 19  8  1  0
 17 12  1  0
  1 28  1  0
  1 29  1  0
  1 30  1  0
  4 31  1  0
  9 32  1  0
  9 33  1  0
 10 34  1  0
 10 35  1  0
 13 36  1  0
 14 37  1  0
 15 38  1  0
 16 39  1  0
 17 40  1  0
 18 41  1  0
 18 42  1  0
 19 43  1  0
 19 44  1  0
 20 45  1  0
 22 46  1  0
 22 47  1  0
 24 48  1  0
 27 49  1  0
 27 50  1  0
 27 51  1  0
M  END
$$$$
