
     RDKit          3D

 67 70  0  0  0  0  0  0  0  0999 V2000
   -7.0854   -0.7490    2.3877 C   0  0  0  0  0  0  0  0  0  0  0  0
   -5.6053   -0.9095    2.4612 C   0  0  0  0  0  0  0  0  0  0  0  0
   -5.0808   -1.4076    3.4940 O   0  0  0  0  0  0  0  0  0  0  0  0
   -4.8112   -0.4622    1.4022 O   0  0  0  0  0  0  0  0  0  0  0  0
   -3.3871   -0.5710    1.4043 C   0  0  0  0  0  0  0  0  0  0  0  0
   -2.7555    0.0399    0.1091 C   0  0  2  0  0  0  0  0  0  0  0  0
   -3.2877    1.5051    0.0397 C   0  0  0  0  0  0  0  0  0  0  0  0
   -3.3049   -0.7942   -1.0820 C   0  0  0  0  0  0  0  0  0  0  0  0
   -2.6850   -0.4454   -2.4318 C   0  0  0  0  0  0  0  0  0  0  0  0
   -1.1538   -0.5165   -2.3987 C   0  0  0  0  0  0  0  0  0  0  0  0
   -0.4820    0.3686   -1.2948 C   0  0  1  0  0  0  0  0  0  0  0  0
   -0.7336    1.8813   -1.6439 C   0  0  0  0  0  0  0  0  0  0  0  0
   -1.1402    0.0062    0.1252 C   0  0  0  0  0  0  0  0  0  0  0  0
   -0.5868   -1.3526    0.7178 C   0  0  2  0  0  0  0  0  0  0  0  0
   -0.9216   -1.5087    2.0763 O   0  0  0  0  0  0  0  0  0  0  0  0
    0.9276   -1.5453    0.6341 C   0  0  0  0  0  0  0  0  0  0  0  0
    1.4818   -1.3080   -0.7644 C   0  0  0  0  0  0  0  0  0  0  0  0
    3.0156   -1.5894   -0.7879 C   0  0  0  0  0  0  0  0  0  0  0  0
    3.8857   -0.3807   -0.3729 C   0  0  2  0  0  0  0  0  0  0  0  0
    3.9352   -0.3240    1.0569 O   0  0  0  0  0  0  0  0  0  0  0  0
    5.0771    0.0115    1.7932 C   0  0  0  0  0  0  0  0  0  0  0  0
    4.9935    0.0668    3.2803 C   0  0  0  0  0  0  0  0  0  0  0  0
    6.1804    0.2239    1.2205 O   0  0  0  0  0  0  0  0  0  0  0  0
    3.3360    0.9549   -0.9673 C   0  0  1  0  0  0  0  0  0  0  0  0
    4.2396    2.1476   -0.5988 C   0  0  0  0  0  0  0  0  0  0  0  0
    3.1634    0.8400   -2.4964 C   0  0  0  0  0  0  0  0  0  0  0  0
    1.7553    0.2660   -2.7191 C   0  0  0  0  0  0  0  0  0  0  0  0
    1.1075    0.1191   -1.3029 C   0  0  1  0  0  0  0  0  0  0  0  0
    1.9047    1.1639   -0.4807 C   0  0  0  0  0  0  0  0  0  0  0  0
   -7.3841    0.1766    2.9223 H   0  0  0  0  0  0  0  0  0  0  0  0
   -7.5870   -1.6225    2.8551 H   0  0  0  0  0  0  0  0  0  0  0  0
   -7.4063   -0.6774    1.3275 H   0  0  0  0  0  0  0  0  0  0  0  0
   -2.9889   -0.0433    2.2992 H   0  0  0  0  0  0  0  0  0  0  0  0
   -3.1619   -1.6555    1.4753 H   0  0  0  0  0  0  0  0  0  0  0  0
   -4.3502    1.5906    0.3456 H   0  0  0  0  0  0  0  0  0  0  0  0
   -2.7077    2.1686    0.7152 H   0  0  0  0  0  0  0  0  0  0  0  0
   -3.2921    1.9232   -0.9764 H   0  0  0  0  0  0  0  0  0  0  0  0
   -3.1305   -1.8772   -0.8982 H   0  0  0  0  0  0  0  0  0  0  0  0
   -4.4065   -0.6616   -1.1644 H   0  0  0  0  0  0  0  0  0  0  0  0
   -3.0505    0.5361   -2.7891 H   0  0  0  0  0  0  0  0  0  0  0  0
   -3.0493   -1.1833   -3.1799 H   0  0  0  0  0  0  0  0  0  0  0  0
   -0.7913   -0.2250   -3.4063 H   0  0  0  0  0  0  0  0  0  0  0  0
   -0.8889   -1.5825   -2.2618 H   0  0  0  0  0  0  0  0  0  0  0  0
   -0.7886    2.5063   -0.7289 H   0  0  0  0  0  0  0  0  0  0  0  0
    0.0578    2.3334   -2.2676 H   0  0  0  0  0  0  0  0  0  0  0  0
   -1.6277    2.0605   -2.2593 H   0  0  0  0  0  0  0  0  0  0  0  0
   -0.8009    0.7895    0.8383 H   0  0  0  0  0  0  0  0  0  0  0  0
   -1.0509   -2.1902    0.1557 H   0  0  0  0  0  0  0  0  0  0  0  0
   -0.5718   -0.7221    2.5716 H   0  0  0  0  0  0  0  0  0  0  0  0
    1.1490   -2.5954    0.9301 H   0  0  0  0  0  0  0  0  0  0  0  0
    1.4364   -0.9107    1.3856 H   0  0  0  0  0  0  0  0  0  0  0  0
    1.0329   -2.0827   -1.4197 H   0  0  0  0  0  0  0  0  0  0  0  0
    3.3056   -1.8963   -1.8164 H   0  0  0  0  0  0  0  0  0  0  0  0
    3.2663   -2.4640   -0.1480 H   0  0  0  0  0  0  0  0  0  0  0  0
    4.9074   -0.5665   -0.7751 H   0  0  0  0  0  0  0  0  0  0  0  0
    5.1161   -0.9554    3.6951 H   0  0  0  0  0  0  0  0  0  0  0  0
    4.0043    0.4688    3.5853 H   0  0  0  0  0  0  0  0  0  0  0  0
    5.7892    0.7264    3.6873 H   0  0  0  0  0  0  0  0  0  0  0  0
    3.8719    3.0848   -1.0693 H   0  0  0  0  0  0  0  0  0  0  0  0
    4.2497    2.3087    0.4996 H   0  0  0  0  0  0  0  0  0  0  0  0
    5.2783    1.9653   -0.9480 H   0  0  0  0  0  0  0  0  0  0  0  0
    3.9431    0.1947   -2.9569 H   0  0  0  0  0  0  0  0  0  0  0  0
    3.2241    1.8405   -2.9807 H   0  0  0  0  0  0  0  0  0  0  0  0
    1.2006    0.9436   -3.3961 H   0  0  0  0  0  0  0  0  0  0  0  0
    1.8087   -0.7070   -3.2547 H   0  0  0  0  0  0  0  0  0  0  0  0
    1.8020    1.0630    0.6169 H   0  0  0  0  0  0  0  0  0  0  0  0
    1.6097    2.2071   -0.7115 H   0  0  0  0  0  0  0  0  0  0  0  0
  1  2  1  0
  2  3  2  0
  2  4  1  0
  4  5  1  0
  6  5  1  1
  6  7  1  0
  6  8  1  0
  8  9  1  0
  9 10  1  0
 10 11  1  0
 11 12  1  6
 11 13  1  0
 13 14  1  0
 14 15  1  0
 14 16  1  0
 16 17  1  0
 17 18  1  0
 18 19  1  0
 19 20  1  0
 20 21  1  0
 21 22  1  0
 21 23  2  0
 19 24  1  0
 24 25  1  6
 24 26  1  0
 26 27  1  0
 28 27  1  6
 28 29  1  0
 13  6  1  0
 28 17  1  0
 28 11  1  0
 29 24  1  0
  1 30  1  0
  1 31  1  0
  1 32  1  0
  5 33  1  0
  5 34  1  0
  7 35  1  0
  7 36  1  0
  7 37  1  0
  8 38  1  0
  8 39  1  0
  9 40  1  0
  9 41  1  0
 10 42  1  0
 10 43  1  0
 12 44  1  0
 12 45  1  0
 12 46  1  0
 13 47  1  0
 14 48  1  6
 15 49  1  0
 16 50  1  0
 16 51  1  0
 17 52  1  0
 18 53  1  0
 18 54  1  0
 19 55  1  6
 22 56  1  0
 22 57  1  0
 22 58  1  0
 25 59  1  0
 25 60  1  0
 25 61  1  0
 26 62  1  0
 26 63  1  0
 27 64  1  0
 27 65  1  0
 29 66  1  0
 29 67  1  0
M  END
$$$$
