
     RDKit          3D

 57 59  0  0  0  0  0  0  0  0999 V2000
   -5.6820    2.7026    0.5184 C   0  0  0  0  0  0  0  0  0  0  0  0
   -4.1853    3.0036    0.5384 C   0  0  0  0  0  0  0  0  0  0  0  0
   -3.3582    1.7174    0.3567 C   0  0  0  0  0  0  0  0  0  0  0  0
   -1.8385    1.8834    0.3255 C   0  0  0  0  0  0  0  0  0  0  0  0
   -1.2581    3.1505    0.5419 C   0  0  0  0  0  0  0  0  0  0  0  0
    0.1235    3.3000    0.4993 C   0  0  0  0  0  0  0  0  0  0  0  0
    0.6405    4.4327    0.6905 O   0  0  0  0  0  0  0  0  0  0  0  0
    0.9025    2.2606    0.2533 O   0  0  0  0  0  0  0  0  0  0  0  0
    0.4366    1.0346    0.0369 C   0  0  0  0  0  0  0  0  0  0  0  0
    1.3566    0.0042   -0.2270 C   0  0  0  0  0  0  0  0  0  0  0  0
    2.8052    0.3149   -0.2473 C   0  0  0  0  0  0  0  0  0  0  0  0
    3.2167    1.2262   -1.0155 O   0  0  0  0  0  0  0  0  0  0  0  0
    3.7481   -0.3305    0.7558 C   0  0  0  0  0  0  0  0  0  0  0  0
    3.5917    0.3892    2.1073 C   0  0  0  0  0  0  0  0  0  0  0  0
    5.2328   -0.4309    0.2452 C   0  0  0  0  0  0  0  0  0  0  0  0
    5.9923   -1.5175    1.0441 C   0  0  0  0  0  0  0  0  0  0  0  0
    5.9947    0.9140    0.3799 C   0  0  0  0  0  0  0  0  0  0  0  0
    5.2066   -0.8203   -1.1128 O   0  0  0  0  0  0  0  0  0  0  0  0
    0.9048   -1.2987   -0.4893 C   0  0  0  0  0  0  0  0  0  0  0  0
    1.8443   -2.2678   -0.8605 O   0  0  0  0  0  0  0  0  0  0  0  0
   -0.4739   -1.5897   -0.4047 C   0  0  0  0  0  0  0  0  0  0  0  0
   -1.3990   -0.5598   -0.1339 C   0  0  0  0  0  0  0  0  0  0  0  0
   -0.9606    0.7770    0.0770 C   0  0  0  0  0  0  0  0  0  0  0  0
   -2.7547   -0.9021   -0.0522 O   0  0  0  0  0  0  0  0  0  0  0  0
   -3.3080   -2.0868   -0.6334 C   0  0  0  0  0  0  0  0  0  0  0  0
   -4.5580   -2.4763    0.1674 C   0  0  0  0  0  0  0  0  0  0  0  0
   -3.6888   -1.7930   -2.0928 C   0  0  0  0  0  0  0  0  0  0  0  0
   -2.3052   -3.2161   -0.5934 C   0  0  0  0  0  0  0  0  0  0  0  0
   -0.9941   -2.9744   -0.5328 C   0  0  0  0  0  0  0  0  0  0  0  0
   -6.2506    3.6455    0.6552 H   0  0  0  0  0  0  0  0  0  0  0  0
   -5.9485    2.0089    1.3460 H   0  0  0  0  0  0  0  0  0  0  0  0
   -5.9766    2.2488   -0.4502 H   0  0  0  0  0  0  0  0  0  0  0  0
   -3.9419    3.4769    1.5144 H   0  0  0  0  0  0  0  0  0  0  0  0
   -3.9573    3.7158   -0.2864 H   0  0  0  0  0  0  0  0  0  0  0  0
   -3.6173    1.0301    1.1924 H   0  0  0  0  0  0  0  0  0  0  0  0
   -3.6743    1.2636   -0.6075 H   0  0  0  0  0  0  0  0  0  0  0  0
   -1.8523    4.0308    0.7395 H   0  0  0  0  0  0  0  0  0  0  0  0
    3.3910   -1.3711    0.9169 H   0  0  0  0  0  0  0  0  0  0  0  0
    2.5582    0.2448    2.4914 H   0  0  0  0  0  0  0  0  0  0  0  0
    3.7636    1.4806    1.9965 H   0  0  0  0  0  0  0  0  0  0  0  0
    4.2923   -0.0059    2.8680 H   0  0  0  0  0  0  0  0  0  0  0  0
    6.0429   -1.2648    2.1232 H   0  0  0  0  0  0  0  0  0  0  0  0
    7.0361   -1.6185    0.6684 H   0  0  0  0  0  0  0  0  0  0  0  0
    5.4916   -2.5054    0.9303 H   0  0  0  0  0  0  0  0  0  0  0  0
    7.0115    0.8272   -0.0618 H   0  0  0  0  0  0  0  0  0  0  0  0
    6.1226    1.2004    1.4430 H   0  0  0  0  0  0  0  0  0  0  0  0
    5.4718    1.7359   -0.1480 H   0  0  0  0  0  0  0  0  0  0  0  0
    6.1426   -0.8801   -1.4420 H   0  0  0  0  0  0  0  0  0  0  0  0
    1.6061   -3.1902   -1.1965 H   0  0  0  0  0  0  0  0  0  0  0  0
   -4.2827   -2.7035    1.2234 H   0  0  0  0  0  0  0  0  0  0  0  0
   -5.0475   -3.3729   -0.2745 H   0  0  0  0  0  0  0  0  0  0  0  0
   -5.2875   -1.6367    0.1734 H   0  0  0  0  0  0  0  0  0  0  0  0
   -4.1364   -2.6903   -2.5718 H   0  0  0  0  0  0  0  0  0  0  0  0
   -4.4237   -0.9588   -2.1392 H   0  0  0  0  0  0  0  0  0  0  0  0
   -2.7900   -1.4909   -2.6728 H   0  0  0  0  0  0  0  0  0  0  0  0
   -2.6469   -4.2406   -0.6982 H   0  0  0  0  0  0  0  0  0  0  0  0
   -0.3295   -3.8266   -0.5336 H   0  0  0  0  0  0  0  0  0  0  0  0
  1  2  1  0
  2  3  1  0
  3  4  1  0
  4  5  2  0
  5  6  1  0
  6  7  2  0
  6  8  1  0
  8  9  1  0
  9 10  2  0
 10 11  1  0
 11 12  2  0
 11 13  1  0
 13 14  1  0
 13 15  1  0
 15 16  1  0
 15 17  1  0
 15 18  1  0
 10 19  1  0
 19 20  1  0
 19 21  2  0
 21 22  1  0
 22 23  2  0
 22 24  1  0
 24 25  1  0
 25 26  1  0
 25 27  1  0
 25 28  1  0
 28 29  2  0
 23  4  1  0
 23  9  1  0
 29 21  1  0
  1 30  1  0
  1 31  1  0
  1 32  1  0
  2 33  1  0
  2 34  1  0
  3 35  1  0
  3 36  1  0
  5 37  1  0
 13 38  1  0
 14 39  1  0
 14 40  1  0
 14 41  1  0
 16 42  1  0
 16 43  1  0
 16 44  1  0
 17 45  1  0
 17 46  1  0
 17 47  1  0
 18 48  1  0
 20 49  1  0
 26 50  1  0
 26 51  1  0
 26 52  1  0
 27 53  1  0
 27 54  1  0
 27 55  1  0
 28 56  1  0
 29 57  1  0
M  END
$$$$
