
     RDKit          3D

 38 40  0  0  0  0  0  0  0  0999 V2000
   -4.6764    1.2818   -1.2493 C   0  0  0  0  0  0  0  0  0  0  0  0
   -4.3977    1.1368    0.2437 C   0  0  0  0  0  0  0  0  0  0  0  0
   -3.3971    0.0324    0.4991 C   0  0  0  0  0  0  0  0  0  0  0  0
   -2.0280    0.3268    0.4251 C   0  0  0  0  0  0  0  0  0  0  0  0
   -1.0600   -0.6699    0.6340 C   0  0  0  0  0  0  0  0  0  0  0  0
    0.3437   -0.3442    0.6164 N   0  0  0  0  0  0  0  0  0  0  0  0
    0.8769    0.8104   -0.1079 C   0  0  0  0  0  0  0  0  0  0  0  0
    2.3616    0.7017   -0.2444 C   0  0  0  0  0  0  0  0  0  0  0  0
    2.9666   -0.0031   -1.2369 N   0  0  0  0  0  0  0  0  0  0  0  0
    4.2676    0.1580   -0.9387 C   0  0  0  0  0  0  0  0  0  0  0  0
    5.3755   -0.3481   -1.6182 C   0  0  0  0  0  0  0  0  0  0  0  0
    5.1938   -1.3309   -3.0605 Cl  0  0  0  0  0  0  0  0  0  0  0  0
    6.6522   -0.0431   -1.1057 C   0  0  0  0  0  0  0  0  0  0  0  0
    6.7862    0.7489    0.0584 C   0  0  0  0  0  0  0  0  0  0  0  0
    5.6445    1.2421    0.7195 C   0  0  0  0  0  0  0  0  0  0  0  0
    5.7866    2.2244    2.1654 Cl  0  0  0  0  0  0  0  0  0  0  0  0
    4.4001    0.9201    0.1829 C   0  0  0  0  0  0  0  0  0  0  0  0
    3.2109    1.2508    0.6083 O   0  0  0  0  0  0  0  0  0  0  0  0
   -1.5010   -1.9851    0.8932 C   0  0  0  0  0  0  0  0  0  0  0  0
   -0.6131   -3.0481    1.0650 O   0  0  0  0  0  0  0  0  0  0  0  0
   -2.8320   -2.2482    0.9562 N   0  0  0  0  0  0  0  0  0  0  0  0
   -3.7858   -1.2985    0.7650 C   0  0  0  0  0  0  0  0  0  0  0  0
   -5.2266   -1.7068    0.8653 C   0  0  0  0  0  0  0  0  0  0  0  0
   -3.7416    1.5383   -1.7922 H   0  0  0  0  0  0  0  0  0  0  0  0
   -5.4156    2.0940   -1.4125 H   0  0  0  0  0  0  0  0  0  0  0  0
   -5.0894    0.3373   -1.6619 H   0  0  0  0  0  0  0  0  0  0  0  0
   -5.3502    0.9515    0.7821 H   0  0  0  0  0  0  0  0  0  0  0  0
   -4.0021    2.1012    0.6309 H   0  0  0  0  0  0  0  0  0  0  0  0
   -1.7228    1.3452    0.2231 H   0  0  0  0  0  0  0  0  0  0  0  0
    1.0042   -0.9141    1.1907 H   0  0  0  0  0  0  0  0  0  0  0  0
    0.4276    0.8562   -1.1234 H   0  0  0  0  0  0  0  0  0  0  0  0
    0.6260    1.7435    0.4397 H   0  0  0  0  0  0  0  0  0  0  0  0
    7.5381   -0.4160   -1.6033 H   0  0  0  0  0  0  0  0  0  0  0  0
    7.7731    0.9749    0.4411 H   0  0  0  0  0  0  0  0  0  0  0  0
    0.3851   -2.9712    0.9254 H   0  0  0  0  0  0  0  0  0  0  0  0
   -5.7784   -1.4050   -0.0488 H   0  0  0  0  0  0  0  0  0  0  0  0
   -5.6905   -1.2348    1.7564 H   0  0  0  0  0  0  0  0  0  0  0  0
   -5.3119   -2.8094    0.9704 H   0  0  0  0  0  0  0  0  0  0  0  0
  1  2  1  0
  2  3  1  0
  3  4  2  0
  4  5  1  0
  5  6  1  0
  6  7  1  0
  7  8  1  0
  8  9  2  0
  9 10  1  0
 10 11  2  0
 11 12  1  0
 11 13  1  0
 13 14  2  0
 14 15  1  0
 15 16  1  0
 15 17  2  0
 17 18  1  0
  5 19  2  0
 19 20  1  0
 19 21  1  0
 21 22  2  0
 22 23  1  0
 22  3  1  0
 18  8  1  0
 17 10  1  0
  1 24  1  0
  1 25  1  0
  1 26  1  0
  2 27  1  0
  2 28  1  0
  4 29  1  0
  6 30  1  0
  7 31  1  0
  7 32  1  0
 13 33  1  0
 14 34  1  0
 20 35  1  0
 23 36  1  0
 23 37  1  0
 23 38  1  0
M  END
$$$$
