
     RDKit          3D

 32 34  0  0  0  0  0  0  0  0999 V2000
   -5.2882    2.1913    0.4317 N   0  0  0  0  0  0  0  0  0  0  0  0
   -4.0536    1.4936    0.2859 C   0  0  0  0  0  0  0  0  0  0  0  0
   -3.0393    2.0491   -0.4186 N   0  0  0  0  0  0  0  0  0  0  0  0
   -1.8442    1.4221   -0.5801 C   0  0  0  0  0  0  0  0  0  0  0  0
   -0.7947    2.1626   -1.2031 N   0  0  0  0  0  0  0  0  0  0  0  0
   -1.6557    0.1177   -0.0400 C   0  0  0  0  0  0  0  0  0  0  0  0
   -0.5113   -0.7109   -0.2597 C   0  0  0  0  0  0  0  0  0  0  0  0
    0.7623   -0.3431   -1.4280 S   0  0  0  0  0  3  0  0  0  0  0  0
    0.6936   -1.3408   -2.7773 O   0  0  0  0  0  1  0  0  0  0  0  0
    2.3767   -0.2785   -0.7343 C   0  0  0  0  0  0  0  0  0  0  0  0
    3.0003    0.9571   -0.5246 C   0  0  0  0  0  0  0  0  0  0  0  0
    4.2837    1.0117    0.0256 C   0  0  0  0  0  0  0  0  0  0  0  0
    4.9580   -0.1674    0.3625 C   0  0  0  0  0  0  0  0  0  0  0  0
    6.5715   -0.0593    1.0528 Cl  0  0  0  0  0  0  0  0  0  0  0  0
    4.3421   -1.4107    0.1384 C   0  0  0  0  0  0  0  0  0  0  0  0
    5.1591   -2.9171    0.5322 Cl  0  0  0  0  0  0  0  0  0  0  0  0
    3.0563   -1.4609   -0.4132 C   0  0  0  0  0  0  0  0  0  0  0  0
   -0.4339   -1.9605    0.3750 C   0  0  0  0  0  0  0  0  0  0  0  0
   -1.4628   -2.4160    1.1943 C   0  0  0  0  0  0  0  0  0  0  0  0
   -2.6096   -1.6498    1.3640 C   0  0  0  0  0  0  0  0  0  0  0  0
   -2.7232   -0.4047    0.7417 C   0  0  0  0  0  0  0  0  0  0  0  0
   -3.8818    0.2886    0.8770 N   0  0  0  0  0  0  0  0  0  0  0  0
   -6.0699    1.7731    0.9834 H   0  0  0  0  0  0  0  0  0  0  0  0
   -5.4225    3.1266   -0.0125 H   0  0  0  0  0  0  0  0  0  0  0  0
   -1.0335    2.9607   -1.8327 H   0  0  0  0  0  0  0  0  0  0  0  0
    0.1615    2.1607   -0.7905 H   0  0  0  0  0  0  0  0  0  0  0  0
    2.4983    1.8779   -0.7881 H   0  0  0  0  0  0  0  0  0  0  0  0
    4.7549    1.9729    0.1877 H   0  0  0  0  0  0  0  0  0  0  0  0
    2.5957   -2.4212   -0.6035 H   0  0  0  0  0  0  0  0  0  0  0  0
    0.4163   -2.6073    0.2116 H   0  0  0  0  0  0  0  0  0  0  0  0
   -1.3855   -3.3849    1.6708 H   0  0  0  0  0  0  0  0  0  0  0  0
   -3.4208   -2.0326    1.9715 H   0  0  0  0  0  0  0  0  0  0  0  0
  1  2  1  0
  2  3  2  0
  3  4  1  0
  4  5  1  0
  4  6  2  0
  6  7  1  0
  7  8  1  0
  8  9  1  0
  8 10  1  0
 10 11  2  0
 11 12  1  0
 12 13  2  0
 13 14  1  0
 13 15  1  0
 15 16  1  0
 15 17  2  0
  7 18  2  0
 18 19  1  0
 19 20  2  0
 20 21  1  0
 21 22  2  0
 22  2  1  0
 21  6  1  0
 17 10  1  0
  1 23  1  0
  1 24  1  0
  5 25  1  0
  5 26  1  0
 11 27  1  0
 12 28  1  0
 17 29  1  0
 18 30  1  0
 19 31  1  0
 20 32  1  0
M  CHG  2   8   1   9  -1
M  END
$$$$
