
     RDKit          3D

 43 45  0  0  0  0  0  0  0  0999 V2000
   -7.8195    0.4284    1.0826 C   0  0  0  0  0  0  0  0  0  0  0  0
   -6.4008    0.4829    1.1925 O   0  0  0  0  0  0  0  0  0  0  0  0
   -5.5080   -0.2602    0.4012 C   0  0  0  0  0  0  0  0  0  0  0  0
   -5.9688   -1.1453   -0.5891 C   0  0  0  0  0  0  0  0  0  0  0  0
   -5.0550   -1.8744   -1.3441 C   0  0  0  0  0  0  0  0  0  0  0  0
   -3.7252   -1.7407   -1.1183 N   0  0  0  0  0  0  0  0  0  0  0  0
   -3.2285   -0.9046   -0.1670 C   0  0  0  0  0  0  0  0  0  0  0  0
   -1.7350   -0.8258   -0.0124 C   0  0  0  0  0  0  0  0  0  0  0  0
   -1.0911    0.5090   -0.9995 S   0  0  0  0  0  3  0  0  0  0  0  0
   -1.3437    0.2295   -2.6363 O   0  0  0  0  0  1  0  0  0  0  0  0
    0.6134    0.7385   -0.6793 C   0  0  0  0  0  0  0  0  0  0  0  0
    1.5474   -0.2138   -0.9374 N   0  0  0  0  0  0  0  0  0  0  0  0
    2.6863    0.3792   -0.5357 C   0  0  0  0  0  0  0  0  0  0  0  0
    3.9756   -0.1456   -0.5676 C   0  0  0  0  0  0  0  0  0  0  0  0
    5.0343    0.6659   -0.0852 C   0  0  0  0  0  0  0  0  0  0  0  0
    6.3663    0.2278   -0.0754 O   0  0  0  0  0  0  0  0  0  0  0  0
    6.7951   -1.0515   -0.5357 C   0  0  0  0  0  0  0  0  0  0  0  0
    8.3039   -1.1775   -0.3716 C   0  0  0  0  0  0  0  0  0  0  0  0
    8.9408   -0.1980   -1.1118 F   0  0  0  0  0  0  0  0  0  0  0  0
    8.7165   -2.4204   -0.8154 F   0  0  0  0  0  0  0  0  0  0  0  0
    8.6452   -1.0366    0.9615 F   0  0  0  0  0  0  0  0  0  0  0  0
    4.7528    1.9640    0.4065 C   0  0  0  0  0  0  0  0  0  0  0  0
    3.4362    2.4601    0.4231 C   0  0  0  0  0  0  0  0  0  0  0  0
    2.4301    1.6297   -0.0600 C   0  0  0  0  0  0  0  0  0  0  0  0
    1.1174    1.8753   -0.1433 N   0  0  0  0  0  0  0  0  0  0  0  0
   -4.1179   -0.1152    0.6057 C   0  0  0  0  0  0  0  0  0  0  0  0
   -3.6004    0.8219    1.6716 C   0  0  0  0  0  0  0  0  0  0  0  0
   -8.1365    0.7496    0.0681 H   0  0  0  0  0  0  0  0  0  0  0  0
   -8.2672    1.1166    1.8286 H   0  0  0  0  0  0  0  0  0  0  0  0
   -8.1794   -0.6017    1.2889 H   0  0  0  0  0  0  0  0  0  0  0  0
   -7.0245   -1.2776   -0.7817 H   0  0  0  0  0  0  0  0  0  0  0  0
   -5.4038   -2.5542   -2.1100 H   0  0  0  0  0  0  0  0  0  0  0  0
   -1.2697   -1.7750   -0.3539 H   0  0  0  0  0  0  0  0  0  0  0  0
   -1.4471   -0.6812    1.0495 H   0  0  0  0  0  0  0  0  0  0  0  0
    4.1436   -1.1427   -0.9514 H   0  0  0  0  0  0  0  0  0  0  0  0
    6.2956   -1.8495    0.0557 H   0  0  0  0  0  0  0  0  0  0  0  0
    6.5333   -1.1709   -1.6096 H   0  0  0  0  0  0  0  0  0  0  0  0
    5.5589    2.5852    0.7754 H   0  0  0  0  0  0  0  0  0  0  0  0
    3.2154    3.4509    0.7982 H   0  0  0  0  0  0  0  0  0  0  0  0
    0.6022    2.7380    0.1409 H   0  0  0  0  0  0  0  0  0  0  0  0
   -2.7412    1.4109    1.2903 H   0  0  0  0  0  0  0  0  0  0  0  0
   -4.3684    1.5542    1.9951 H   0  0  0  0  0  0  0  0  0  0  0  0
   -3.2783    0.2344    2.5564 H   0  0  0  0  0  0  0  0  0  0  0  0
  1  2  1  0
  2  3  1  0
  3  4  2  0
  4  5  1  0
  5  6  2  0
  6  7  1  0
  7  8  1  0
  8  9  1  0
  9 10  1  0
  9 11  1  0
 11 12  2  0
 12 13  1  0
 13 14  2  0
 14 15  1  0
 15 16  1  0
 16 17  1  0
 17 18  1  0
 18 19  1  0
 18 20  1  0
 18 21  1  0
 15 22  2  0
 22 23  1  0
 23 24  2  0
 24 25  1  0
  7 26  2  0
 26 27  1  0
 26  3  1  0
 25 11  1  0
 24 13  1  0
  1 28  1  0
  1 29  1  0
  1 30  1  0
  4 31  1  0
  5 32  1  0
  8 33  1  0
  8 34  1  0
 14 35  1  0
 17 36  1  0
 17 37  1  0
 22 38  1  0
 23 39  1  0
 25 40  1  0
 27 41  1  0
 27 42  1  0
 27 43  1  0
M  CHG  2   9   1  10  -1
M  END
$$$$
