
     RDKit          3D

 35 37  0  0  0  0  0  0  0  0999 V2000
    3.9512    2.9127   -0.1762 C   0  0  0  0  0  0  0  0  0  0  0  0
    3.1092    1.9247    0.4055 O   0  0  0  0  0  0  0  0  0  0  0  0
    2.7555    0.7449   -0.2578 C   0  0  0  0  0  0  0  0  0  0  0  0
    3.2170    0.4908   -1.5141 N   0  0  0  0  0  0  0  0  0  0  0  0
    2.8825   -0.6462   -2.1768 C   0  0  0  0  0  0  0  0  0  0  0  0
    3.5523   -0.9559   -3.9353 Br  0  0  0  0  0  0  0  0  0  0  0  0
    2.0481   -1.5781   -1.5595 C   0  0  0  0  0  0  0  0  0  0  0  0
    1.5858   -1.3307   -0.3072 N   0  0  0  0  0  0  0  0  0  0  0  0
    1.9144   -0.1927    0.3645 C   0  0  0  0  0  0  0  0  0  0  0  0
    1.4010    0.0409    1.6832 N   0  0  0  0  0  0  0  0  0  0  0  0
    0.2399   -1.0193    2.4130 S   0  0  0  0  0  6  0  0  0  0  0  0
    0.9191   -2.3154    2.7578 O   0  0  0  0  0  0  0  0  0  0  0  0
   -0.2830   -0.4004    3.6787 O   0  0  0  0  0  0  0  0  0  0  0  0
   -1.1140   -1.2912    1.2998 C   0  0  0  0  0  0  0  0  0  0  0  0
   -1.4065   -2.6100    0.9165 C   0  0  0  0  0  0  0  0  0  0  0  0
   -2.4359   -2.8816    0.0167 C   0  0  0  0  0  0  0  0  0  0  0  0
   -3.1926   -1.8431   -0.5200 C   0  0  0  0  0  0  0  0  0  0  0  0
   -2.9281   -0.5160   -0.1566 C   0  0  0  0  0  0  0  0  0  0  0  0
   -3.6951    0.5245   -0.7041 C   0  0  0  0  0  0  0  0  0  0  0  0
   -3.4403    1.8488   -0.3483 C   0  0  0  0  0  0  0  0  0  0  0  0
   -2.4229    2.1466    0.5570 C   0  0  0  0  0  0  0  0  0  0  0  0
   -1.6504    1.1237    1.1123 C   0  0  0  0  0  0  0  0  0  0  0  0
   -1.8840   -0.2243    0.7641 C   0  0  0  0  0  0  0  0  0  0  0  0
    3.4890    3.3064   -1.1062 H   0  0  0  0  0  0  0  0  0  0  0  0
    4.0822    3.7482    0.5416 H   0  0  0  0  0  0  0  0  0  0  0  0
    4.9463    2.4766   -0.4064 H   0  0  0  0  0  0  0  0  0  0  0  0
    1.7679   -2.4909   -2.0679 H   0  0  0  0  0  0  0  0  0  0  0  0
    1.6938    0.8865    2.2212 H   0  0  0  0  0  0  0  0  0  0  0  0
   -0.8320   -3.4385    1.3089 H   0  0  0  0  0  0  0  0  0  0  0  0
   -2.6455   -3.9044   -0.2693 H   0  0  0  0  0  0  0  0  0  0  0  0
   -3.9859   -2.0775   -1.2201 H   0  0  0  0  0  0  0  0  0  0  0  0
   -4.4917    0.3130   -1.4077 H   0  0  0  0  0  0  0  0  0  0  0  0
   -4.0350    2.6467   -0.7740 H   0  0  0  0  0  0  0  0  0  0  0  0
   -2.2322    3.1760    0.8321 H   0  0  0  0  0  0  0  0  0  0  0  0
   -0.8803    1.4054    1.8145 H   0  0  0  0  0  0  0  0  0  0  0  0
  1  2  1  0
  2  3  1  0
  3  4  2  0
  4  5  1  0
  5  6  1  0
  5  7  2  0
  7  8  1  0
  8  9  2  0
  9 10  1  0
 10 11  1  0
 11 12  2  0
 11 13  2  0
 11 14  1  0
 14 15  2  0
 15 16  1  0
 16 17  2  0
 17 18  1  0
 18 19  2  0
 19 20  1  0
 20 21  2  0
 21 22  1  0
 22 23  2  0
  9  3  1  0
 23 14  1  0
 23 18  1  0
  1 24  1  0
  1 25  1  0
  1 26  1  0
  7 27  1  0
 10 28  1  0
 15 29  1  0
 16 30  1  0
 17 31  1  0
 19 32  1  0
 20 33  1  0
 21 34  1  0
 22 35  1  0
M  END
$$$$
