
     RDKit          3D

 67 68  0  0  0  0  0  0  0  0999 V2000
    9.8499   -1.0983   -1.4169 C   0  0  0  0  0  0  0  0  0  0  0  0
    8.5928   -0.9611   -0.7666 O   0  0  0  0  0  0  0  0  0  0  0  0
    8.1089   -1.9094    0.1404 C   0  0  0  0  0  0  0  0  0  0  0  0
    8.7996   -2.9210    0.4405 O   0  0  0  0  0  0  0  0  0  0  0  0
    6.7513   -1.7265    0.7483 C   0  0  0  0  0  0  0  0  0  0  0  0
    5.7108   -2.6266    0.0685 C   0  0  0  0  0  0  0  0  0  0  0  0
    5.4269   -2.2018   -1.3520 C   0  0  0  0  0  0  0  0  0  0  0  0
    4.5448   -1.2477   -1.7047 C   0  0  0  0  0  0  0  0  0  0  0  0
    3.7250   -0.4542   -0.7153 C   0  0  0  0  0  0  0  0  0  0  0  0
    2.6662    0.3975   -1.4313 C   0  0  0  0  0  0  0  0  0  0  0  0
    1.8350    1.2480   -0.4422 C   0  0  1  0  0  0  0  0  0  0  0  0
    2.4903    2.5528   -0.1171 C   0  0  0  0  0  0  0  0  0  0  0  0
    3.6369    2.6430    0.2929 O   0  0  0  0  0  0  0  0  0  0  0  0
    1.6127    3.7393   -0.2930 C   0  0  0  0  0  0  0  0  0  0  0  0
    0.2318    3.1312   -0.5653 C   0  0  1  0  0  0  0  0  0  0  0  0
   -0.5069    3.8824   -1.4986 O   0  0  0  0  0  0  0  0  0  0  0  0
    0.4859    1.6865   -1.0540 C   0  0  2  0  0  0  0  0  0  0  0  0
   -0.6500    0.7395   -0.7317 C   0  0  0  0  0  0  0  0  0  0  0  0
   -1.0425    0.4693    0.5236 C   0  0  0  0  0  0  0  0  0  0  0  0
   -2.1803   -0.4741    0.8174 C   0  0  0  0  0  0  0  0  0  0  0  0
   -3.5521    0.2391    0.9960 C   0  0  0  0  0  0  0  0  0  0  0  0
   -3.9822    0.9349   -0.3183 C   0  0  0  0  0  0  0  0  0  0  0  0
   -3.4652    1.1735    2.0488 O   0  0  0  0  0  0  0  0  0  0  0  0
   -4.6018   -0.8359    1.3865 C   0  0  0  0  0  0  0  0  0  0  0  0
   -6.0005   -0.2722    1.7410 C   0  0  0  0  0  0  0  0  0  0  0  0
   -7.0585   -0.6419    0.6832 C   0  0  0  0  0  0  0  0  0  0  0  0
   -8.4785   -0.2270    1.0695 C   0  0  0  0  0  0  0  0  0  0  0  0
   -8.8964   -1.6919    1.1122 C   0  0  0  0  0  0  0  0  0  0  0  0
   -7.4859   -2.1113    0.7233 C   0  0  0  0  0  0  0  0  0  0  0  0
    9.8515   -2.0137   -2.0449 H   0  0  0  0  0  0  0  0  0  0  0  0
   10.0244   -0.2162   -2.0672 H   0  0  0  0  0  0  0  0  0  0  0  0
   10.6658   -1.1588   -0.6639 H   0  0  0  0  0  0  0  0  0  0  0  0
    6.8023   -1.9925    1.8250 H   0  0  0  0  0  0  0  0  0  0  0  0
    6.4491   -0.6603    0.6821 H   0  0  0  0  0  0  0  0  0  0  0  0
    6.0918   -3.6723    0.0541 H   0  0  0  0  0  0  0  0  0  0  0  0
    4.7761   -2.6492    0.6658 H   0  0  0  0  0  0  0  0  0  0  0  0
    5.9406   -2.7384   -2.1453 H   0  0  0  0  0  0  0  0  0  0  0  0
    4.4014   -1.0653   -2.7682 H   0  0  0  0  0  0  0  0  0  0  0  0
    4.4001    0.1982   -0.1262 H   0  0  0  0  0  0  0  0  0  0  0  0
    3.2005   -1.1490   -0.0265 H   0  0  0  0  0  0  0  0  0  0  0  0
    3.1506    1.0554   -2.1890 H   0  0  0  0  0  0  0  0  0  0  0  0
    1.9850   -0.2983   -1.9724 H   0  0  0  0  0  0  0  0  0  0  0  0
    1.6795    0.6903    0.5091 H   0  0  0  0  0  0  0  0  0  0  0  0
    1.5982    4.3553    0.6328 H   0  0  0  0  0  0  0  0  0  0  0  0
    1.9831    4.3458   -1.1460 H   0  0  0  0  0  0  0  0  0  0  0  0
   -0.3300    3.1215    0.3962 H   0  0  0  0  0  0  0  0  0  0  0  0
    0.0287    3.9525   -2.3314 H   0  0  0  0  0  0  0  0  0  0  0  0
    0.5904    1.7164   -2.1641 H   0  0  0  0  0  0  0  0  0  0  0  0
   -1.1517    0.2503   -1.5625 H   0  0  0  0  0  0  0  0  0  0  0  0
   -0.5545    0.9555    1.3642 H   0  0  0  0  0  0  0  0  0  0  0  0
   -1.9202   -1.0064    1.7617 H   0  0  0  0  0  0  0  0  0  0  0  0
   -2.2464   -1.2511    0.0229 H   0  0  0  0  0  0  0  0  0  0  0  0
   -4.0699    0.1923   -1.1400 H   0  0  0  0  0  0  0  0  0  0  0  0
   -3.2461    1.7103   -0.6170 H   0  0  0  0  0  0  0  0  0  0  0  0
   -4.9582    1.4495   -0.1982 H   0  0  0  0  0  0  0  0  0  0  0  0
   -2.9200    1.9442    1.7420 H   0  0  0  0  0  0  0  0  0  0  0  0
   -4.2273   -1.3868    2.2773 H   0  0  0  0  0  0  0  0  0  0  0  0
   -4.6782   -1.5923    0.5724 H   0  0  0  0  0  0  0  0  0  0  0  0
   -5.9737    0.8330    1.8469 H   0  0  0  0  0  0  0  0  0  0  0  0
   -6.3110   -0.6705    2.7317 H   0  0  0  0  0  0  0  0  0  0  0  0
   -6.7871   -0.3031   -0.3406 H   0  0  0  0  0  0  0  0  0  0  0  0
   -8.5562    0.2638    2.0646 H   0  0  0  0  0  0  0  0  0  0  0  0
   -8.9956    0.3320    0.2579 H   0  0  0  0  0  0  0  0  0  0  0  0
   -9.1698   -2.0295    2.1349 H   0  0  0  0  0  0  0  0  0  0  0  0
   -9.6514   -1.9437    0.3356 H   0  0  0  0  0  0  0  0  0  0  0  0
   -7.4503   -2.5930   -0.2777 H   0  0  0  0  0  0  0  0  0  0  0  0
   -6.9893   -2.7094    1.5191 H   0  0  0  0  0  0  0  0  0  0  0  0
  1  2  1  0
  2  3  1  0
  3  4  2  0
  3  5  1  0
  5  6  1  0
  6  7  1  0
  7  8  2  0
  8  9  1  0
  9 10  1  0
 10 11  1  0
 11 12  1  0
 12 13  2  0
 12 14  1  0
 14 15  1  0
 15 16  1  0
 15 17  1  0
 17 18  1  0
 18 19  2  0
 19 20  1  0
 20 21  1  0
 21 22  1  0
 21 23  1  0
 21 24  1  0
 24 25  1  0
 25 26  1  0
 26 27  1  0
 27 28  1  0
 28 29  1  0
 17 11  1  0
 29 26  1  0
  1 30  1  0
  1 31  1  0
  1 32  1  0
  5 33  1  0
  5 34  1  0
  6 35  1  0
  6 36  1  0
  7 37  1  0
  8 38  1  0
  9 39  1  0
  9 40  1  0
 10 41  1  0
 10 42  1  0
 11 43  1  1
 14 44  1  0
 14 45  1  0
 15 46  1  1
 16 47  1  0
 17 48  1  6
 18 49  1  0
 19 50  1  0
 20 51  1  0
 20 52  1  0
 22 53  1  0
 22 54  1  0
 22 55  1  0
 23 56  1  0
 24 57  1  0
 24 58  1  0
 25 59  1  0
 25 60  1  0
 26 61  1  0
 27 62  1  0
 27 63  1  0
 28 64  1  0
 28 65  1  0
 29 66  1  0
 29 67  1  0
M  END
$$$$
