
     RDKit          3D

 45 47  0  0  0  0  0  0  0  0999 V2000
    6.2604    2.0317    0.5573 C   0  0  0  0  0  0  0  0  0  0  0  0
    5.7275    0.8577   -0.0406 O   0  0  0  0  0  0  0  0  0  0  0  0
    4.6610    0.8911   -0.9430 C   0  0  0  0  0  0  0  0  0  0  0  0
    4.2027    1.9882   -1.3646 O   0  0  0  0  0  0  0  0  0  0  0  0
    4.1087   -0.3722   -1.4396 C   0  0  0  0  0  0  0  0  0  0  0  0
    4.7757   -0.9862   -2.5111 C   0  0  0  0  0  0  0  0  0  0  0  0
    4.3857   -2.2460   -2.9648 C   0  0  0  0  0  0  0  0  0  0  0  0
    3.3325   -2.9129   -2.3451 C   0  0  0  0  0  0  0  0  0  0  0  0
    2.6606   -2.3181   -1.2761 C   0  0  0  0  0  0  0  0  0  0  0  0
    3.0228   -1.0458   -0.8133 C   0  0  0  0  0  0  0  0  0  0  0  0
    2.2748   -0.5366    0.2662 O   0  0  0  0  0  0  0  0  0  0  0  0
    2.1387    0.8364    0.6271 C   0  0  0  0  0  0  0  0  0  0  0  0
    0.9477    1.0037    1.5716 C   0  0  0  0  0  0  0  0  0  0  0  0
   -0.3661    0.6422    0.8804 C   0  0  0  0  0  0  0  0  0  0  0  0
   -1.4538    0.8320    1.7836 O   0  0  0  0  0  0  0  0  0  0  0  0
   -2.7902    0.5175    1.4902 C   0  0  0  0  0  0  0  0  0  0  0  0
   -3.1729   -0.0381    0.2468 C   0  0  0  0  0  0  0  0  0  0  0  0
   -4.5160   -0.3371    0.0364 C   0  0  0  0  0  0  0  0  0  0  0  0
   -5.4621   -0.1085    0.9908 C   0  0  0  0  0  0  0  0  0  0  0  0
   -5.1267    0.4480    2.2242 C   0  0  0  0  0  0  0  0  0  0  0  0
   -3.7759    0.7641    2.4743 C   0  0  0  0  0  0  0  0  0  0  0  0
   -3.4032    1.3204    3.6965 O   0  0  0  0  0  0  0  0  0  0  0  0
   -6.7969   -0.5339    0.4958 C   0  0  0  0  0  0  0  0  0  0  0  0
   -6.4742   -1.0616   -0.9271 C   0  0  0  0  0  0  0  0  0  0  0  0
   -5.0686   -0.8849   -1.1003 O   0  0  0  0  0  0  0  0  0  0  0  0
    6.5927    2.7490   -0.2249 H   0  0  0  0  0  0  0  0  0  0  0  0
    5.4912    2.5097    1.2022 H   0  0  0  0  0  0  0  0  0  0  0  0
    7.1293    1.7519    1.1871 H   0  0  0  0  0  0  0  0  0  0  0  0
    5.6150   -0.4947   -2.9875 H   0  0  0  0  0  0  0  0  0  0  0  0
    4.9102   -2.7117   -3.7891 H   0  0  0  0  0  0  0  0  0  0  0  0
    3.0371   -3.8943   -2.6920 H   0  0  0  0  0  0  0  0  0  0  0  0
    1.8439   -2.8477   -0.8044 H   0  0  0  0  0  0  0  0  0  0  0  0
    3.0565    1.1786    1.1511 H   0  0  0  0  0  0  0  0  0  0  0  0
    1.9649    1.4565   -0.2800 H   0  0  0  0  0  0  0  0  0  0  0  0
    1.0888    0.3545    2.4642 H   0  0  0  0  0  0  0  0  0  0  0  0
    0.9016    2.0603    1.9162 H   0  0  0  0  0  0  0  0  0  0  0  0
   -0.3310   -0.4196    0.5650 H   0  0  0  0  0  0  0  0  0  0  0  0
   -0.5097    1.2887   -0.0101 H   0  0  0  0  0  0  0  0  0  0  0  0
   -2.4565   -0.2317   -0.5383 H   0  0  0  0  0  0  0  0  0  0  0  0
   -5.8921    0.6241    2.9744 H   0  0  0  0  0  0  0  0  0  0  0  0
   -4.0824    1.5001    4.4235 H   0  0  0  0  0  0  0  0  0  0  0  0
   -7.4894    0.3353    0.4536 H   0  0  0  0  0  0  0  0  0  0  0  0
   -7.2110   -1.3406    1.1418 H   0  0  0  0  0  0  0  0  0  0  0  0
   -6.7269   -2.1410   -1.0163 H   0  0  0  0  0  0  0  0  0  0  0  0
   -7.0244   -0.4780   -1.6997 H   0  0  0  0  0  0  0  0  0  0  0  0
  1  2  1  0
  2  3  1  0
  3  4  2  0
  3  5  1  0
  5  6  2  0
  6  7  1  0
  7  8  2  0
  8  9  1  0
  9 10  2  0
 10 11  1  0
 11 12  1  0
 12 13  1  0
 13 14  1  0
 14 15  1  0
 15 16  1  0
 16 17  2  0
 17 18  1  0
 18 19  2  0
 19 20  1  0
 20 21  2  0
 21 22  1  0
 19 23  1  0
 23 24  1  0
 24 25  1  0
 10  5  1  0
 21 16  1  0
 25 18  1  0
  1 26  1  0
  1 27  1  0
  1 28  1  0
  6 29  1  0
  7 30  1  0
  8 31  1  0
  9 32  1  0
 12 33  1  0
 12 34  1  0
 13 35  1  0
 13 36  1  0
 14 37  1  0
 14 38  1  0
 17 39  1  0
 20 40  1  0
 22 41  1  0
 23 42  1  0
 23 43  1  0
 24 44  1  0
 24 45  1  0
M  END
$$$$
