
     RDKit          3D

 49 50  0  0  0  0  0  0  0  0999 V2000
    4.5382   -3.7546   -0.7762 C   0  0  0  0  0  0  0  0  0  0  0  0
    5.0502   -2.3485   -1.0769 C   0  0  0  0  0  0  0  0  0  0  0  0
    3.9183   -1.4017   -1.3529 C   0  0  0  0  0  0  0  0  0  0  0  0
    3.0986   -0.9902   -0.3793 C   0  0  0  0  0  0  0  0  0  0  0  0
    1.9886   -0.0566   -0.6234 C   0  0  0  0  0  0  0  0  0  0  0  0
    1.7718    0.3993   -1.7804 O   0  0  0  0  0  0  0  0  0  0  0  0
    1.1735    0.3160    0.4507 O   0  0  0  0  0  0  0  0  0  0  0  0
    0.0447    1.1822    0.3164 C   0  0  2  0  0  0  0  0  0  0  0  0
   -0.4594    1.5909    1.7082 C   0  0  0  0  0  0  0  0  0  0  0  0
    0.5875    2.3816    2.4547 C   0  0  0  0  0  0  0  0  0  0  0  0
    0.7324    3.7230    2.3760 C   0  0  0  0  0  0  0  0  0  0  0  0
   -0.2030    4.5832    1.5587 C   0  0  0  0  0  0  0  0  0  0  0  0
    1.8547    4.3702    3.1457 C   0  0  0  0  0  0  0  0  0  0  0  0
   -1.0670    0.4952   -0.4587 C   0  0  0  0  0  0  0  0  0  0  0  0
   -1.7154    1.1696   -1.4178 C   0  0  0  0  0  0  0  0  0  0  0  0
   -2.7955    0.5526   -2.2014 C   0  0  0  0  0  0  0  0  0  0  0  0
   -3.2049    1.1596   -3.2252 O   0  0  0  0  0  0  0  0  0  0  0  0
   -3.3224   -0.7905   -1.8290 C   0  0  0  0  0  0  0  0  0  0  0  0
   -4.4738   -1.3631   -2.4369 C   0  0  0  0  0  0  0  0  0  0  0  0
   -5.3253   -0.6544   -3.2880 O   0  0  0  0  0  0  0  0  0  0  0  0
   -4.8147   -2.6886   -2.1627 C   0  0  0  0  0  0  0  0  0  0  0  0
   -4.0825   -3.4372   -1.2487 C   0  0  0  0  0  0  0  0  0  0  0  0
   -2.9948   -2.8713   -0.5792 C   0  0  0  0  0  0  0  0  0  0  0  0
   -2.2998   -3.6386    0.3563 O   0  0  0  0  0  0  0  0  0  0  0  0
   -2.6085   -1.5392   -0.8574 C   0  0  0  0  0  0  0  0  0  0  0  0
   -1.4652   -0.9009   -0.1437 C   0  0  0  0  0  0  0  0  0  0  0  0
   -0.8347   -1.5356    0.7447 O   0  0  0  0  0  0  0  0  0  0  0  0
    3.9170   -3.7553    0.1446 H   0  0  0  0  0  0  0  0  0  0  0  0
    5.3998   -4.4374   -0.6204 H   0  0  0  0  0  0  0  0  0  0  0  0
    3.9331   -4.1340   -1.6272 H   0  0  0  0  0  0  0  0  0  0  0  0
    5.7090   -2.3931   -1.9706 H   0  0  0  0  0  0  0  0  0  0  0  0
    5.6561   -1.9761   -0.2224 H   0  0  0  0  0  0  0  0  0  0  0  0
    3.7953   -1.0332   -2.3645 H   0  0  0  0  0  0  0  0  0  0  0  0
    3.2449   -1.3511    0.6317 H   0  0  0  0  0  0  0  0  0  0  0  0
    0.3760    2.0999   -0.2193 H   0  0  0  0  0  0  0  0  0  0  0  0
   -1.4061    2.1662    1.6265 H   0  0  0  0  0  0  0  0  0  0  0  0
   -0.6888    0.6778    2.2986 H   0  0  0  0  0  0  0  0  0  0  0  0
    1.2814    1.8136    3.0699 H   0  0  0  0  0  0  0  0  0  0  0  0
   -0.1916    4.2663    0.4961 H   0  0  0  0  0  0  0  0  0  0  0  0
   -1.2357    4.5042    1.9580 H   0  0  0  0  0  0  0  0  0  0  0  0
    0.0924    5.6522    1.5947 H   0  0  0  0  0  0  0  0  0  0  0  0
    2.8292    3.9677    2.7966 H   0  0  0  0  0  0  0  0  0  0  0  0
    1.7401    4.1548    4.2293 H   0  0  0  0  0  0  0  0  0  0  0  0
    1.8653    5.4717    3.0104 H   0  0  0  0  0  0  0  0  0  0  0  0
   -1.4287    2.1874   -1.6566 H   0  0  0  0  0  0  0  0  0  0  0  0
   -5.3621    0.3532   -3.3391 H   0  0  0  0  0  0  0  0  0  0  0  0
   -5.6775   -3.1337   -2.6424 H   0  0  0  0  0  0  0  0  0  0  0  0
   -4.3770   -4.4587   -1.0433 H   0  0  0  0  0  0  0  0  0  0  0  0
   -2.5639   -4.5946    0.5650 H   0  0  0  0  0  0  0  0  0  0  0  0
  1  2  1  0
  2  3  1  0
  3  4  2  0
  4  5  1  0
  5  6  2  0
  5  7  1  0
  7  8  1  0
  8  9  1  0
  9 10  1  0
 10 11  2  3
 11 12  1  0
 11 13  1  0
  8 14  1  0
 14 15  2  0
 15 16  1  0
 16 17  2  0
 16 18  1  0
 18 19  2  0
 19 20  1  0
 19 21  1  0
 21 22  2  0
 22 23  1  0
 23 24  1  0
 23 25  2  0
 25 26  1  0
 26 27  2  0
 26 14  1  0
 25 18  1  0
  1 28  1  0
  1 29  1  0
  1 30  1  0
  2 31  1  0
  2 32  1  0
  3 33  1  0
  4 34  1  0
  8 35  1  6
  9 36  1  0
  9 37  1  0
 10 38  1  0
 12 39  1  0
 12 40  1  0
 12 41  1  0
 13 42  1  0
 13 43  1  0
 13 44  1  0
 15 45  1  0
 20 46  1  0
 21 47  1  0
 22 48  1  0
 24 49  1  0
M  END
$$$$
