
     RDKit          3D

 44 47  0  0  0  0  0  0  0  0999 V2000
   -4.7873    1.0959   -0.6732 C   0  0  0  0  0  0  0  0  0  0  0  0
   -3.5642    1.8895   -0.4611 N   0  0  0  0  0  0  0  0  0  0  0  0
   -3.0679    1.7376    0.9247 C   0  0  0  0  0  0  0  0  0  0  0  0
   -2.3694    0.4217    1.1004 C   0  0  0  0  0  0  0  0  0  0  0  0
   -1.5095    0.0235    0.1598 C   0  0  0  0  0  0  0  0  0  0  0  0
   -0.7961   -1.2727    0.2742 C   0  0  0  0  0  0  0  0  0  0  0  0
   -1.5202   -2.4711    0.4157 C   0  0  0  0  0  0  0  0  0  0  0  0
   -2.9154   -2.4501    0.4360 O   0  0  0  0  0  0  0  0  0  0  0  0
   -0.8433   -3.6909    0.5188 C   0  0  0  0  0  0  0  0  0  0  0  0
    0.5547   -3.7433    0.4731 C   0  0  0  0  0  0  0  0  0  0  0  0
    1.1951   -4.9790    0.5756 O   0  0  0  0  0  0  0  0  0  0  0  0
    1.2966   -2.5502    0.3238 C   0  0  0  0  0  0  0  0  0  0  0  0
    2.7059   -2.5248    0.2768 C   0  0  0  0  0  0  0  0  0  0  0  0
    3.3856   -3.5830    0.3650 O   0  0  0  0  0  0  0  0  0  0  0  0
    3.3699   -1.3066    0.1355 C   0  0  0  0  0  0  0  0  0  0  0  0
    2.6239   -0.1222    0.0411 C   0  0  0  0  0  0  0  0  0  0  0  0
    3.2706    1.2059   -0.1070 C   0  0  0  0  0  0  0  0  0  0  0  0
    4.5374    1.3543   -0.7021 C   0  0  0  0  0  0  0  0  0  0  0  0
    5.0964    2.6282   -0.8311 C   0  0  0  0  0  0  0  0  0  0  0  0
    4.4178    3.7202   -0.3918 N   0  0  0  0  0  0  0  0  0  0  0  0
    3.1890    3.6121    0.1774 C   0  0  0  0  0  0  0  0  0  0  0  0
    2.5924    2.3581    0.3257 C   0  0  0  0  0  0  0  0  0  0  0  0
    1.2967   -0.1806    0.0978 O   0  0  0  0  0  0  0  0  0  0  0  0
    0.6115   -1.3143    0.2258 C   0  0  0  0  0  0  0  0  0  0  0  0
   -1.2347    0.9600   -0.9871 C   0  0  0  0  0  0  0  0  0  0  0  0
   -2.5397    1.6064   -1.5100 C   0  0  0  0  0  0  0  0  0  0  0  0
   -4.5748    0.0065   -0.5990 H   0  0  0  0  0  0  0  0  0  0  0  0
   -5.2131    1.3153   -1.6759 H   0  0  0  0  0  0  0  0  0  0  0  0
   -5.5621    1.3691    0.0750 H   0  0  0  0  0  0  0  0  0  0  0  0
   -3.8951    1.8316    1.6620 H   0  0  0  0  0  0  0  0  0  0  0  0
   -2.3492    2.5573    1.1416 H   0  0  0  0  0  0  0  0  0  0  0  0
   -2.5977   -0.2025    1.9560 H   0  0  0  0  0  0  0  0  0  0  0  0
   -3.4596   -3.2995    0.5315 H   0  0  0  0  0  0  0  0  0  0  0  0
   -1.4094   -4.6075    0.6280 H   0  0  0  0  0  0  0  0  0  0  0  0
    0.6751   -5.8422    0.6829 H   0  0  0  0  0  0  0  0  0  0  0  0
    4.4521   -1.2913    0.1287 H   0  0  0  0  0  0  0  0  0  0  0  0
    5.0841    0.5051   -1.0886 H   0  0  0  0  0  0  0  0  0  0  0  0
    6.0692    2.7492   -1.2888 H   0  0  0  0  0  0  0  0  0  0  0  0
    2.6735    4.5010    0.5157 H   0  0  0  0  0  0  0  0  0  0  0  0
    1.6142    2.2896    0.7858 H   0  0  0  0  0  0  0  0  0  0  0  0
   -0.5461    1.7586   -0.6352 H   0  0  0  0  0  0  0  0  0  0  0  0
   -0.7322    0.4204   -1.8193 H   0  0  0  0  0  0  0  0  0  0  0  0
   -2.9472    0.9503   -2.3132 H   0  0  0  0  0  0  0  0  0  0  0  0
   -2.2779    2.5646   -2.0068 H   0  0  0  0  0  0  0  0  0  0  0  0
  1  2  1  0
  2  3  1  0
  3  4  1  0
  4  5  2  0
  5  6  1  0
  6  7  2  0
  7  8  1  0
  7  9  1  0
  9 10  2  0
 10 11  1  0
 10 12  1  0
 12 13  1  0
 13 14  2  0
 13 15  1  0
 15 16  2  0
 16 17  1  0
 17 18  2  0
 18 19  1  0
 19 20  2  0
 20 21  1  0
 21 22  2  0
 16 23  1  0
 23 24  1  0
  5 25  1  0
 25 26  1  0
 26  2  1  0
 24  6  1  0
 24 12  2  0
 22 17  1  0
  1 27  1  0
  1 28  1  0
  1 29  1  0
  3 30  1  0
  3 31  1  0
  4 32  1  0
  8 33  1  0
  9 34  1  0
 11 35  1  0
 15 36  1  0
 18 37  1  0
 19 38  1  0
 21 39  1  0
 22 40  1  0
 25 41  1  0
 25 42  1  0
 26 43  1  0
 26 44  1  0
M  END
$$$$
