
     RDKit          3D

 64 65  0  0  0  0  0  0  0  0999 V2000
    9.7517    0.4885    1.0879 C   0  0  0  0  0  0  0  0  0  0  0  0
    8.7386   -0.0428    0.2428 O   0  0  0  0  0  0  0  0  0  0  0  0
    8.1323    0.7074   -0.7692 C   0  0  0  0  0  0  0  0  0  0  0  0
    8.4767    1.9039   -0.9790 O   0  0  0  0  0  0  0  0  0  0  0  0
    7.0334    0.0966   -1.5837 C   0  0  0  0  0  0  0  0  0  0  0  0
    5.6525    0.5528   -1.1015 C   0  0  0  0  0  0  0  0  0  0  0  0
    5.3433    0.0062    0.2740 C   0  0  0  0  0  0  0  0  0  0  0  0
    4.4391   -0.9554    0.5404 C   0  0  0  0  0  0  0  0  0  0  0  0
    3.5425   -1.6057   -0.4845 C   0  0  0  0  0  0  0  0  0  0  0  0
    2.4013   -0.6771   -0.9501 C   0  0  0  0  0  0  0  0  0  0  0  0
    1.1097   -0.7905   -0.1052 C   0  0  1  0  0  0  0  0  0  0  0  0
    1.2893   -0.2221    1.2627 C   0  0  0  0  0  0  0  0  0  0  0  0
    1.8824   -0.8067    2.1557 O   0  0  0  0  0  0  0  0  0  0  0  0
    0.5901    1.0666    1.4860 C   0  0  0  0  0  0  0  0  0  0  0  0
   -0.0569    1.3906    0.1346 C   0  0  1  0  0  0  0  0  0  0  0  0
    0.6840    2.3841   -0.5280 O   0  0  0  0  0  0  0  0  0  0  0  0
   -0.0195    0.0863   -0.6980 C   0  0  2  0  0  0  0  0  0  0  0  0
   -1.3623   -0.6203   -0.6901 C   0  0  0  0  0  0  0  0  0  0  0  0
   -1.9379   -1.0846    0.4323 C   0  0  0  0  0  0  0  0  0  0  0  0
   -3.3094   -1.7106    0.4228 C   0  0  0  0  0  0  0  0  0  0  0  0
   -4.4592   -0.6620    0.3939 C   0  0  0  0  0  0  0  0  0  0  0  0
   -4.3876    0.2185    1.6592 C   0  0  0  0  0  0  0  0  0  0  0  0
   -4.3167    0.1703   -0.7321 O   0  0  0  0  0  0  0  0  0  0  0  0
   -5.8194   -1.4250    0.3378 C   0  0  0  0  0  0  0  0  0  0  0  0
   -7.0859   -0.5490    0.2764 C   0  0  0  0  0  0  0  0  0  0  0  0
   -7.2271    0.1788   -1.0688 C   0  0  0  0  0  0  0  0  0  0  0  0
   -8.3902    1.1591   -1.1194 C   0  0  0  0  0  0  0  0  0  0  0  0
   -6.9637    1.6786   -1.0638 C   0  0  0  0  0  0  0  0  0  0  0  0
    9.3412    1.3303    1.6879 H   0  0  0  0  0  0  0  0  0  0  0  0
   10.6106    0.8439    0.4777 H   0  0  0  0  0  0  0  0  0  0  0  0
   10.1050   -0.3068    1.7778 H   0  0  0  0  0  0  0  0  0  0  0  0
    7.1019   -1.0125   -1.5385 H   0  0  0  0  0  0  0  0  0  0  0  0
    7.1640    0.3977   -2.6456 H   0  0  0  0  0  0  0  0  0  0  0  0
    4.9033    0.2383   -1.8549 H   0  0  0  0  0  0  0  0  0  0  0  0
    5.6166    1.6627   -1.0604 H   0  0  0  0  0  0  0  0  0  0  0  0
    5.9379    0.3815    1.1024 H   0  0  0  0  0  0  0  0  0  0  0  0
    4.3745   -1.3162    1.5628 H   0  0  0  0  0  0  0  0  0  0  0  0
    4.1566   -1.9196   -1.3564 H   0  0  0  0  0  0  0  0  0  0  0  0
    3.1174   -2.5377   -0.0539 H   0  0  0  0  0  0  0  0  0  0  0  0
    2.1513   -0.9684   -1.9937 H   0  0  0  0  0  0  0  0  0  0  0  0
    2.7360    0.3830   -0.9833 H   0  0  0  0  0  0  0  0  0  0  0  0
    0.7970   -1.8576   -0.0411 H   0  0  0  0  0  0  0  0  0  0  0  0
    1.3121    1.8499    1.8028 H   0  0  0  0  0  0  0  0  0  0  0  0
   -0.1879    0.9391    2.2686 H   0  0  0  0  0  0  0  0  0  0  0  0
   -1.1050    1.7458    0.2799 H   0  0  0  0  0  0  0  0  0  0  0  0
    0.4795    3.2440   -0.0742 H   0  0  0  0  0  0  0  0  0  0  0  0
    0.1913    0.3377   -1.7629 H   0  0  0  0  0  0  0  0  0  0  0  0
   -1.8839   -0.7249   -1.6371 H   0  0  0  0  0  0  0  0  0  0  0  0
   -1.4183   -1.0157    1.3818 H   0  0  0  0  0  0  0  0  0  0  0  0
   -3.3887   -2.3979   -0.4482 H   0  0  0  0  0  0  0  0  0  0  0  0
   -3.4095   -2.3379    1.3357 H   0  0  0  0  0  0  0  0  0  0  0  0
   -4.5724   -0.3863    2.5728 H   0  0  0  0  0  0  0  0  0  0  0  0
   -3.3918    0.7001    1.7520 H   0  0  0  0  0  0  0  0  0  0  0  0
   -5.1284    1.0419    1.6159 H   0  0  0  0  0  0  0  0  0  0  0  0
   -4.3743   -0.4015   -1.5422 H   0  0  0  0  0  0  0  0  0  0  0  0
   -5.9027   -2.0741    1.2378 H   0  0  0  0  0  0  0  0  0  0  0  0
   -5.8242   -2.1088   -0.5403 H   0  0  0  0  0  0  0  0  0  0  0  0
   -7.1326    0.1457    1.1408 H   0  0  0  0  0  0  0  0  0  0  0  0
   -7.9635   -1.2238    0.3771 H   0  0  0  0  0  0  0  0  0  0  0  0
   -7.0538   -0.3625   -2.0242 H   0  0  0  0  0  0  0  0  0  0  0  0
   -8.9555    1.3066   -0.1738 H   0  0  0  0  0  0  0  0  0  0  0  0
   -8.8642    1.2645   -2.1186 H   0  0  0  0  0  0  0  0  0  0  0  0
   -6.6826    2.1265   -0.0869 H   0  0  0  0  0  0  0  0  0  0  0  0
   -6.5882    2.0768   -2.0302 H   0  0  0  0  0  0  0  0  0  0  0  0
  1  2  1  0
  2  3  1  0
  3  4  2  0
  3  5  1  0
  5  6  1  0
  6  7  1  0
  7  8  2  0
  8  9  1  0
  9 10  1  0
 10 11  1  0
 11 12  1  0
 12 13  2  0
 12 14  1  0
 14 15  1  0
 15 16  1  0
 15 17  1  0
 17 18  1  0
 18 19  2  0
 19 20  1  0
 20 21  1  0
 21 22  1  0
 21 23  1  0
 21 24  1  0
 24 25  1  0
 25 26  1  0
 26 27  1  0
 27 28  1  0
 17 11  1  0
 28 26  1  0
  1 29  1  0
  1 30  1  0
  1 31  1  0
  5 32  1  0
  5 33  1  0
  6 34  1  0
  6 35  1  0
  7 36  1  0
  8 37  1  0
  9 38  1  0
  9 39  1  0
 10 40  1  0
 10 41  1  0
 11 42  1  1
 14 43  1  0
 14 44  1  0
 15 45  1  1
 16 46  1  0
 17 47  1  6
 18 48  1  0
 19 49  1  0
 20 50  1  0
 20 51  1  0
 22 52  1  0
 22 53  1  0
 22 54  1  0
 23 55  1  0
 24 56  1  0
 24 57  1  0
 25 58  1  0
 25 59  1  0
 26 60  1  0
 27 61  1  0
 27 62  1  0
 28 63  1  0
 28 64  1  0
M  END
$$$$
