
     RDKit          3D

 43 45  0  0  0  0  0  0  0  0999 V2000
    6.4537    2.5046   -0.1840 C   0  0  0  0  0  0  0  0  0  0  0  0
    5.2468    1.8443   -0.5457 O   0  0  0  0  0  0  0  0  0  0  0  0
    4.7323    0.7594    0.1724 C   0  0  0  0  0  0  0  0  0  0  0  0
    5.3840    0.2829    1.2697 N   0  0  0  0  0  0  0  0  0  0  0  0
    4.9006   -0.7672    1.9820 C   0  0  0  0  0  0  0  0  0  0  0  0
    5.8489   -1.3975    3.5118 Br  0  0  0  0  0  0  0  0  0  0  0  0
    3.7093   -1.3740    1.5841 C   0  0  0  0  0  0  0  0  0  0  0  0
    3.0552   -0.9036    0.4912 N   0  0  0  0  0  0  0  0  0  0  0  0
    3.5333    0.1477   -0.2305 C   0  0  0  0  0  0  0  0  0  0  0  0
    2.8093    0.6282   -1.3726 N   0  0  0  0  0  0  0  0  0  0  0  0
    1.3359   -0.1164   -1.9056 S   0  0  0  0  0  6  0  0  0  0  0  0
    1.5588   -1.6000   -2.0056 O   0  0  0  0  0  0  0  0  0  0  0  0
    0.9920    0.4240   -3.2651 O   0  0  0  0  0  0  0  0  0  0  0  0
    0.0004    0.2292   -0.7881 C   0  0  0  0  0  0  0  0  0  0  0  0
    0.2293    1.1267    0.2658 C   0  0  0  0  0  0  0  0  0  0  0  0
   -0.7728    1.4189    1.1860 C   0  0  0  0  0  0  0  0  0  0  0  0
   -2.0255    0.8240    1.0749 C   0  0  0  0  0  0  0  0  0  0  0  0
   -2.3000   -0.0743    0.0282 C   0  0  0  0  0  0  0  0  0  0  0  0
   -3.5769   -0.6728   -0.0942 C   0  0  0  0  0  0  0  0  0  0  0  0
   -4.6095   -0.4248    0.8752 N   0  0  0  0  0  0  0  0  0  0  0  0
   -4.5818   -1.1634    2.1366 C   0  0  0  0  0  0  0  0  0  0  0  0
   -5.8725    0.1675    0.4381 C   0  0  0  0  0  0  0  0  0  0  0  0
   -3.8412   -1.5311   -1.1682 C   0  0  0  0  0  0  0  0  0  0  0  0
   -2.8568   -1.8048   -2.1127 C   0  0  0  0  0  0  0  0  0  0  0  0
   -1.5909   -1.2325   -1.9984 C   0  0  0  0  0  0  0  0  0  0  0  0
   -1.2838   -0.3658   -0.9283 C   0  0  0  0  0  0  0  0  0  0  0  0
    6.6485    3.3269   -0.9025 H   0  0  0  0  0  0  0  0  0  0  0  0
    7.3029    1.7895   -0.2167 H   0  0  0  0  0  0  0  0  0  0  0  0
    6.3618    2.9327    0.8366 H   0  0  0  0  0  0  0  0  0  0  0  0
    3.3045   -2.2111    2.1369 H   0  0  0  0  0  0  0  0  0  0  0  0
    3.1610    1.4502   -1.9118 H   0  0  0  0  0  0  0  0  0  0  0  0
    1.1876    1.6131    0.3820 H   0  0  0  0  0  0  0  0  0  0  0  0
   -0.5768    2.1141    1.9924 H   0  0  0  0  0  0  0  0  0  0  0  0
   -2.7802    1.0823    1.8067 H   0  0  0  0  0  0  0  0  0  0  0  0
   -5.1465   -2.1129    2.0257 H   0  0  0  0  0  0  0  0  0  0  0  0
   -3.5366   -1.3986    2.4317 H   0  0  0  0  0  0  0  0  0  0  0  0
   -5.0417   -0.5553    2.9439 H   0  0  0  0  0  0  0  0  0  0  0  0
   -6.5734   -0.6328    0.1198 H   0  0  0  0  0  0  0  0  0  0  0  0
   -5.7004    0.8622   -0.4120 H   0  0  0  0  0  0  0  0  0  0  0  0
   -6.3302    0.7447    1.2691 H   0  0  0  0  0  0  0  0  0  0  0  0
   -4.8145   -1.9950   -1.2675 H   0  0  0  0  0  0  0  0  0  0  0  0
   -3.0754   -2.4680   -2.9399 H   0  0  0  0  0  0  0  0  0  0  0  0
   -0.8691   -1.4713   -2.7648 H   0  0  0  0  0  0  0  0  0  0  0  0
  1  2  1  0
  2  3  1  0
  3  4  2  0
  4  5  1  0
  5  6  1  0
  5  7  2  0
  7  8  1  0
  8  9  2  0
  9 10  1  0
 10 11  1  0
 11 12  2  0
 11 13  2  0
 11 14  1  0
 14 15  2  0
 15 16  1  0
 16 17  2  0
 17 18  1  0
 18 19  2  0
 19 20  1  0
 20 21  1  0
 20 22  1  0
 19 23  1  0
 23 24  2  0
 24 25  1  0
 25 26  2  0
  9  3  1  0
 26 14  1  0
 26 18  1  0
  1 27  1  0
  1 28  1  0
  1 29  1  0
  7 30  1  0
 10 31  1  0
 15 32  1  0
 16 33  1  0
 17 34  1  0
 21 35  1  0
 21 36  1  0
 21 37  1  0
 22 38  1  0
 22 39  1  0
 22 40  1  0
 23 41  1  0
 24 42  1  0
 25 43  1  0
M  END
$$$$
