
     RDKit          3D

 56 59  0  0  0  0  0  0  0  0999 V2000
   -5.0448   -2.4764    1.4560 C   0  0  0  0  0  0  0  0  0  0  0  0
   -4.4235   -1.5244    0.4631 C   0  0  0  0  0  0  0  0  0  0  0  0
   -5.1533   -0.5563   -0.1258 C   0  0  0  0  0  0  0  0  0  0  0  0
   -6.6119   -0.3192    0.1773 C   0  0  0  0  0  0  0  0  0  0  0  0
   -7.1990    0.8174   -0.6709 C   0  0  0  0  0  0  0  0  0  0  0  0
   -8.6097    0.8994   -0.4636 O   0  0  0  0  0  0  0  0  0  0  0  0
   -8.9357    2.1435    0.0582 C   0  0  0  0  0  0  0  0  0  0  0  0
  -10.1113    2.4934    0.3392 O   0  0  0  0  0  0  0  0  0  0  0  0
   -7.8103    2.9785    0.2397 N   0  0  0  0  0  0  0  0  0  0  0  0
   -6.7352    2.1739   -0.2141 C   0  0  0  0  0  0  0  0  0  0  0  0
   -5.5432    2.5784   -0.2497 O   0  0  0  0  0  0  0  0  0  0  0  0
   -3.0004   -1.7109    0.0760 C   0  0  0  0  0  0  0  0  0  0  0  0
   -2.4947   -2.9986   -0.1682 C   0  0  0  0  0  0  0  0  0  0  0  0
   -1.1581   -3.1753   -0.5308 C   0  0  0  0  0  0  0  0  0  0  0  0
   -0.3094   -2.0731   -0.6504 C   0  0  0  0  0  0  0  0  0  0  0  0
   -0.7946   -0.7748   -0.4020 C   0  0  0  0  0  0  0  0  0  0  0  0
    0.0122    0.3709   -0.5026 O   0  0  0  0  0  0  0  0  0  0  0  0
    1.4179    0.3763   -0.7519 C   0  0  0  0  0  0  0  0  0  0  0  0
    2.1890   -0.0317    0.5054 C   0  0  0  0  0  0  0  0  0  0  0  0
    3.6644   -0.0303    0.2428 C   0  0  0  0  0  0  0  0  0  0  0  0
    4.4570    1.0423    0.4293 N   0  0  0  0  0  0  0  0  0  0  0  0
    5.6691    0.6126    0.0099 C   0  0  0  0  0  0  0  0  0  0  0  0
    6.8865    1.4483    0.0270 C   0  0  0  0  0  0  0  0  0  0  0  0
    6.8408    2.7729    0.4977 C   0  0  0  0  0  0  0  0  0  0  0  0
    7.9984    3.5575    0.5104 C   0  0  0  0  0  0  0  0  0  0  0  0
    9.2087    3.0287    0.0548 C   0  0  0  0  0  0  0  0  0  0  0  0
    9.2637    1.7140   -0.4146 C   0  0  0  0  0  0  0  0  0  0  0  0
    8.1089    0.9253   -0.4293 C   0  0  0  0  0  0  0  0  0  0  0  0
    5.6449   -0.6313   -0.4210 O   0  0  0  0  0  0  0  0  0  0  0  0
    4.4139   -1.0571   -0.2930 C   0  0  0  0  0  0  0  0  0  0  0  0
    3.9413   -2.4161   -0.6928 C   0  0  0  0  0  0  0  0  0  0  0  0
   -2.1378   -0.6051   -0.0440 C   0  0  0  0  0  0  0  0  0  0  0  0
   -4.2652   -3.0615    1.9878 H   0  0  0  0  0  0  0  0  0  0  0  0
   -5.7213   -3.1807    0.9280 H   0  0  0  0  0  0  0  0  0  0  0  0
   -5.6166   -1.9213    2.2283 H   0  0  0  0  0  0  0  0  0  0  0  0
   -4.6835    0.0685   -0.8774 H   0  0  0  0  0  0  0  0  0  0  0  0
   -6.7395   -0.0778    1.2552 H   0  0  0  0  0  0  0  0  0  0  0  0
   -7.1781   -1.2499   -0.0432 H   0  0  0  0  0  0  0  0  0  0  0  0
   -6.9883    0.6715   -1.7527 H   0  0  0  0  0  0  0  0  0  0  0  0
   -7.7811    3.9595    0.5956 H   0  0  0  0  0  0  0  0  0  0  0  0
   -3.1378   -3.8668   -0.0946 H   0  0  0  0  0  0  0  0  0  0  0  0
   -0.7792   -4.1708   -0.7235 H   0  0  0  0  0  0  0  0  0  0  0  0
    0.7175   -2.2455   -0.9371 H   0  0  0  0  0  0  0  0  0  0  0  0
    1.7138    1.4101   -1.0316 H   0  0  0  0  0  0  0  0  0  0  0  0
    1.6636   -0.2810   -1.6132 H   0  0  0  0  0  0  0  0  0  0  0  0
    1.9624    0.6860    1.3229 H   0  0  0  0  0  0  0  0  0  0  0  0
    1.8729   -1.0391    0.8463 H   0  0  0  0  0  0  0  0  0  0  0  0
    5.9130    3.2018    0.8551 H   0  0  0  0  0  0  0  0  0  0  0  0
    7.9570    4.5762    0.8737 H   0  0  0  0  0  0  0  0  0  0  0  0
   10.1035    3.6375    0.0654 H   0  0  0  0  0  0  0  0  0  0  0  0
   10.2019    1.3053   -0.7673 H   0  0  0  0  0  0  0  0  0  0  0  0
    8.1718   -0.0915   -0.7969 H   0  0  0  0  0  0  0  0  0  0  0  0
    3.4092   -2.8964    0.1545 H   0  0  0  0  0  0  0  0  0  0  0  0
    4.8080   -3.0487   -0.9772 H   0  0  0  0  0  0  0  0  0  0  0  0
    3.2556   -2.3322   -1.5609 H   0  0  0  0  0  0  0  0  0  0  0  0
   -2.5031    0.3945    0.1581 H   0  0  0  0  0  0  0  0  0  0  0  0
  1  2  1  0
  2  3  2  0
  3  4  1  0
  4  5  1  0
  5  6  1  0
  6  7  1  0
  7  8  2  0
  7  9  1  0
  9 10  1  0
 10 11  2  0
  2 12  1  0
 12 13  2  0
 13 14  1  0
 14 15  2  0
 15 16  1  0
 16 17  1  0
 17 18  1  0
 18 19  1  0
 19 20  1  0
 20 21  1  0
 21 22  2  0
 22 23  1  0
 23 24  2  0
 24 25  1  0
 25 26  2  0
 26 27  1  0
 27 28  2  0
 22 29  1  0
 29 30  1  0
 30 31  1  0
 16 32  2  0
 10  5  1  0
 32 12  1  0
 30 20  2  0
 28 23  1  0
  1 33  1  0
  1 34  1  0
  1 35  1  0
  3 36  1  0
  4 37  1  0
  4 38  1  0
  5 39  1  0
  9 40  1  0
 13 41  1  0
 14 42  1  0
 15 43  1  0
 18 44  1  0
 18 45  1  0
 19 46  1  0
 19 47  1  0
 24 48  1  0
 25 49  1  0
 26 50  1  0
 27 51  1  0
 28 52  1  0
 31 53  1  0
 31 54  1  0
 31 55  1  0
 32 56  1  0
M  END
$$$$
