
     RDKit          3D

 40 43  0  0  0  0  0  0  0  0999 V2000
   -3.5405   -0.7325   -1.2483 C   0  0  0  0  0  0  0  0  0  0  0  0
   -2.9980   -1.2704    0.0908 C   0  0  0  0  0  0  0  0  0  0  0  0
   -3.4448   -2.7399    0.2409 C   0  0  0  0  0  0  0  0  0  0  0  0
   -3.5779   -0.4639    1.2697 C   0  0  0  0  0  0  0  0  0  0  0  0
   -1.5218   -1.2149    0.1068 N   0  0  0  0  0  0  0  0  0  0  0  0
   -0.7294   -0.0166   -0.0093 C   0  0  0  0  0  0  0  0  0  0  0  0
   -1.3111    1.2099   -0.1488 N   0  0  0  0  0  0  0  0  0  0  0  0
   -0.5607    2.3473   -0.2590 C   0  0  0  0  0  0  0  0  0  0  0  0
   -1.1840    3.5913   -0.4010 C   0  0  0  0  0  0  0  0  0  0  0  0
   -0.4117    4.7528   -0.5133 C   0  0  0  0  0  0  0  0  0  0  0  0
    0.9873    4.6785   -0.4846 C   0  0  0  0  0  0  0  0  0  0  0  0
    1.9440    6.1419   -0.6264 Cl  0  0  0  0  0  0  0  0  0  0  0  0
    1.6238    3.4394   -0.3429 C   0  0  0  0  0  0  0  0  0  0  0  0
    0.8535    2.2736   -0.2301 C   0  0  0  0  0  0  0  0  0  0  0  0
    1.4087    1.0026   -0.0862 C   0  0  0  0  0  0  0  0  0  0  0  0
    2.7166    0.6857   -0.0328 N   0  0  0  0  0  0  0  0  0  0  0  0
    2.6566   -0.6639    0.1104 C   0  0  0  0  0  0  0  0  0  0  0  0
    3.8476   -1.5116    0.2188 C   0  0  0  0  0  0  0  0  0  0  0  0
    3.8550   -2.8843    0.3659 C   0  0  0  0  0  0  0  0  0  0  0  0
    5.1848   -3.2423    0.4239 C   0  0  0  0  0  0  0  0  0  0  0  0
    5.9033   -2.0690    0.3089 C   0  0  0  0  0  0  0  0  0  0  0  0
    5.0780   -1.0546    0.1880 O   0  0  0  0  0  0  0  0  0  0  0  0
    1.3910   -1.1451    0.1429 N   0  0  0  0  0  0  0  0  0  0  0  0
    0.6284   -0.0771    0.0174 N   0  0  0  0  0  0  0  0  0  0  0  0
   -3.0600   -1.2630   -2.0982 H   0  0  0  0  0  0  0  0  0  0  0  0
   -4.6396   -0.8849   -1.3140 H   0  0  0  0  0  0  0  0  0  0  0  0
   -3.3503    0.3534   -1.3621 H   0  0  0  0  0  0  0  0  0  0  0  0
   -3.0695   -3.1639    1.1974 H   0  0  0  0  0  0  0  0  0  0  0  0
   -3.0430   -3.3549   -0.5932 H   0  0  0  0  0  0  0  0  0  0  0  0
   -4.5534   -2.8227    0.2333 H   0  0  0  0  0  0  0  0  0  0  0  0
   -3.3877    0.6223    1.1574 H   0  0  0  0  0  0  0  0  0  0  0  0
   -3.1241   -0.8015    2.2261 H   0  0  0  0  0  0  0  0  0  0  0  0
   -4.6789   -0.6025    1.3339 H   0  0  0  0  0  0  0  0  0  0  0  0
   -0.9976   -2.1138    0.2104 H   0  0  0  0  0  0  0  0  0  0  0  0
   -2.2646    3.6607   -0.4245 H   0  0  0  0  0  0  0  0  0  0  0  0
   -0.9019    5.7118   -0.6229 H   0  0  0  0  0  0  0  0  0  0  0  0
    2.7057    3.3901   -0.3216 H   0  0  0  0  0  0  0  0  0  0  0  0
    2.9998   -3.5449    0.4241 H   0  0  0  0  0  0  0  0  0  0  0  0
    5.5847   -4.2410    0.5368 H   0  0  0  0  0  0  0  0  0  0  0  0
    6.9816   -1.9821    0.3155 H   0  0  0  0  0  0  0  0  0  0  0  0
  1  2  1  0
  2  3  1  0
  2  4  1  0
  2  5  1  0
  5  6  1  0
  6  7  2  0
  7  8  1  0
  8  9  2  0
  9 10  1  0
 10 11  2  0
 11 12  1  0
 11 13  1  0
 13 14  2  0
 14 15  1  0
 15 16  2  0
 16 17  1  0
 17 18  1  0
 18 19  2  0
 19 20  1  0
 20 21  2  0
 21 22  1  0
 17 23  2  0
 23 24  1  0
 24  6  1  0
 14  8  1  0
 24 15  1  0
 22 18  1  0
  1 25  1  0
  1 26  1  0
  1 27  1  0
  3 28  1  0
  3 29  1  0
  3 30  1  0
  4 31  1  0
  4 32  1  0
  4 33  1  0
  5 34  1  0
  9 35  1  0
 10 36  1  0
 13 37  1  0
 19 38  1  0
 20 39  1  0
 21 40  1  0
M  END
$$$$
