
     RDKit          3D

 57 60  0  0  0  0  0  0  0  0999 V2000
   -2.6005   -5.7438   -0.9492 C   0  0  0  0  0  0  0  0  0  0  0  0
   -3.1218   -4.4574   -0.3180 C   0  0  0  0  0  0  0  0  0  0  0  0
   -2.9525   -3.3686   -1.2074 O   0  0  0  0  0  0  0  0  0  0  0  0
   -1.7383   -2.6842   -0.9592 C   0  0  0  0  0  0  0  0  0  0  0  0
   -1.9673   -1.5350    0.0287 C   0  0  0  0  0  0  0  0  0  0  0  0
   -0.7421   -0.7222    0.1769 N   0  0  0  0  0  0  0  0  0  0  0  0
    0.3044   -1.4072    0.9561 C   0  0  0  0  0  0  0  0  0  0  0  0
    1.0231   -0.3516    1.8130 C   0  0  1  0  0  0  0  0  0  0  0  0
    2.5184   -0.2903    1.5535 C   0  0  0  0  0  0  0  0  0  0  0  0
    3.4286   -0.3874    2.6395 C   0  0  0  0  0  0  0  0  0  0  0  0
    4.8162   -0.3110    2.4219 C   0  0  0  0  0  0  0  0  0  0  0  0
    5.2609   -0.1326    1.1165 C   0  0  0  0  0  0  0  0  0  0  0  0
    4.4016   -0.0319    0.0725 C   0  0  0  0  0  0  0  0  0  0  0  0
    3.0227   -0.1019    0.2423 C   0  0  0  0  0  0  0  0  0  0  0  0
    5.1161    0.1430   -1.0969 O   0  0  0  0  0  0  0  0  0  0  0  0
    6.5119    0.1518   -0.7661 C   0  0  0  0  0  0  0  0  0  0  0  0
    6.5593   -0.0269    0.6565 O   0  0  0  0  0  0  0  0  0  0  0  0
    0.3244    0.9729    1.4901 C   0  0  2  0  0  0  0  0  0  0  0  0
    0.1457    1.8449    2.7059 C   0  0  0  0  0  0  0  0  0  0  0  0
    0.6674    2.9915    2.7377 O   0  0  0  0  0  0  0  0  0  0  0  0
   -0.5898    1.3902    3.7974 O   0  0  0  0  0  0  0  0  0  0  0  0
   -1.0080    0.5439    0.8749 C   0  0  1  0  0  0  0  0  0  0  0  0
   -1.5353    1.5937   -0.0827 C   0  0  0  0  0  0  0  0  0  0  0  0
   -2.5591    2.4634    0.3245 C   0  0  0  0  0  0  0  0  0  0  0  0
   -3.0317    3.4538   -0.5409 C   0  0  0  0  0  0  0  0  0  0  0  0
   -2.4858    3.6008   -1.8209 C   0  0  0  0  0  0  0  0  0  0  0  0
   -2.9951    4.6105   -2.6509 O   0  0  0  0  0  0  0  0  0  0  0  0
   -2.5323    4.8750   -3.9712 C   0  0  0  0  0  0  0  0  0  0  0  0
   -1.4500    2.7392   -2.2283 C   0  0  0  0  0  0  0  0  0  0  0  0
   -0.9764    1.7485   -1.3636 C   0  0  0  0  0  0  0  0  0  0  0  0
   -2.8014   -6.6007   -0.2722 H   0  0  0  0  0  0  0  0  0  0  0  0
   -3.1100   -5.9248   -1.9193 H   0  0  0  0  0  0  0  0  0  0  0  0
   -1.5061   -5.6742   -1.1210 H   0  0  0  0  0  0  0  0  0  0  0  0
   -4.2091   -4.5801   -0.1294 H   0  0  0  0  0  0  0  0  0  0  0  0
   -2.6450   -4.2989    0.6774 H   0  0  0  0  0  0  0  0  0  0  0  0
   -0.9236   -3.3584   -0.6066 H   0  0  0  0  0  0  0  0  0  0  0  0
   -1.3900   -2.2512   -1.9211 H   0  0  0  0  0  0  0  0  0  0  0  0
   -2.3097   -1.9287    1.0118 H   0  0  0  0  0  0  0  0  0  0  0  0
   -2.7876   -0.9027   -0.3784 H   0  0  0  0  0  0  0  0  0  0  0  0
    0.9959   -1.9234    0.2564 H   0  0  0  0  0  0  0  0  0  0  0  0
   -0.1216   -2.1871    1.6287 H   0  0  0  0  0  0  0  0  0  0  0  0
    0.8435   -0.6198    2.8799 H   0  0  0  0  0  0  0  0  0  0  0  0
    3.0640   -0.5192    3.6504 H   0  0  0  0  0  0  0  0  0  0  0  0
    5.5159   -0.3854    3.2437 H   0  0  0  0  0  0  0  0  0  0  0  0
    2.3632   -0.0102   -0.6115 H   0  0  0  0  0  0  0  0  0  0  0  0
    7.0315   -0.6869   -1.2752 H   0  0  0  0  0  0  0  0  0  0  0  0
    6.9655    1.1259   -1.0452 H   0  0  0  0  0  0  0  0  0  0  0  0
    0.9120    1.5358    0.7287 H   0  0  0  0  0  0  0  0  0  0  0  0
   -0.7133    1.9699    4.6187 H   0  0  0  0  0  0  0  0  0  0  0  0
   -1.7489    0.3681    1.6926 H   0  0  0  0  0  0  0  0  0  0  0  0
   -2.9917    2.3767    1.3135 H   0  0  0  0  0  0  0  0  0  0  0  0
   -3.8248    4.1140   -0.2136 H   0  0  0  0  0  0  0  0  0  0  0  0
   -1.4566    5.1500   -3.9507 H   0  0  0  0  0  0  0  0  0  0  0  0
   -2.6869    3.9839   -4.6158 H   0  0  0  0  0  0  0  0  0  0  0  0
   -3.1078    5.7236   -4.3941 H   0  0  0  0  0  0  0  0  0  0  0  0
   -1.0015    2.8290   -3.2082 H   0  0  0  0  0  0  0  0  0  0  0  0
   -0.1705    1.1037   -1.6921 H   0  0  0  0  0  0  0  0  0  0  0  0
  1  2  1  0
  2  3  1  0
  3  4  1  0
  4  5  1  0
  5  6  1  0
  6  7  1  0
  7  8  1  0
  8  9  1  0
  9 10  2  0
 10 11  1  0
 11 12  2  0
 12 13  1  0
 13 14  2  0
 13 15  1  0
 15 16  1  0
 16 17  1  0
  8 18  1  0
 18 19  1  0
 19 20  2  0
 19 21  1  0
 18 22  1  0
 22 23  1  0
 23 24  2  0
 24 25  1  0
 25 26  2  0
 26 27  1  0
 27 28  1  0
 26 29  1  0
 29 30  2  0
 22  6  1  0
 30 23  1  0
 14  9  1  0
 17 12  1  0
  1 31  1  0
  1 32  1  0
  1 33  1  0
  2 34  1  0
  2 35  1  0
  4 36  1  0
  4 37  1  0
  5 38  1  0
  5 39  1  0
  7 40  1  0
  7 41  1  0
  8 42  1  1
 10 43  1  0
 11 44  1  0
 14 45  1  0
 16 46  1  0
 16 47  1  0
 18 48  1  6
 21 49  1  0
 22 50  1  1
 24 51  1  0
 25 52  1  0
 28 53  1  0
 28 54  1  0
 28 55  1  0
 29 56  1  0
 30 57  1  0
M  END
$$$$
