
     RDKit          3D

 56 59  0  0  0  0  0  0  0  0999 V2000
    4.9371   -2.2347   -1.8774 C   0  0  0  0  0  0  0  0  0  0  0  0
    4.9052   -1.7771   -0.4176 C   0  0  0  0  0  0  0  0  0  0  0  0
    3.6818   -0.8955   -0.0980 C   0  0  0  0  0  0  0  0  0  0  0  0
    2.3013   -1.5553   -0.1179 C   0  0  0  0  0  0  0  0  0  0  0  0
    2.1841   -2.9586   -0.1170 C   0  0  0  0  0  0  0  0  0  0  0  0
    0.9319   -3.5527   -0.2180 C   0  0  0  0  0  0  0  0  0  0  0  0
    0.8315   -4.8073   -0.2517 O   0  0  0  0  0  0  0  0  0  0  0  0
   -0.1589   -2.8099   -0.2824 O   0  0  0  0  0  0  0  0  0  0  0  0
   -0.1431   -1.4825   -0.2267 C   0  0  0  0  0  0  0  0  0  0  0  0
   -1.3701   -0.7841   -0.2790 C   0  0  0  0  0  0  0  0  0  0  0  0
   -1.3600    0.6213   -0.2964 C   0  0  0  0  0  0  0  0  0  0  0  0
   -0.1623    1.3204   -0.1121 C   0  0  0  0  0  0  0  0  0  0  0  0
    1.0537    0.6306    0.0114 C   0  0  0  0  0  0  0  0  0  0  0  0
    1.0939   -0.7847   -0.1139 C   0  0  0  0  0  0  0  0  0  0  0  0
    2.2115    1.3818    0.2518 O   0  0  0  0  0  0  0  0  0  0  0  0
    2.2048    2.7394    0.7091 C   0  0  0  0  0  0  0  0  0  0  0  0
    2.2460    2.7422    2.2426 C   0  0  0  0  0  0  0  0  0  0  0  0
    3.4484    3.4392    0.1504 C   0  0  0  0  0  0  0  0  0  0  0  0
    0.9619    3.4645    0.2436 C   0  0  0  0  0  0  0  0  0  0  0  0
   -0.1471    2.7974   -0.0798 C   0  0  0  0  0  0  0  0  0  0  0  0
   -2.5520    1.3327   -0.4714 O   0  0  0  0  0  0  0  0  0  0  0  0
   -3.7668    0.7063   -0.8727 C   0  0  2  0  0  0  0  0  0  0  0  0
   -4.9118    1.7140   -0.7049 C   0  0  0  0  0  0  0  0  0  0  0  0
   -3.9422   -0.6419   -0.1058 C   0  0  0  0  0  0  0  0  0  0  0  0
   -4.0551   -0.4047    1.4233 C   0  0  0  0  0  0  0  0  0  0  0  0
   -5.2150   -1.3767   -0.5883 C   0  0  0  0  0  0  0  0  0  0  0  0
   -2.6931   -1.5308   -0.4297 C   0  0  2  0  0  0  0  0  0  0  0  0
   -2.6929   -2.6741    0.3937 O   0  0  0  0  0  0  0  0  0  0  0  0
    4.9696   -1.3548   -2.5545 H   0  0  0  0  0  0  0  0  0  0  0  0
    4.0487   -2.8483   -2.1288 H   0  0  0  0  0  0  0  0  0  0  0  0
    5.8467   -2.8469   -2.0524 H   0  0  0  0  0  0  0  0  0  0  0  0
    4.9738   -2.6429    0.2729 H   0  0  0  0  0  0  0  0  0  0  0  0
    5.8191   -1.1700   -0.2373 H   0  0  0  0  0  0  0  0  0  0  0  0
    3.8384   -0.4583    0.9118 H   0  0  0  0  0  0  0  0  0  0  0  0
    3.6989   -0.0741   -0.8452 H   0  0  0  0  0  0  0  0  0  0  0  0
    3.0439   -3.6085   -0.0616 H   0  0  0  0  0  0  0  0  0  0  0  0
    2.2672    3.7822    2.6349 H   0  0  0  0  0  0  0  0  0  0  0  0
    1.3509    2.2263    2.6523 H   0  0  0  0  0  0  0  0  0  0  0  0
    3.1498    2.2060    2.6039 H   0  0  0  0  0  0  0  0  0  0  0  0
    4.3679    2.9052    0.4734 H   0  0  0  0  0  0  0  0  0  0  0  0
    3.5046    4.4913    0.5052 H   0  0  0  0  0  0  0  0  0  0  0  0
    3.4196    3.4388   -0.9606 H   0  0  0  0  0  0  0  0  0  0  0  0
    0.9318    4.5473    0.2784 H   0  0  0  0  0  0  0  0  0  0  0  0
   -1.0398    3.3589   -0.3262 H   0  0  0  0  0  0  0  0  0  0  0  0
   -3.6884    0.4829   -1.9609 H   0  0  0  0  0  0  0  0  0  0  0  0
   -5.8716    1.2999   -1.0736 H   0  0  0  0  0  0  0  0  0  0  0  0
   -5.0186    2.0312    0.3523 H   0  0  0  0  0  0  0  0  0  0  0  0
   -4.6892    2.6208   -1.3064 H   0  0  0  0  0  0  0  0  0  0  0  0
   -4.1313   -1.3683    1.9702 H   0  0  0  0  0  0  0  0  0  0  0  0
   -3.1726    0.1436    1.8140 H   0  0  0  0  0  0  0  0  0  0  0  0
   -4.9672    0.1753    1.6734 H   0  0  0  0  0  0  0  0  0  0  0  0
   -6.1338   -0.8250   -0.3004 H   0  0  0  0  0  0  0  0  0  0  0  0
   -5.2057   -1.4971   -1.6929 H   0  0  0  0  0  0  0  0  0  0  0  0
   -5.2881   -2.3848   -0.1283 H   0  0  0  0  0  0  0  0  0  0  0  0
   -2.7436   -1.8352   -1.5037 H   0  0  0  0  0  0  0  0  0  0  0  0
   -3.1036   -3.4147   -0.1244 H   0  0  0  0  0  0  0  0  0  0  0  0
  1  2  1  0
  2  3  1  0
  3  4  1  0
  4  5  2  0
  5  6  1  0
  6  7  2  0
  6  8  1  0
  8  9  1  0
  9 10  2  0
 10 11  1  0
 11 12  2  0
 12 13  1  0
 13 14  2  0
 13 15  1  0
 15 16  1  0
 16 17  1  0
 16 18  1  0
 16 19  1  0
 19 20  2  0
 11 21  1  0
 21 22  1  0
 22 23  1  0
 22 24  1  0
 24 25  1  0
 24 26  1  0
 24 27  1  0
 27 28  1  0
 14  4  1  0
 14  9  1  0
 27 10  1  0
 20 12  1  0
  1 29  1  0
  1 30  1  0
  1 31  1  0
  2 32  1  0
  2 33  1  0
  3 34  1  0
  3 35  1  0
  5 36  1  0
 17 37  1  0
 17 38  1  0
 17 39  1  0
 18 40  1  0
 18 41  1  0
 18 42  1  0
 19 43  1  0
 20 44  1  0
 22 45  1  6
 23 46  1  0
 23 47  1  0
 23 48  1  0
 25 49  1  0
 25 50  1  0
 25 51  1  0
 26 52  1  0
 26 53  1  0
 26 54  1  0
 27 55  1  6
 28 56  1  0
M  END
$$$$
