
     RDKit          3D

 54 58  0  0  0  0  0  0  0  0999 V2000
    1.5848    1.6643    2.6257 C   0  0  0  0  0  0  0  0  0  0  0  0
    1.5591    1.2356    1.1469 C   0  0  0  0  0  0  0  0  0  0  0  0
    0.6712    2.1885    0.3273 C   0  0  0  0  0  0  0  0  0  0  0  0
   -0.7614    2.0999    0.7715 C   0  0  0  0  0  0  0  0  0  0  0  0
   -1.3510    3.1684    1.4844 C   0  0  0  0  0  0  0  0  0  0  0  0
   -2.6620    3.0182    1.9206 C   0  0  0  0  0  0  0  0  0  0  0  0
   -3.3716    1.8878    1.6870 C   0  0  0  0  0  0  0  0  0  0  0  0
   -2.8340    0.8101    0.9927 C   0  0  0  0  0  0  0  0  0  0  0  0
   -1.5040    0.9146    0.5247 C   0  0  0  0  0  0  0  0  0  0  0  0
   -0.9059   -0.1976   -0.2530 C   0  0  0  0  0  0  0  0  0  0  0  0
   -1.6712   -0.8349   -1.3561 C   0  0  0  0  0  0  0  0  0  0  0  0
   -2.6191   -0.1008   -2.0943 C   0  0  0  0  0  0  0  0  0  0  0  0
   -3.3276   -0.7030   -3.1373 C   0  0  0  0  0  0  0  0  0  0  0  0
   -3.0953   -2.0439   -3.4675 C   0  0  0  0  0  0  0  0  0  0  0  0
   -3.8181   -2.6573   -4.5386 N   0  0  0  0  0  0  0  0  0  0  0  0
   -2.1452   -2.7778   -2.7464 C   0  0  0  0  0  0  0  0  0  0  0  0
   -1.4359   -2.1782   -1.7011 C   0  0  0  0  0  0  0  0  0  0  0  0
    0.2864   -0.6518    0.0149 N   0  0  0  0  0  0  0  0  0  0  0  0
    1.1543   -0.1856    1.0258 N   0  0  0  0  0  0  0  0  0  0  0  0
    1.9308   -1.2027    1.6773 C   0  0  0  0  0  0  0  0  0  0  0  0
    1.3362   -2.1662    2.2319 O   0  0  0  0  0  0  0  0  0  0  0  0
    3.4335   -1.2204    1.5968 C   0  0  0  0  0  0  0  0  0  0  0  0
    3.8804   -1.4371    0.1747 C   0  0  0  0  0  0  0  0  0  0  0  0
    3.6043   -2.6526   -0.4746 C   0  0  0  0  0  0  0  0  0  0  0  0
    4.0025   -2.8499   -1.8002 C   0  0  0  0  0  0  0  0  0  0  0  0
    4.6814   -1.8394   -2.4866 C   0  0  0  0  0  0  0  0  0  0  0  0
    4.9639   -0.6296   -1.8473 C   0  0  0  0  0  0  0  0  0  0  0  0
    4.5668   -0.4272   -0.5219 C   0  0  0  0  0  0  0  0  0  0  0  0
   -4.6331    2.0139    2.2352 O   0  0  0  0  0  0  0  0  0  0  0  0
   -4.7216    3.3079    2.8486 C   0  0  0  0  0  0  0  0  0  0  0  0
   -3.4409    3.9141    2.6269 O   0  0  0  0  0  0  0  0  0  0  0  0
    2.3535    1.0974    3.1884 H   0  0  0  0  0  0  0  0  0  0  0  0
    0.5998    1.4785    3.1034 H   0  0  0  0  0  0  0  0  0  0  0  0
    1.8309    2.7439    2.7125 H   0  0  0  0  0  0  0  0  0  0  0  0
    2.5872    1.3475    0.7436 H   0  0  0  0  0  0  0  0  0  0  0  0
    0.7454    1.9364   -0.7532 H   0  0  0  0  0  0  0  0  0  0  0  0
    1.0506    3.2293    0.4270 H   0  0  0  0  0  0  0  0  0  0  0  0
   -0.8046    4.0779    1.6989 H   0  0  0  0  0  0  0  0  0  0  0  0
   -3.4255   -0.0809    0.8235 H   0  0  0  0  0  0  0  0  0  0  0  0
   -2.8032    0.9427   -1.8760 H   0  0  0  0  0  0  0  0  0  0  0  0
   -4.0531   -0.1223   -3.6927 H   0  0  0  0  0  0  0  0  0  0  0  0
   -4.5173   -2.1137   -5.0917 H   0  0  0  0  0  0  0  0  0  0  0  0
   -3.6490   -3.6560   -4.7966 H   0  0  0  0  0  0  0  0  0  0  0  0
   -1.9533   -3.8144   -2.9950 H   0  0  0  0  0  0  0  0  0  0  0  0
   -0.7108   -2.7698   -1.1563 H   0  0  0  0  0  0  0  0  0  0  0  0
    3.8344   -2.0431    2.2282 H   0  0  0  0  0  0  0  0  0  0  0  0
    3.8493   -0.2769    2.0064 H   0  0  0  0  0  0  0  0  0  0  0  0
    3.0768   -3.4432    0.0444 H   0  0  0  0  0  0  0  0  0  0  0  0
    3.7832   -3.7863   -2.2960 H   0  0  0  0  0  0  0  0  0  0  0  0
    4.9897   -1.9936   -3.5122 H   0  0  0  0  0  0  0  0  0  0  0  0
    5.4922    0.1516   -2.3786 H   0  0  0  0  0  0  0  0  0  0  0  0
    4.7985    0.5144   -0.0417 H   0  0  0  0  0  0  0  0  0  0  0  0
   -4.9140    3.2048    3.9376 H   0  0  0  0  0  0  0  0  0  0  0  0
   -5.5184    3.9085    2.3613 H   0  0  0  0  0  0  0  0  0  0  0  0
  1  2  1  0
  2  3  1  0
  3  4  1  0
  4  5  2  0
  5  6  1  0
  6  7  2  0
  7  8  1  0
  8  9  2  0
  9 10  1  0
 10 11  1  0
 11 12  2  0
 12 13  1  0
 13 14  2  0
 14 15  1  0
 14 16  1  0
 16 17  2  0
 10 18  2  0
 18 19  1  0
 19 20  1  0
 20 21  2  0
 20 22  1  0
 22 23  1  0
 23 24  2  0
 24 25  1  0
 25 26  2  0
 26 27  1  0
 27 28  2  0
  7 29  1  0
 29 30  1  0
 30 31  1  0
 19  2  1  0
 28 23  1  0
  9  4  1  0
 17 11  1  0
 31  6  1  0
  1 32  1  0
  1 33  1  0
  1 34  1  0
  2 35  1  0
  3 36  1  0
  3 37  1  0
  5 38  1  0
  8 39  1  0
 12 40  1  0
 13 41  1  0
 15 42  1  0
 15 43  1  0
 16 44  1  0
 17 45  1  0
 22 46  1  0
 22 47  1  0
 24 48  1  0
 25 49  1  0
 26 50  1  0
 27 51  1  0
 28 52  1  0
 30 53  1  0
 30 54  1  0
M  END
$$$$
