
     RDKit          3D

 51 54  0  0  0  0  0  0  0  0999 V2000
    5.3253    1.4491    0.1537 C   0  0  0  0  0  0  0  0  0  0  0  0
    4.0286    2.0356    0.5355 N   0  0  0  0  0  0  0  0  0  0  0  0
    3.0265    1.9013   -0.5406 C   0  0  0  0  0  0  0  0  0  0  0  0
    2.4118    0.5268   -0.6114 C   0  0  0  0  0  0  0  0  0  0  0  0
    2.3970   -0.3103    0.4378 C   0  0  0  0  0  0  0  0  0  0  0  0
    1.6667   -1.5962    0.3372 C   0  0  0  0  0  0  0  0  0  0  0  0
    2.3634   -2.8127    0.3857 C   0  0  0  0  0  0  0  0  0  0  0  0
    3.7542   -2.8229    0.4934 O   0  0  0  0  0  0  0  0  0  0  0  0
    1.6640   -4.0196    0.3168 C   0  0  0  0  0  0  0  0  0  0  0  0
    0.2718   -4.0475    0.1974 C   0  0  0  0  0  0  0  0  0  0  0  0
   -0.3312   -5.3084    0.2299 O   0  0  0  0  0  0  0  0  0  0  0  0
   -0.4483   -2.8241    0.0782 C   0  0  0  0  0  0  0  0  0  0  0  0
   -1.8408   -2.7354   -0.1648 C   0  0  0  0  0  0  0  0  0  0  0  0
   -2.5485   -3.7546   -0.3733 O   0  0  0  0  0  0  0  0  0  0  0  0
   -2.4577   -1.4859   -0.2129 C   0  0  0  0  0  0  0  0  0  0  0  0
   -1.6866   -0.3304   -0.0527 C   0  0  0  0  0  0  0  0  0  0  0  0
   -2.3024    1.0490   -0.0991 C   0  0  0  0  0  0  0  0  0  0  0  0
   -3.3989    1.2440    0.9866 C   0  0  0  0  0  0  0  0  0  0  0  0
   -4.8139    1.3191    0.3972 C   0  0  0  0  0  0  0  0  0  0  0  0
   -4.9412    2.4418   -0.6498 C   0  0  0  0  0  0  0  0  0  0  0  0
   -3.6767    2.6328   -1.5141 C   0  0  0  0  0  0  0  0  0  0  0  0
   -2.7898    1.3841   -1.5265 C   0  0  0  0  0  0  0  0  0  0  0  0
   -0.3760   -0.4362    0.1230 O   0  0  0  0  0  0  0  0  0  0  0  0
    0.2678   -1.6000    0.1787 C   0  0  0  0  0  0  0  0  0  0  0  0
    3.1566    0.0058    1.7032 C   0  0  0  0  0  0  0  0  0  0  0  0
    3.5167    1.4951    1.8096 C   0  0  0  0  0  0  0  0  0  0  0  0
    5.7614    2.0251   -0.6900 H   0  0  0  0  0  0  0  0  0  0  0  0
    6.0426    1.5095    1.0001 H   0  0  0  0  0  0  0  0  0  0  0  0
    5.2201    0.3880   -0.1600 H   0  0  0  0  0  0  0  0  0  0  0  0
    2.2116    2.6360   -0.3658 H   0  0  0  0  0  0  0  0  0  0  0  0
    3.4758    2.1537   -1.5262 H   0  0  0  0  0  0  0  0  0  0  0  0
    1.8694    0.2665   -1.5130 H   0  0  0  0  0  0  0  0  0  0  0  0
    4.2795   -3.6888    0.5278 H   0  0  0  0  0  0  0  0  0  0  0  0
    2.2080   -4.9541    0.3807 H   0  0  0  0  0  0  0  0  0  0  0  0
   -1.3039   -5.4761    0.4369 H   0  0  0  0  0  0  0  0  0  0  0  0
   -3.5234   -1.4180   -0.3889 H   0  0  0  0  0  0  0  0  0  0  0  0
   -1.4902    1.7739    0.1378 H   0  0  0  0  0  0  0  0  0  0  0  0
   -3.2041    2.1940    1.5323 H   0  0  0  0  0  0  0  0  0  0  0  0
   -3.3622    0.4323    1.7461 H   0  0  0  0  0  0  0  0  0  0  0  0
   -5.0698    0.3459   -0.0731 H   0  0  0  0  0  0  0  0  0  0  0  0
   -5.5467    1.4930    1.2145 H   0  0  0  0  0  0  0  0  0  0  0  0
   -5.1687    3.3996   -0.1327 H   0  0  0  0  0  0  0  0  0  0  0  0
   -5.8068    2.2114   -1.3085 H   0  0  0  0  0  0  0  0  0  0  0  0
   -3.9727    2.8862   -2.5551 H   0  0  0  0  0  0  0  0  0  0  0  0
   -3.0851    3.4882   -1.1191 H   0  0  0  0  0  0  0  0  0  0  0  0
   -3.3690    0.5385   -1.9587 H   0  0  0  0  0  0  0  0  0  0  0  0
   -1.9121    1.5620   -2.1857 H   0  0  0  0  0  0  0  0  0  0  0  0
    2.5428   -0.2801    2.5845 H   0  0  0  0  0  0  0  0  0  0  0  0
    4.0885   -0.5959    1.7345 H   0  0  0  0  0  0  0  0  0  0  0  0
    4.2662    1.6420    2.6178 H   0  0  0  0  0  0  0  0  0  0  0  0
    2.6104    2.0670    2.1092 H   0  0  0  0  0  0  0  0  0  0  0  0
  1  2  1  0
  2  3  1  0
  3  4  1  0
  4  5  2  0
  5  6  1  0
  6  7  2  0
  7  8  1  0
  7  9  1  0
  9 10  2  0
 10 11  1  0
 10 12  1  0
 12 13  1  0
 13 14  2  0
 13 15  1  0
 15 16  2  0
 16 17  1  0
 17 18  1  0
 18 19  1  0
 19 20  1  0
 20 21  1  0
 21 22  1  0
 16 23  1  0
 23 24  1  0
  5 25  1  0
 25 26  1  0
 26  2  1  0
 24  6  1  0
 24 12  2  0
 22 17  1  0
  1 27  1  0
  1 28  1  0
  1 29  1  0
  3 30  1  0
  3 31  1  0
  4 32  1  0
  8 33  1  0
  9 34  1  0
 11 35  1  0
 15 36  1  0
 17 37  1  0
 18 38  1  0
 18 39  1  0
 19 40  1  0
 19 41  1  0
 20 42  1  0
 20 43  1  0
 21 44  1  0
 21 45  1  0
 22 46  1  0
 22 47  1  0
 25 48  1  0
 25 49  1  0
 26 50  1  0
 26 51  1  0
M  END
$$$$
