
     RDKit          3D

 53 54  0  0  0  0  0  0  0  0999 V2000
    4.0504   -3.3999    0.5507 C   0  0  0  0  0  0  0  0  0  0  0  0
    4.3613   -2.2241   -0.0085 C   0  0  0  0  0  0  0  0  0  0  0  0
    5.1468   -1.1724    0.7376 C   0  0  0  0  0  0  0  0  0  0  0  0
    4.3519   -0.5621    1.9034 C   0  0  0  0  0  0  0  0  0  0  0  0
    3.1425    0.1799    1.4079 C   0  0  0  0  0  0  0  0  0  0  0  0
    3.1489    1.5074    1.2502 C   0  0  0  0  0  0  0  0  0  0  0  0
    1.9893    2.2280    0.7056 C   0  0  0  0  0  0  0  0  0  0  0  0
    2.0220    3.4869    0.6391 O   0  0  0  0  0  0  0  0  0  0  0  0
    0.8717    1.5190    0.2494 O   0  0  0  0  0  0  0  0  0  0  0  0
   -0.3109    2.1335   -0.2687 C   0  0  2  0  0  0  0  0  0  0  0  0
   -1.1599    2.6393    0.9222 C   0  0  0  0  0  0  0  0  0  0  0  0
   -1.6985    1.5101    1.7725 C   0  0  0  0  0  0  0  0  0  0  0  0
   -2.4791    1.7107    2.8555 C   0  0  0  0  0  0  0  0  0  0  0  0
   -2.8625    3.1012    3.3091 C   0  0  0  0  0  0  0  0  0  0  0  0
   -2.9751    0.5126    3.6206 C   0  0  0  0  0  0  0  0  0  0  0  0
   -1.0438    1.1530   -1.1878 C   0  0  0  0  0  0  0  0  0  0  0  0
   -2.3330    1.3482   -1.5223 C   0  0  0  0  0  0  0  0  0  0  0  0
   -3.0460    0.4261   -2.4216 C   0  0  0  0  0  0  0  0  0  0  0  0
   -4.2093    0.7297   -2.8008 O   0  0  0  0  0  0  0  0  0  0  0  0
   -2.3983   -0.8370   -2.8614 C   0  0  0  0  0  0  0  0  0  0  0  0
   -3.1028   -1.8161   -3.5976 C   0  0  0  0  0  0  0  0  0  0  0  0
   -4.4436   -1.6285   -3.9325 O   0  0  0  0  0  0  0  0  0  0  0  0
   -2.4551   -2.9906   -3.9969 C   0  0  0  0  0  0  0  0  0  0  0  0
   -1.1300   -3.2233   -3.6392 C   0  0  0  0  0  0  0  0  0  0  0  0
   -0.4234   -2.2911   -2.8764 C   0  0  0  0  0  0  0  0  0  0  0  0
    0.8678   -2.6435   -2.4688 O   0  0  0  0  0  0  0  0  0  0  0  0
   -1.0392   -1.0585   -2.5236 C   0  0  0  0  0  0  0  0  0  0  0  0
   -0.2970    0.0489   -1.8602 C   0  0  0  0  0  0  0  0  0  0  0  0
    0.9575    0.1186   -1.9596 O   0  0  0  0  0  0  0  0  0  0  0  0
    4.3397   -3.6261    1.5737 H   0  0  0  0  0  0  0  0  0  0  0  0
    3.5067   -4.1441   -0.0228 H   0  0  0  0  0  0  0  0  0  0  0  0
    4.0825   -2.0389   -1.0432 H   0  0  0  0  0  0  0  0  0  0  0  0
    6.0836   -1.6249    1.1313 H   0  0  0  0  0  0  0  0  0  0  0  0
    5.4393   -0.3639    0.0282 H   0  0  0  0  0  0  0  0  0  0  0  0
    4.0259   -1.3596    2.6052 H   0  0  0  0  0  0  0  0  0  0  0  0
    5.0195    0.1219    2.4767 H   0  0  0  0  0  0  0  0  0  0  0  0
    2.2755   -0.4010    1.1177 H   0  0  0  0  0  0  0  0  0  0  0  0
    4.0270    2.0791    1.5270 H   0  0  0  0  0  0  0  0  0  0  0  0
   -0.0241    3.0074   -0.8950 H   0  0  0  0  0  0  0  0  0  0  0  0
   -1.9928    3.2745    0.5584 H   0  0  0  0  0  0  0  0  0  0  0  0
   -0.5257    3.2917    1.5582 H   0  0  0  0  0  0  0  0  0  0  0  0
   -1.4529    0.4876    1.4915 H   0  0  0  0  0  0  0  0  0  0  0  0
   -3.4789    3.0734    4.2317 H   0  0  0  0  0  0  0  0  0  0  0  0
   -3.4524    3.6087    2.5173 H   0  0  0  0  0  0  0  0  0  0  0  0
   -1.9495    3.6956    3.5287 H   0  0  0  0  0  0  0  0  0  0  0  0
   -3.6497    0.8079    4.4532 H   0  0  0  0  0  0  0  0  0  0  0  0
   -2.1119   -0.0410    4.0504 H   0  0  0  0  0  0  0  0  0  0  0  0
   -3.5375   -0.1606    2.9409 H   0  0  0  0  0  0  0  0  0  0  0  0
   -2.8834    2.1983   -1.1473 H   0  0  0  0  0  0  0  0  0  0  0  0
   -4.9629   -2.3207   -4.4604 H   0  0  0  0  0  0  0  0  0  0  0  0
   -2.9885   -3.7393   -4.5691 H   0  0  0  0  0  0  0  0  0  0  0  0
   -0.6561   -4.1558   -3.9268 H   0  0  0  0  0  0  0  0  0  0  0  0
    1.3643   -2.1762   -1.7232 H   0  0  0  0  0  0  0  0  0  0  0  0
  1  2  2  0
  2  3  1  0
  3  4  1  0
  4  5  1  0
  5  6  2  0
  6  7  1  0
  7  8  2  0
  7  9  1  0
  9 10  1  0
 10 11  1  0
 11 12  1  0
 12 13  2  3
 13 14  1  0
 13 15  1  0
 10 16  1  0
 16 17  2  0
 17 18  1  0
 18 19  2  0
 18 20  1  0
 20 21  2  0
 21 22  1  0
 21 23  1  0
 23 24  2  0
 24 25  1  0
 25 26  1  0
 25 27  2  0
 27 28  1  0
 28 29  2  0
 28 16  1  0
 27 20  1  0
  1 30  1  0
  1 31  1  0
  2 32  1  0
  3 33  1  0
  3 34  1  0
  4 35  1  0
  4 36  1  0
  5 37  1  0
  6 38  1  0
 10 39  1  6
 11 40  1  0
 11 41  1  0
 12 42  1  0
 14 43  1  0
 14 44  1  0
 14 45  1  0
 15 46  1  0
 15 47  1  0
 15 48  1  0
 17 49  1  0
 22 50  1  0
 23 51  1  0
 24 52  1  0
 26 53  1  0
M  END
$$$$
