
     RDKit          3D

 42 44  0  0  0  0  0  0  0  0999 V2000
   -6.2253   -0.9554   -1.4794 C   0  0  0  0  0  0  0  0  0  0  0  0
   -5.5585    0.3680   -1.8327 C   0  0  0  0  0  0  0  0  0  0  0  0
   -4.1273    0.3037   -1.5521 N   0  0  0  0  0  0  0  0  0  0  0  0
   -3.2127   -0.1129   -2.4216 N   0  0  0  0  0  0  0  0  0  0  0  0
   -2.0082   -0.1274   -1.7964 C   0  0  0  0  0  0  0  0  0  0  0  0
   -2.1870    0.2880   -0.4892 C   0  0  0  0  0  0  0  0  0  0  0  0
   -1.3327    0.4007    0.6081 C   0  0  0  0  0  0  0  0  0  0  0  0
    0.0575    0.0790    0.4863 N   0  0  0  0  0  0  0  0  0  0  0  0
    0.9517    0.9180   -0.3100 C   0  0  0  0  0  0  0  0  0  0  0  0
    2.3749    0.4525   -0.1681 C   0  0  0  0  0  0  0  0  0  0  0  0
    2.8816   -0.5397   -1.0191 C   0  0  0  0  0  0  0  0  0  0  0  0
    4.1903   -1.0036   -0.8620 C   0  0  0  0  0  0  0  0  0  0  0  0
    5.0106   -0.4892    0.1610 C   0  0  0  0  0  0  0  0  0  0  0  0
    6.3302   -0.9289    0.3513 O   0  0  0  0  0  0  0  0  0  0  0  0
    6.9737   -1.9166   -0.4473 C   0  0  0  0  0  0  0  0  0  0  0  0
    4.4945    0.4925    1.0218 C   0  0  0  0  0  0  0  0  0  0  0  0
    5.4827    1.1498    2.3176 Cl  0  0  0  0  0  0  0  0  0  0  0  0
    3.1839    0.9554    0.8611 C   0  0  0  0  0  0  0  0  0  0  0  0
   -1.9164    0.7778    1.8517 C   0  0  0  0  0  0  0  0  0  0  0  0
   -1.1037    0.9625    3.0801 C   0  0  0  0  0  0  0  0  0  0  0  0
   -1.6661    1.0209    4.2071 O   0  0  0  0  0  0  0  0  0  0  0  0
    0.2796    1.1004    3.0082 O   0  0  0  0  0  0  0  0  0  0  0  0
   -3.3211    1.0103    1.9062 C   0  0  0  0  0  0  0  0  0  0  0  0
   -4.1016    0.8815    0.7925 N   0  0  0  0  0  0  0  0  0  0  0  0
   -3.5185    0.5331   -0.3782 C   0  0  0  0  0  0  0  0  0  0  0  0
   -7.3111   -0.8985   -1.7044 H   0  0  0  0  0  0  0  0  0  0  0  0
   -6.0939   -1.1729   -0.3981 H   0  0  0  0  0  0  0  0  0  0  0  0
   -5.7774   -1.7791   -2.0748 H   0  0  0  0  0  0  0  0  0  0  0  0
   -6.0235    1.1888   -1.2447 H   0  0  0  0  0  0  0  0  0  0  0  0
   -5.7169    0.5846   -2.9112 H   0  0  0  0  0  0  0  0  0  0  0  0
   -1.0861   -0.4530   -2.2575 H   0  0  0  0  0  0  0  0  0  0  0  0
    0.4534   -0.6484    1.1251 H   0  0  0  0  0  0  0  0  0  0  0  0
    0.6524    0.8848   -1.3780 H   0  0  0  0  0  0  0  0  0  0  0  0
    0.8619    1.9744    0.0253 H   0  0  0  0  0  0  0  0  0  0  0  0
    2.2618   -0.9556   -1.8040 H   0  0  0  0  0  0  0  0  0  0  0  0
    4.5528   -1.7654   -1.5384 H   0  0  0  0  0  0  0  0  0  0  0  0
    7.0212   -1.5810   -1.5048 H   0  0  0  0  0  0  0  0  0  0  0  0
    8.0080   -2.0658   -0.0753 H   0  0  0  0  0  0  0  0  0  0  0  0
    6.4276   -2.8808   -0.3756 H   0  0  0  0  0  0  0  0  0  0  0  0
    2.7955    1.7055    1.5393 H   0  0  0  0  0  0  0  0  0  0  0  0
    0.8349    1.2342    3.8447 H   0  0  0  0  0  0  0  0  0  0  0  0
   -3.7928    1.3015    2.8357 H   0  0  0  0  0  0  0  0  0  0  0  0
  1  2  1  0
  2  3  1  0
  3  4  1  0
  4  5  2  0
  5  6  1  0
  6  7  2  0
  7  8  1  0
  8  9  1  0
  9 10  1  0
 10 11  2  0
 11 12  1  0
 12 13  2  0
 13 14  1  0
 14 15  1  0
 13 16  1  0
 16 17  1  0
 16 18  2  0
  7 19  1  0
 19 20  1  0
 20 21  2  0
 20 22  1  0
 19 23  2  0
 23 24  1  0
 24 25  2  0
 25  3  1  0
 25  6  1  0
 18 10  1  0
  1 26  1  0
  1 27  1  0
  1 28  1  0
  2 29  1  0
  2 30  1  0
  5 31  1  0
  8 32  1  0
  9 33  1  0
  9 34  1  0
 11 35  1  0
 12 36  1  0
 15 37  1  0
 15 38  1  0
 15 39  1  0
 18 40  1  0
 22 41  1  0
 23 42  1  0
M  END
$$$$
