
     RDKit          3D

 50 53  0  0  0  0  0  0  0  0999 V2000
   -6.0930   -0.2183   -0.4932 C   0  0  0  0  0  0  0  0  0  0  0  0
   -4.6732   -0.4216   -1.0291 C   0  0  0  0  0  0  0  0  0  0  0  0
   -3.6584    0.4777   -0.4299 N   0  0  0  0  0  0  0  0  0  0  0  0
   -3.8805    1.9236   -0.6730 C   0  0  0  0  0  0  0  0  0  0  0  0
   -4.6310    2.6541    0.4533 C   0  0  0  0  0  0  0  0  0  0  0  0
   -3.2088    0.1211    0.9345 C   0  0  0  0  0  0  0  0  0  0  0  0
   -2.2478   -1.0762    0.9197 C   0  0  0  0  0  0  0  0  0  0  0  0
   -1.0761   -0.8106    0.0817 N   0  0  0  0  0  0  0  0  0  0  0  0
    0.0688   -1.6798    0.0784 C   0  0  0  0  0  0  0  0  0  0  0  0
   -0.1190   -3.0975    0.0782 C   0  0  0  0  0  0  0  0  0  0  0  0
    0.9791   -3.9842    0.0084 C   0  0  0  0  0  0  0  0  0  0  0  0
    2.2502   -3.4275   -0.0617 C   0  0  0  0  0  0  0  0  0  0  0  0
    3.4504   -4.0438   -0.1279 N   0  0  0  0  0  0  0  0  0  0  0  0
    4.3326   -3.0012   -0.1550 C   0  0  0  0  0  0  0  0  0  0  0  0
    3.7120   -1.7946   -0.1050 N   0  0  0  0  0  0  0  0  0  0  0  0
    4.1585   -0.5087   -0.0852 C   0  0  0  0  0  0  0  0  0  0  0  0
    5.5246   -0.1947   -0.1386 C   0  0  0  0  0  0  0  0  0  0  0  0
    5.9378    1.1385   -0.1058 C   0  0  0  0  0  0  0  0  0  0  0  0
    4.9966    2.1757   -0.0309 C   0  0  0  0  0  0  0  0  0  0  0  0
    5.4552    3.6024    0.0439 C   0  0  0  0  0  0  0  0  0  0  0  0
    3.6284    1.8712    0.0433 C   0  0  0  0  0  0  0  0  0  0  0  0
    3.1891    0.5345    0.0090 C   0  0  0  0  0  0  0  0  0  0  0  0
    1.8002    0.2029    0.0786 C   0  0  0  0  0  0  0  0  0  0  0  0
    0.9446    1.1194    0.2093 O   0  0  0  0  0  0  0  0  0  0  0  0
    1.3981   -1.1584    0.0247 C   0  0  0  0  0  0  0  0  0  0  0  0
    2.4203   -2.0902   -0.0524 C   0  0  0  0  0  0  0  0  0  0  0  0
   -6.7537   -1.0092   -0.9070 H   0  0  0  0  0  0  0  0  0  0  0  0
   -6.1235   -0.2916    0.6124 H   0  0  0  0  0  0  0  0  0  0  0  0
   -6.4984    0.7603   -0.8231 H   0  0  0  0  0  0  0  0  0  0  0  0
   -4.3878   -1.4821   -0.8779 H   0  0  0  0  0  0  0  0  0  0  0  0
   -4.6865   -0.2694   -2.1301 H   0  0  0  0  0  0  0  0  0  0  0  0
   -4.4301    2.0744   -1.6284 H   0  0  0  0  0  0  0  0  0  0  0  0
   -2.8918    2.4135   -0.8052 H   0  0  0  0  0  0  0  0  0  0  0  0
   -5.5156    2.0881    0.8012 H   0  0  0  0  0  0  0  0  0  0  0  0
   -3.9618    2.8371    1.3191 H   0  0  0  0  0  0  0  0  0  0  0  0
   -4.9738    3.6427    0.0821 H   0  0  0  0  0  0  0  0  0  0  0  0
   -4.0730   -0.1019    1.5945 H   0  0  0  0  0  0  0  0  0  0  0  0
   -2.6479    0.9659    1.3910 H   0  0  0  0  0  0  0  0  0  0  0  0
   -2.7713   -1.9863    0.5669 H   0  0  0  0  0  0  0  0  0  0  0  0
   -1.9112   -1.2661    1.9621 H   0  0  0  0  0  0  0  0  0  0  0  0
   -1.0571    0.0475   -0.5127 H   0  0  0  0  0  0  0  0  0  0  0  0
   -1.1144   -3.5183    0.1043 H   0  0  0  0  0  0  0  0  0  0  0  0
    0.8349   -5.0568    0.0025 H   0  0  0  0  0  0  0  0  0  0  0  0
    5.4047   -3.1356   -0.2030 H   0  0  0  0  0  0  0  0  0  0  0  0
    6.2731   -0.9728   -0.2015 H   0  0  0  0  0  0  0  0  0  0  0  0
    6.9967    1.3634   -0.1387 H   0  0  0  0  0  0  0  0  0  0  0  0
    6.4118    3.7365   -0.5049 H   0  0  0  0  0  0  0  0  0  0  0  0
    4.7023    4.2807   -0.4109 H   0  0  0  0  0  0  0  0  0  0  0  0
    5.6041    3.8869    1.1064 H   0  0  0  0  0  0  0  0  0  0  0  0
    2.9115    2.6797    0.1257 H   0  0  0  0  0  0  0  0  0  0  0  0
  1  2  1  0
  2  3  1  0
  3  4  1  0
  4  5  1  0
  3  6  1  0
  6  7  1  0
  7  8  1  0
  8  9  1  0
  9 10  2  0
 10 11  1  0
 11 12  2  0
 12 13  1  0
 13 14  2  0
 14 15  1  0
 15 16  1  0
 16 17  2  0
 17 18  1  0
 18 19  2  0
 19 20  1  0
 19 21  1  0
 21 22  2  0
 22 23  1  0
 23 24  2  0
 23 25  1  0
 25 26  2  0
 25  9  1  0
 26 12  1  0
 26 15  1  0
 22 16  1  0
  1 27  1  0
  1 28  1  0
  1 29  1  0
  2 30  1  0
  2 31  1  0
  4 32  1  0
  4 33  1  0
  5 34  1  0
  5 35  1  0
  5 36  1  0
  6 37  1  0
  6 38  1  0
  7 39  1  0
  7 40  1  0
  8 41  1  0
 10 42  1  0
 11 43  1  0
 14 44  1  0
 17 45  1  0
 18 46  1  0
 20 47  1  0
 20 48  1  0
 20 49  1  0
 21 50  1  0
M  END
$$$$
