
     RDKit          3D

 42 46  0  0  0  0  0  0  0  0999 V2000
    7.9729    2.0984    2.6412 N   0  0  0  0  0  0  0  0  0  0  0  0
    6.9396    1.7638    2.2418 C   0  0  0  0  0  0  0  0  0  0  0  0
    5.6543    1.3477    1.7449 C   0  0  0  0  0  0  0  0  0  0  0  0
    5.5490    0.2121    0.9346 C   0  0  0  0  0  0  0  0  0  0  0  0
    4.3013   -0.1941    0.4510 C   0  0  0  0  0  0  0  0  0  0  0  0
    3.1395    0.5345    0.7706 C   0  0  0  0  0  0  0  0  0  0  0  0
    1.8052    0.1202    0.2698 C   0  0  0  0  0  0  0  0  0  0  0  0
    0.6532    0.6725    0.7101 N   0  0  0  0  0  0  0  0  0  0  0  0
   -0.3149    0.0472    0.0109 C   0  0  0  0  0  0  0  0  0  0  0  0
   -1.7518    0.3156    0.2221 C   0  0  0  0  0  0  0  0  0  0  0  0
   -2.6942   -0.7461    0.2598 C   0  0  0  0  0  0  0  0  0  0  0  0
   -4.0578   -0.4844    0.4846 C   0  0  0  0  0  0  0  0  0  0  0  0
   -4.4411    0.8376    0.6839 C   0  0  0  0  0  0  0  0  0  0  0  0
   -3.5443    1.8553    0.6701 C   0  0  0  0  0  0  0  0  0  0  0  0
   -2.1868    1.6402    0.4505 C   0  0  0  0  0  0  0  0  0  0  0  0
   -4.1997    3.0493    0.9011 O   0  0  0  0  0  0  0  0  0  0  0  0
   -5.5953    2.7634    1.0696 C   0  0  0  0  0  0  0  0  0  0  0  0
   -5.7052    1.3405    0.9240 O   0  0  0  0  0  0  0  0  0  0  0  0
    0.2669   -0.8688   -0.8544 C   0  0  0  0  0  0  0  0  0  0  0  0
   -0.3958   -1.6698   -1.9056 C   0  0  0  0  0  0  0  0  0  0  0  0
    0.1609   -2.8819   -2.3436 C   0  0  0  0  0  0  0  0  0  0  0  0
   -0.4794   -3.6070   -3.3509 C   0  0  0  0  0  0  0  0  0  0  0  0
   -1.6587   -3.1202   -3.9161 C   0  0  0  0  0  0  0  0  0  0  0  0
   -2.1817   -1.9079   -3.4635 C   0  0  0  0  0  0  0  0  0  0  0  0
   -1.5440   -1.2160   -2.4822 N   0  0  0  0  0  0  0  0  0  0  0  0
    1.5998   -0.8191   -0.6792 N   0  0  0  0  0  0  0  0  0  0  0  0
    3.2570    1.6716    1.5915 C   0  0  0  0  0  0  0  0  0  0  0  0
    4.5058    2.0756    2.0731 C   0  0  0  0  0  0  0  0  0  0  0  0
    6.4316   -0.3622    0.6790 H   0  0  0  0  0  0  0  0  0  0  0  0
    4.2557   -1.0847   -0.1591 H   0  0  0  0  0  0  0  0  0  0  0  0
   -2.3722   -1.7716    0.1313 H   0  0  0  0  0  0  0  0  0  0  0  0
   -4.7843   -1.2859    0.5110 H   0  0  0  0  0  0  0  0  0  0  0  0
   -1.4945    2.4728    0.4460 H   0  0  0  0  0  0  0  0  0  0  0  0
   -6.1889    3.2758    0.2837 H   0  0  0  0  0  0  0  0  0  0  0  0
   -5.9300    3.0718    2.0822 H   0  0  0  0  0  0  0  0  0  0  0  0
    1.0696   -3.2717   -1.9031 H   0  0  0  0  0  0  0  0  0  0  0  0
   -0.0625   -4.5459   -3.6917 H   0  0  0  0  0  0  0  0  0  0  0  0
   -2.1616   -3.6758   -4.6970 H   0  0  0  0  0  0  0  0  0  0  0  0
   -3.0937   -1.5154   -3.8928 H   0  0  0  0  0  0  0  0  0  0  0  0
    2.3172   -1.3476   -1.2217 H   0  0  0  0  0  0  0  0  0  0  0  0
    2.3840    2.2541    1.8580 H   0  0  0  0  0  0  0  0  0  0  0  0
    4.5750    2.9558    2.7012 H   0  0  0  0  0  0  0  0  0  0  0  0
  1  2  3  0
  2  3  1  0
  3  4  2  0
  4  5  1  0
  5  6  2  0
  6  7  1  0
  7  8  2  0
  8  9  1  0
  9 10  1  0
 10 11  2  0
 11 12  1  0
 12 13  2  0
 13 14  1  0
 14 15  2  0
 14 16  1  0
 16 17  1  0
 17 18  1  0
  9 19  2  0
 19 20  1  0
 20 21  2  0
 21 22  1  0
 22 23  2  0
 23 24  1  0
 24 25  2  0
 19 26  1  0
  6 27  1  0
 27 28  2  0
 28  3  1  0
 26  7  1  0
 15 10  1  0
 25 20  1  0
 18 13  1  0
  4 29  1  0
  5 30  1  0
 11 31  1  0
 12 32  1  0
 15 33  1  0
 17 34  1  0
 17 35  1  0
 21 36  1  0
 22 37  1  0
 23 38  1  0
 24 39  1  0
 26 40  1  0
 27 41  1  0
 28 42  1  0
M  END
$$$$
