
     RDKit          3D

 55 58  0  0  0  0  0  0  0  0999 V2000
    2.3101    3.2779    2.8693 C   0  0  0  0  0  0  0  0  0  0  0  0
    3.5546    3.0164    2.0210 C   0  0  0  0  0  0  0  0  0  0  0  0
    3.6651    1.5542    1.5624 C   0  0  0  0  0  0  0  0  0  0  0  0
    2.5853    1.1758    0.5367 C   0  0  0  0  0  0  0  0  0  0  0  0
    2.7921   -0.2070   -0.0277 C   0  0  0  0  0  0  0  0  0  0  0  0
    3.4880   -1.1707    0.6318 N   0  0  0  0  0  0  0  0  0  0  0  0
    3.3368   -2.2466   -0.1569 C   0  0  0  0  0  0  0  0  0  0  0  0
    3.8338   -3.5218    0.0491 C   0  0  0  0  0  0  0  0  0  0  0  0
    3.5261   -4.4774   -0.8731 N   0  0  0  0  0  0  0  0  0  0  0  0
    2.7666   -4.2164   -1.9508 N   0  0  0  0  0  0  0  0  0  0  0  0
    2.4837   -5.3041   -2.8867 C   0  0  0  0  0  0  0  0  0  0  0  0
    2.2606   -2.9559   -2.1699 C   0  0  0  0  0  0  0  0  0  0  0  0
    1.5450   -2.7173   -3.1795 O   0  0  0  0  0  0  0  0  0  0  0  0
    2.5682   -1.9568   -1.2378 C   0  0  0  0  0  0  0  0  0  0  0  0
    2.2090   -0.6554   -1.1771 N   0  0  0  0  0  0  0  0  0  0  0  0
    1.3060    0.0978   -2.0579 C   0  0  0  0  0  0  0  0  0  0  0  0
   -0.0592    0.2169   -1.4334 C   0  0  0  0  0  0  0  0  0  0  0  0
   -0.8622   -0.9224   -1.2685 C   0  0  0  0  0  0  0  0  0  0  0  0
   -2.1191   -0.8199   -0.6663 C   0  0  0  0  0  0  0  0  0  0  0  0
   -2.5951    0.4253   -0.2280 C   0  0  0  0  0  0  0  0  0  0  0  0
   -3.9166    0.5287    0.4311 C   0  0  0  0  0  0  0  0  0  0  0  0
   -4.1264   -0.2070    1.6108 C   0  0  0  0  0  0  0  0  0  0  0  0
   -5.3188   -0.0836    2.3241 C   0  0  0  0  0  0  0  0  0  0  0  0
   -6.3165    0.7774    1.8723 C   0  0  0  0  0  0  0  0  0  0  0  0
   -6.1333    1.5063    0.6962 C   0  0  0  0  0  0  0  0  0  0  0  0
   -4.9450    1.3848   -0.0496 C   0  0  0  0  0  0  0  0  0  0  0  0
   -4.8355    2.1189   -1.3350 C   0  0  0  0  0  0  0  0  0  0  0  0
   -5.5042    3.1716   -1.5206 O   0  0  0  0  0  0  0  0  0  0  0  0
   -4.0292    1.6375   -2.3629 O   0  0  0  0  0  0  0  0  0  0  0  0
   -1.7877    1.5633   -0.3814 C   0  0  0  0  0  0  0  0  0  0  0  0
   -0.5317    1.4609   -0.9850 C   0  0  0  0  0  0  0  0  0  0  0  0
    1.3896    3.1817    2.2568 H   0  0  0  0  0  0  0  0  0  0  0  0
    2.3493    4.3118    3.2723 H   0  0  0  0  0  0  0  0  0  0  0  0
    2.2642    2.5678    3.7222 H   0  0  0  0  0  0  0  0  0  0  0  0
    3.5534    3.6945    1.1400 H   0  0  0  0  0  0  0  0  0  0  0  0
    4.4507    3.2611    2.6316 H   0  0  0  0  0  0  0  0  0  0  0  0
    3.6026    0.8812    2.4459 H   0  0  0  0  0  0  0  0  0  0  0  0
    4.6661    1.4145    1.0980 H   0  0  0  0  0  0  0  0  0  0  0  0
    2.6042    1.9169   -0.2890 H   0  0  0  0  0  0  0  0  0  0  0  0
    1.5860    1.2020    1.0181 H   0  0  0  0  0  0  0  0  0  0  0  0
    4.4415   -3.7600    0.9118 H   0  0  0  0  0  0  0  0  0  0  0  0
    2.9754   -6.2445   -2.5562 H   0  0  0  0  0  0  0  0  0  0  0  0
    2.8670   -5.0436   -3.8962 H   0  0  0  0  0  0  0  0  0  0  0  0
    1.3883   -5.4805   -2.9407 H   0  0  0  0  0  0  0  0  0  0  0  0
    1.2179   -0.3783   -3.0523 H   0  0  0  0  0  0  0  0  0  0  0  0
    1.7379    1.1009   -2.2595 H   0  0  0  0  0  0  0  0  0  0  0  0
   -0.5145   -1.8915   -1.6005 H   0  0  0  0  0  0  0  0  0  0  0  0
   -2.7244   -1.7101   -0.5468 H   0  0  0  0  0  0  0  0  0  0  0  0
   -3.3522   -0.8615    1.9932 H   0  0  0  0  0  0  0  0  0  0  0  0
   -5.4649   -0.6494    3.2352 H   0  0  0  0  0  0  0  0  0  0  0  0
   -7.2390    0.8743    2.4301 H   0  0  0  0  0  0  0  0  0  0  0  0
   -6.9354    2.1496    0.3557 H   0  0  0  0  0  0  0  0  0  0  0  0
   -3.9585    2.1314   -3.2444 H   0  0  0  0  0  0  0  0  0  0  0  0
   -2.1303    2.5289   -0.0300 H   0  0  0  0  0  0  0  0  0  0  0  0
    0.0749    2.3514   -1.0928 H   0  0  0  0  0  0  0  0  0  0  0  0
  1  2  1  0
  2  3  1  0
  3  4  1  0
  4  5  1  0
  5  6  2  0
  6  7  1  0
  7  8  1  0
  8  9  2  0
  9 10  1  0
 10 11  1  0
 10 12  1  0
 12 13  2  0
 12 14  1  0
 14 15  1  0
 15 16  1  0
 16 17  1  0
 17 18  2  0
 18 19  1  0
 19 20  2  0
 20 21  1  0
 21 22  2  0
 22 23  1  0
 23 24  2  0
 24 25  1  0
 25 26  2  0
 26 27  1  0
 27 28  2  0
 27 29  1  0
 20 30  1  0
 30 31  2  0
 15  5  1  0
 31 17  1  0
 14  7  2  0
 26 21  1  0
  1 32  1  0
  1 33  1  0
  1 34  1  0
  2 35  1  0
  2 36  1  0
  3 37  1  0
  3 38  1  0
  4 39  1  0
  4 40  1  0
  8 41  1  0
 11 42  1  0
 11 43  1  0
 11 44  1  0
 16 45  1  0
 16 46  1  0
 18 47  1  0
 19 48  1  0
 22 49  1  0
 23 50  1  0
 24 51  1  0
 25 52  1  0
 29 53  1  0
 30 54  1  0
 31 55  1  0
M  END
$$$$
