
     RDKit          3D

 53 56  0  0  0  0  0  0  0  0999 V2000
    4.1860   -2.2473    1.8050 C   0  0  0  0  0  0  0  0  0  0  0  0
    3.9499   -0.9346    1.0596 C   0  0  0  0  0  0  0  0  0  0  0  0
    3.4974   -1.1623   -0.3929 C   0  0  0  0  0  0  0  0  0  0  0  0
    2.0791   -1.6975   -0.4775 C   0  0  0  0  0  0  0  0  0  0  0  0
    1.9367   -3.0782   -0.6801 C   0  0  0  0  0  0  0  0  0  0  0  0
    0.6682   -3.6388   -0.7671 C   0  0  0  0  0  0  0  0  0  0  0  0
    0.5387   -4.8768   -0.9546 O   0  0  0  0  0  0  0  0  0  0  0  0
   -0.4082   -2.8785   -0.6530 O   0  0  0  0  0  0  0  0  0  0  0  0
   -0.3553   -1.5651   -0.4488 C   0  0  0  0  0  0  0  0  0  0  0  0
   -1.5625   -0.8499   -0.3345 C   0  0  0  0  0  0  0  0  0  0  0  0
   -1.5352    0.5419   -0.1487 C   0  0  0  0  0  0  0  0  0  0  0  0
   -0.3104    1.2110   -0.0369 C   0  0  0  0  0  0  0  0  0  0  0  0
    0.9001    0.5052   -0.1378 C   0  0  0  0  0  0  0  0  0  0  0  0
    0.8996   -0.9002   -0.3477 C   0  0  0  0  0  0  0  0  0  0  0  0
    2.0911    1.2262    0.0033 O   0  0  0  0  0  0  0  0  0  0  0  0
    2.1887    2.6484   -0.1333 C   0  0  0  0  0  0  0  0  0  0  0  0
    2.5195    2.9803   -1.5939 C   0  0  0  0  0  0  0  0  0  0  0  0
    3.3141    3.1399    0.7834 C   0  0  0  0  0  0  0  0  0  0  0  0
    0.8911    3.3248    0.2485 C   0  0  0  0  0  0  0  0  0  0  0  0
   -0.2667    2.6625    0.2348 C   0  0  0  0  0  0  0  0  0  0  0  0
   -2.7316    1.2646   -0.0444 O   0  0  0  0  0  0  0  0  0  0  0  0
   -4.0170    0.6944   -0.2902 C   0  0  2  0  0  0  0  0  0  0  0  0
   -5.0688    1.5634    0.4031 C   0  0  0  0  0  0  0  0  0  0  0  0
   -4.0365   -0.7741    0.1983 C   0  0  1  0  0  0  0  0  0  0  0  0
   -5.3933   -1.4589   -0.0400 C   0  0  0  0  0  0  0  0  0  0  0  0
   -2.8914   -1.5613   -0.4854 C   0  0  1  0  0  0  0  0  0  0  0  0
   -3.1508   -1.7230   -1.8581 O   0  0  0  0  0  0  0  0  0  0  0  0
    3.2362   -2.8134    1.9060 H   0  0  0  0  0  0  0  0  0  0  0  0
    4.9317   -2.8707    1.2674 H   0  0  0  0  0  0  0  0  0  0  0  0
    4.5738   -2.0305    2.8225 H   0  0  0  0  0  0  0  0  0  0  0  0
    3.2004   -0.3361    1.6187 H   0  0  0  0  0  0  0  0  0  0  0  0
    4.9008   -0.3594    1.0483 H   0  0  0  0  0  0  0  0  0  0  0  0
    4.2088   -1.8661   -0.8795 H   0  0  0  0  0  0  0  0  0  0  0  0
    3.6035   -0.2361   -0.9913 H   0  0  0  0  0  0  0  0  0  0  0  0
    2.8069   -3.7187   -0.7701 H   0  0  0  0  0  0  0  0  0  0  0  0
    1.7112    2.6147   -2.2634 H   0  0  0  0  0  0  0  0  0  0  0  0
    2.6283    4.0777   -1.7344 H   0  0  0  0  0  0  0  0  0  0  0  0
    3.4681    2.4862   -1.8952 H   0  0  0  0  0  0  0  0  0  0  0  0
    3.0757    2.9002    1.8421 H   0  0  0  0  0  0  0  0  0  0  0  0
    3.4519    4.2389    0.6885 H   0  0  0  0  0  0  0  0  0  0  0  0
    4.2701    2.6372    0.5218 H   0  0  0  0  0  0  0  0  0  0  0  0
    0.8823    4.3926    0.4341 H   0  0  0  0  0  0  0  0  0  0  0  0
   -1.1799    3.2069    0.4413 H   0  0  0  0  0  0  0  0  0  0  0  0
   -4.2078    0.7214   -1.3860 H   0  0  0  0  0  0  0  0  0  0  0  0
   -6.0921    1.2643    0.0948 H   0  0  0  0  0  0  0  0  0  0  0  0
   -4.9254    2.6260    0.1131 H   0  0  0  0  0  0  0  0  0  0  0  0
   -4.9749    1.4817    1.5070 H   0  0  0  0  0  0  0  0  0  0  0  0
   -3.8444   -0.7820    1.2954 H   0  0  0  0  0  0  0  0  0  0  0  0
   -5.3226   -2.5431    0.1919 H   0  0  0  0  0  0  0  0  0  0  0  0
   -5.7187   -1.3376   -1.0952 H   0  0  0  0  0  0  0  0  0  0  0  0
   -6.1680   -1.0280    0.6277 H   0  0  0  0  0  0  0  0  0  0  0  0
   -2.8190   -2.5561    0.0172 H   0  0  0  0  0  0  0  0  0  0  0  0
   -3.6292   -2.5860   -1.9677 H   0  0  0  0  0  0  0  0  0  0  0  0
  1  2  1  0
  2  3  1  0
  3  4  1  0
  4  5  2  0
  5  6  1  0
  6  7  2  0
  6  8  1  0
  8  9  1  0
  9 10  2  0
 10 11  1  0
 11 12  2  0
 12 13  1  0
 13 14  2  0
 13 15  1  0
 15 16  1  0
 16 17  1  0
 16 18  1  0
 16 19  1  0
 19 20  2  0
 11 21  1  0
 21 22  1  0
 22 23  1  0
 22 24  1  0
 24 25  1  0
 24 26  1  0
 26 27  1  0
 14  4  1  0
 14  9  1  0
 26 10  1  0
 20 12  1  0
  1 28  1  0
  1 29  1  0
  1 30  1  0
  2 31  1  0
  2 32  1  0
  3 33  1  0
  3 34  1  0
  5 35  1  0
 17 36  1  0
 17 37  1  0
 17 38  1  0
 18 39  1  0
 18 40  1  0
 18 41  1  0
 19 42  1  0
 20 43  1  0
 22 44  1  6
 23 45  1  0
 23 46  1  0
 23 47  1  0
 24 48  1  1
 25 49  1  0
 25 50  1  0
 25 51  1  0
 26 52  1  1
 27 53  1  0
M  END
$$$$
