
     RDKit          3D

 58 60  0  0  0  0  0  0  0  0999 V2000
    7.6225    0.5260    0.4557 C   0  0  0  0  0  0  0  0  0  0  0  0
    6.6117   -0.3814    0.8770 O   0  0  0  0  0  0  0  0  0  0  0  0
    5.3850   -0.4643    0.2122 C   0  0  0  0  0  0  0  0  0  0  0  0
    4.3235    0.3884    0.5751 C   0  0  0  0  0  0  0  0  0  0  0  0
    4.4915    1.4112    1.6637 C   0  0  0  0  0  0  0  0  0  0  0  0
    3.1125    0.3240   -0.1290 C   0  0  0  0  0  0  0  0  0  0  0  0
    2.9305   -0.6077   -1.1624 C   0  0  0  0  0  0  0  0  0  0  0  0
    1.6474   -0.6711   -1.9010 C   0  0  0  0  0  0  0  0  0  0  0  0
    1.6332   -1.1107   -3.0839 O   0  0  0  0  0  0  0  0  0  0  0  0
    0.4192   -0.2242   -1.2996 N   0  0  0  0  0  0  0  0  0  0  0  0
   -0.6005    0.4193   -2.1346 C   0  0  0  0  0  0  0  0  0  0  0  0
   -1.3572    1.4718   -1.3225 C   0  0  0  0  0  0  0  0  0  0  0  0
   -1.7783    0.9094   -0.0375 N   0  0  0  0  0  0  0  0  0  0  0  0
   -2.9542    1.4347    0.5906 C   0  0  0  0  0  0  0  0  0  0  0  0
   -2.9902    2.7514    0.9351 N   0  0  0  0  0  0  0  0  0  0  0  0
   -4.0795    3.3139    1.5177 C   0  0  0  0  0  0  0  0  0  0  0  0
   -5.2066    2.5387    1.7806 C   0  0  0  0  0  0  0  0  0  0  0  0
   -5.2055    1.1879    1.4323 C   0  0  0  0  0  0  0  0  0  0  0  0
   -4.0810    0.6148    0.8149 C   0  0  0  0  0  0  0  0  0  0  0  0
   -4.0538   -0.7763    0.4293 N   0  0  0  0  0  0  0  0  0  0  0  0
   -5.1501   -1.5202   -0.2091 C   0  0  0  0  0  0  0  0  0  0  0  0
   -6.0490   -2.1949    0.8307 C   0  0  0  0  0  0  0  0  0  0  0  0
   -5.9458   -0.6575   -1.1965 C   0  0  0  0  0  0  0  0  0  0  0  0
   -0.7638    0.2628    0.7998 C   0  0  0  0  0  0  0  0  0  0  0  0
   -0.0072   -0.7890   -0.0125 C   0  0  0  0  0  0  0  0  0  0  0  0
    3.9882   -1.4632   -1.5067 C   0  0  0  0  0  0  0  0  0  0  0  0
    5.2065   -1.4126   -0.8132 C   0  0  0  0  0  0  0  0  0  0  0  0
    6.3292   -2.3286   -1.2133 C   0  0  0  0  0  0  0  0  0  0  0  0
    8.5061    0.4206    1.1177 H   0  0  0  0  0  0  0  0  0  0  0  0
    7.2507    1.5699    0.5150 H   0  0  0  0  0  0  0  0  0  0  0  0
    7.9252    0.3000   -0.5884 H   0  0  0  0  0  0  0  0  0  0  0  0
    5.1379    1.0185    2.4776 H   0  0  0  0  0  0  0  0  0  0  0  0
    3.5108    1.6762    2.1122 H   0  0  0  0  0  0  0  0  0  0  0  0
    4.9509    2.3291    1.2419 H   0  0  0  0  0  0  0  0  0  0  0  0
    2.3143    1.0115    0.1238 H   0  0  0  0  0  0  0  0  0  0  0  0
   -0.1312    0.9170   -3.0109 H   0  0  0  0  0  0  0  0  0  0  0  0
   -1.3112   -0.3507   -2.5048 H   0  0  0  0  0  0  0  0  0  0  0  0
   -0.6977    2.3484   -1.1408 H   0  0  0  0  0  0  0  0  0  0  0  0
   -2.2415    1.8111   -1.9060 H   0  0  0  0  0  0  0  0  0  0  0  0
   -4.0683    4.3632    1.7798 H   0  0  0  0  0  0  0  0  0  0  0  0
   -6.0746    2.9807    2.2522 H   0  0  0  0  0  0  0  0  0  0  0  0
   -6.0811    0.6037    1.6572 H   0  0  0  0  0  0  0  0  0  0  0  0
   -3.1243   -1.2502    0.4073 H   0  0  0  0  0  0  0  0  0  0  0  0
   -4.6920   -2.3418   -0.8049 H   0  0  0  0  0  0  0  0  0  0  0  0
   -5.4272   -2.7434    1.5683 H   0  0  0  0  0  0  0  0  0  0  0  0
   -6.7163   -2.9274    0.3296 H   0  0  0  0  0  0  0  0  0  0  0  0
   -6.6867   -1.4698    1.3686 H   0  0  0  0  0  0  0  0  0  0  0  0
   -5.2520   -0.1381   -1.8897 H   0  0  0  0  0  0  0  0  0  0  0  0
   -6.6224   -1.3012   -1.7962 H   0  0  0  0  0  0  0  0  0  0  0  0
   -6.5643    0.0972   -0.6715 H   0  0  0  0  0  0  0  0  0  0  0  0
   -1.2357   -0.2279    1.6795 H   0  0  0  0  0  0  0  0  0  0  0  0
   -0.0518    1.0310    1.1717 H   0  0  0  0  0  0  0  0  0  0  0  0
    0.8608   -1.1483    0.5800 H   0  0  0  0  0  0  0  0  0  0  0  0
   -0.6717   -1.6602   -0.2019 H   0  0  0  0  0  0  0  0  0  0  0  0
    3.8610   -2.1792   -2.3099 H   0  0  0  0  0  0  0  0  0  0  0  0
    7.0318   -1.7847   -1.8776 H   0  0  0  0  0  0  0  0  0  0  0  0
    6.8771   -2.6874   -0.3170 H   0  0  0  0  0  0  0  0  0  0  0  0
    5.9452   -3.2206   -1.7520 H   0  0  0  0  0  0  0  0  0  0  0  0
  1  2  1  0
  2  3  1  0
  3  4  2  0
  4  5  1  0
  4  6  1  0
  6  7  2  0
  7  8  1  0
  8  9  2  0
  8 10  1  0
 10 11  1  0
 11 12  1  0
 12 13  1  0
 13 14  1  0
 14 15  2  0
 15 16  1  0
 16 17  2  0
 17 18  1  0
 18 19  2  0
 19 20  1  0
 20 21  1  0
 21 22  1  0
 21 23  1  0
 13 24  1  0
 24 25  1  0
  7 26  1  0
 26 27  2  0
 27 28  1  0
 27  3  1  0
 25 10  1  0
 19 14  1  0
  1 29  1  0
  1 30  1  0
  1 31  1  0
  5 32  1  0
  5 33  1  0
  5 34  1  0
  6 35  1  0
 11 36  1  0
 11 37  1  0
 12 38  1  0
 12 39  1  0
 16 40  1  0
 17 41  1  0
 18 42  1  0
 20 43  1  0
 21 44  1  0
 22 45  1  0
 22 46  1  0
 22 47  1  0
 23 48  1  0
 23 49  1  0
 23 50  1  0
 24 51  1  0
 24 52  1  0
 25 53  1  0
 25 54  1  0
 26 55  1  0
 28 56  1  0
 28 57  1  0
 28 58  1  0
M  END
$$$$
