
     RDKit          3D

 57 60  0  0  0  0  0  0  0  0999 V2000
   -7.2548    1.5017   -1.0885 C   0  0  0  0  0  0  0  0  0  0  0  0
   -6.3529    0.8881   -0.0215 C   0  0  0  0  0  0  0  0  0  0  0  0
   -5.1895    1.8284    0.3255 C   0  0  0  0  0  0  0  0  0  0  0  0
   -4.2933    1.2588    1.4338 C   0  0  0  0  0  0  0  0  0  0  0  0
   -3.5615    0.0291    0.9806 C   0  0  0  0  0  0  0  0  0  0  0  0
   -3.9632   -1.1947    1.2741 O   0  0  0  0  0  0  0  0  0  0  0  0
   -3.1338   -2.0345    0.7041 C   0  0  0  0  0  0  0  0  0  0  0  0
   -3.1719   -3.4262    0.7496 C   0  0  0  0  0  0  0  0  0  0  0  0
   -2.1728   -4.1344    0.0568 C   0  0  0  0  0  0  0  0  0  0  0  0
   -1.1717   -3.4420   -0.6598 C   0  0  0  0  0  0  0  0  0  0  0  0
   -1.1593   -2.0358   -0.6885 C   0  0  0  0  0  0  0  0  0  0  0  0
   -2.1606   -1.3615    0.0116 C   0  0  0  0  0  0  0  0  0  0  0  0
   -2.4178   -0.0152    0.1773 C   0  0  0  0  0  0  0  0  0  0  0  0
   -1.6112    1.1380   -0.3528 C   0  0  0  0  0  0  0  0  0  0  0  0
   -0.2856    1.2287    0.3558 C   0  0  0  0  0  0  0  0  0  0  0  0
   -0.2301    1.6235    1.7013 C   0  0  0  0  0  0  0  0  0  0  0  0
    0.9957    1.6894    2.3665 C   0  0  0  0  0  0  0  0  0  0  0  0
    2.1763    1.3561    1.6979 C   0  0  0  0  0  0  0  0  0  0  0  0
    2.1418    0.9576    0.3499 C   0  0  0  0  0  0  0  0  0  0  0  0
    3.3904    0.5889   -0.3631 C   0  0  0  0  0  0  0  0  0  0  0  0
    3.3907   -0.6317   -1.2507 C   0  0  0  0  0  0  0  0  0  0  0  0
    4.4725    1.3863   -0.2645 C   0  0  0  0  0  0  0  0  0  0  0  0
    5.7761    1.1293   -0.9699 C   0  0  0  0  0  0  0  0  0  0  0  0
    6.4896    0.0185   -0.3441 N   0  0  0  0  0  0  0  0  0  0  0  0
    6.5958   -0.1855    0.9357 O   0  0  0  0  0  0  0  0  0  0  0  0
    7.3652   -1.2340    1.1241 C   0  0  0  0  0  0  0  0  0  0  0  0
    7.6596   -1.6987    2.2569 O   0  0  0  0  0  0  0  0  0  0  0  0
    7.8077   -1.7513   -0.0392 N   0  0  0  0  0  0  0  0  0  0  0  0
    7.2427   -0.9264   -0.9399 C   0  0  0  0  0  0  0  0  0  0  0  0
    7.4045   -1.0273   -2.1852 O   0  0  0  0  0  0  0  0  0  0  0  0
    0.9046    0.9032   -0.3154 C   0  0  0  0  0  0  0  0  0  0  0  0
   -7.6830    2.4614   -0.7277 H   0  0  0  0  0  0  0  0  0  0  0  0
   -8.0885    0.8044   -1.3176 H   0  0  0  0  0  0  0  0  0  0  0  0
   -6.6781    1.6850   -2.0204 H   0  0  0  0  0  0  0  0  0  0  0  0
   -6.9574    0.6867    0.8891 H   0  0  0  0  0  0  0  0  0  0  0  0
   -5.9588   -0.0777   -0.4046 H   0  0  0  0  0  0  0  0  0  0  0  0
   -5.6009    2.8004    0.6763 H   0  0  0  0  0  0  0  0  0  0  0  0
   -4.5828    2.0262   -0.5853 H   0  0  0  0  0  0  0  0  0  0  0  0
   -3.5598    2.0315    1.7449 H   0  0  0  0  0  0  0  0  0  0  0  0
   -4.9092    1.0136    2.3260 H   0  0  0  0  0  0  0  0  0  0  0  0
   -3.9449   -3.9457    1.3006 H   0  0  0  0  0  0  0  0  0  0  0  0
   -2.1726   -5.2165    0.0720 H   0  0  0  0  0  0  0  0  0  0  0  0
   -0.4098   -3.9968   -1.1919 H   0  0  0  0  0  0  0  0  0  0  0  0
   -0.4002   -1.5026   -1.2420 H   0  0  0  0  0  0  0  0  0  0  0  0
   -1.4701    1.0033   -1.4463 H   0  0  0  0  0  0  0  0  0  0  0  0
   -2.1587    2.0926   -0.2181 H   0  0  0  0  0  0  0  0  0  0  0  0
   -1.1368    1.8747    2.2364 H   0  0  0  0  0  0  0  0  0  0  0  0
    1.0305    1.9898    3.4048 H   0  0  0  0  0  0  0  0  0  0  0  0
    3.1144    1.3949    2.2378 H   0  0  0  0  0  0  0  0  0  0  0  0
    2.4992   -1.2651   -1.0549 H   0  0  0  0  0  0  0  0  0  0  0  0
    4.2833   -1.2604   -1.0578 H   0  0  0  0  0  0  0  0  0  0  0  0
    3.3781   -0.3194   -2.3160 H   0  0  0  0  0  0  0  0  0  0  0  0
    4.4164    2.2851    0.3388 H   0  0  0  0  0  0  0  0  0  0  0  0
    6.4089    2.0397   -0.9021 H   0  0  0  0  0  0  0  0  0  0  0  0
    5.5931    0.9239   -2.0468 H   0  0  0  0  0  0  0  0  0  0  0  0
    8.4351   -2.5703   -0.1998 H   0  0  0  0  0  0  0  0  0  0  0  0
    0.8694    0.6152   -1.3598 H   0  0  0  0  0  0  0  0  0  0  0  0
  1  2  1  0
  2  3  1  0
  3  4  1  0
  4  5  1  0
  5  6  1  0
  6  7  1  0
  7  8  2  0
  8  9  1  0
  9 10  2  0
 10 11  1  0
 11 12  2  0
 12 13  1  0
 13 14  1  0
 14 15  1  0
 15 16  2  0
 16 17  1  0
 17 18  2  0
 18 19  1  0
 19 20  1  0
 20 21  1  0
 20 22  2  0
 22 23  1  0
 23 24  1  0
 24 25  1  0
 25 26  1  0
 26 27  2  0
 26 28  1  0
 28 29  1  0
 29 30  2  0
 19 31  2  0
 13  5  2  0
 31 15  1  0
 12  7  1  0
 29 24  1  0
  1 32  1  0
  1 33  1  0
  1 34  1  0
  2 35  1  0
  2 36  1  0
  3 37  1  0
  3 38  1  0
  4 39  1  0
  4 40  1  0
  8 41  1  0
  9 42  1  0
 10 43  1  0
 11 44  1  0
 14 45  1  0
 14 46  1  0
 16 47  1  0
 17 48  1  0
 18 49  1  0
 21 50  1  0
 21 51  1  0
 21 52  1  0
 22 53  1  0
 23 54  1  0
 23 55  1  0
 28 56  1  0
 31 57  1  0
M  END
$$$$
