
     RDKit          3D

 39 41  0  0  0  0  0  0  0  0999 V2000
   -5.2074   -0.0372   -0.4910 C   0  0  0  0  0  0  0  0  0  0  0  0
   -4.2111   -0.2261    0.5617 N   0  0  0  0  0  0  0  0  0  0  0  0
   -4.6257   -0.3642    1.9562 C   0  0  0  0  0  0  0  0  0  0  0  0
   -2.8490   -0.4871    0.1952 C   0  0  0  0  0  0  0  0  0  0  0  0
   -2.4570   -1.8054   -0.0564 C   0  0  0  0  0  0  0  0  0  0  0  0
   -1.1432   -2.0941   -0.4143 C   0  0  0  0  0  0  0  0  0  0  0  0
   -0.2018   -1.0718   -0.5262 C   0  0  0  0  0  0  0  0  0  0  0  0
   -0.5602    0.2705   -0.2772 C   0  0  0  0  0  0  0  0  0  0  0  0
    0.3805    1.3318   -0.3812 C   0  0  0  0  0  0  0  0  0  0  0  0
    2.0756    1.0584   -0.8285 S   0  0  0  0  0  6  0  0  0  0  0  0
    2.8165    2.3657   -0.8809 O   0  0  0  0  0  0  0  0  0  0  0  0
    2.1252    0.4095   -2.1837 O   0  0  0  0  0  0  0  0  0  0  0  0
    2.8206    0.0343    0.3586 N   0  0  0  0  0  0  0  0  0  0  0  0
    4.1467   -0.5037    0.2411 C   0  0  0  0  0  0  0  0  0  0  0  0
    5.0085   -0.1528   -0.8096 C   0  0  0  0  0  0  0  0  0  0  0  0
    6.2838   -0.7122   -0.8612 C   0  0  0  0  0  0  0  0  0  0  0  0
    6.6761   -1.6052    0.1340 C   0  0  0  0  0  0  0  0  0  0  0  0
    8.2722   -2.3278    0.1045 Cl  0  0  0  0  0  0  0  0  0  0  0  0
    5.8113   -1.9121    1.1343 N   0  0  0  0  0  0  0  0  0  0  0  0
    4.5890   -1.3787    1.1855 N   0  0  0  0  0  0  0  0  0  0  0  0
   -0.0337    2.6459   -0.1166 C   0  0  0  0  0  0  0  0  0  0  0  0
   -1.3497    2.9209    0.2449 C   0  0  0  0  0  0  0  0  0  0  0  0
   -2.2804    1.8920    0.3494 C   0  0  0  0  0  0  0  0  0  0  0  0
   -1.9059    0.5614    0.0908 C   0  0  0  0  0  0  0  0  0  0  0  0
   -6.2281    0.0517   -0.0601 H   0  0  0  0  0  0  0  0  0  0  0  0
   -4.9790    0.8909   -1.0574 H   0  0  0  0  0  0  0  0  0  0  0  0
   -5.1904   -0.9030   -1.1875 H   0  0  0  0  0  0  0  0  0  0  0  0
   -3.7449   -0.3305    2.6335 H   0  0  0  0  0  0  0  0  0  0  0  0
   -5.1504   -1.3329    2.0947 H   0  0  0  0  0  0  0  0  0  0  0  0
   -5.3085    0.4671    2.2316 H   0  0  0  0  0  0  0  0  0  0  0  0
   -3.1769   -2.6103    0.0260 H   0  0  0  0  0  0  0  0  0  0  0  0
   -0.8514   -3.1187   -0.6072 H   0  0  0  0  0  0  0  0  0  0  0  0
    0.8025   -1.3518   -0.8066 H   0  0  0  0  0  0  0  0  0  0  0  0
    2.2517   -0.2263    1.1946 H   0  0  0  0  0  0  0  0  0  0  0  0
    4.7143    0.5462   -1.5798 H   0  0  0  0  0  0  0  0  0  0  0  0
    6.9604   -0.4511   -1.6647 H   0  0  0  0  0  0  0  0  0  0  0  0
    0.6637    3.4700   -0.1876 H   0  0  0  0  0  0  0  0  0  0  0  0
   -1.6505    3.9413    0.4463 H   0  0  0  0  0  0  0  0  0  0  0  0
   -3.2935    2.1451    0.6353 H   0  0  0  0  0  0  0  0  0  0  0  0
  1  2  1  0
  2  3  1  0
  2  4  1  0
  4  5  2  0
  5  6  1  0
  6  7  2  0
  7  8  1  0
  8  9  2  0
  9 10  1  0
 10 11  2  0
 10 12  2  0
 10 13  1  0
 13 14  1  0
 14 15  2  0
 15 16  1  0
 16 17  2  0
 17 18  1  0
 17 19  1  0
 19 20  2  0
  9 21  1  0
 21 22  2  0
 22 23  1  0
 23 24  2  0
 24  4  1  0
 24  8  1  0
 20 14  1  0
  1 25  1  0
  1 26  1  0
  1 27  1  0
  3 28  1  0
  3 29  1  0
  3 30  1  0
  5 31  1  0
  6 32  1  0
  7 33  1  0
 13 34  1  0
 15 35  1  0
 16 36  1  0
 21 37  1  0
 22 38  1  0
 23 39  1  0
M  END
$$$$
