
     RDKit          3D

 70 71  0  0  0  0  0  0  0  0999 V2000
    7.2904    4.6027    0.5642 C   0  0  0  0  0  0  0  0  0  0  0  0
    7.3721    3.2194    0.8821 O   0  0  0  0  0  0  0  0  0  0  0  0
    6.2773    2.4883    1.3536 C   0  0  0  0  0  0  0  0  0  0  0  0
    5.1481    3.0338    1.4866 O   0  0  0  0  0  0  0  0  0  0  0  0
    6.4413    1.0348    1.6645 C   0  0  0  0  0  0  0  0  0  0  0  0
    6.2455    0.1952    0.3994 C   0  0  0  0  0  0  0  0  0  0  0  0
    6.4343   -1.2712    0.6884 C   0  0  0  0  0  0  0  0  0  0  0  0
    5.5029   -2.0759    1.2335 C   0  0  0  0  0  0  0  0  0  0  0  0
    4.1236   -1.6415    1.6635 C   0  0  0  0  0  0  0  0  0  0  0  0
    3.0165   -2.4069    0.9182 C   0  0  0  0  0  0  0  0  0  0  0  0
    2.6797   -1.8206   -0.4769 C   0  0  1  0  0  0  0  0  0  0  0  0
    3.5189   -2.3823   -1.5794 C   0  0  0  0  0  0  0  0  0  0  0  0
    4.7390   -2.3847   -1.5691 O   0  0  0  0  0  0  0  0  0  0  0  0
    2.7345   -2.8797   -2.7369 C   0  0  0  0  0  0  0  0  0  0  0  0
    1.3147   -2.3976   -2.4413 C   0  0  1  0  0  0  0  0  0  0  0  0
    0.3601   -3.3343   -2.8668 O   0  0  0  0  0  0  0  0  0  0  0  0
    1.2517   -2.2121   -0.9161 C   0  0  2  0  0  0  0  0  0  0  0  0
    0.2151   -1.1866   -0.5161 C   0  0  0  0  0  0  0  0  0  0  0  0
   -1.0854   -1.5105   -0.4492 C   0  0  0  0  0  0  0  0  0  0  0  0
   -2.1170   -0.4909   -0.0274 C   0  0  0  0  0  0  0  0  0  0  0  0
   -3.4875   -1.1225    0.3395 C   0  0  0  0  0  0  0  0  0  0  0  0
   -4.1607   -1.7336   -0.9120 C   0  0  0  0  0  0  0  0  0  0  0  0
   -3.2487   -2.1467    1.2776 O   0  0  0  0  0  0  0  0  0  0  0  0
   -4.4147   -0.0593    1.0033 C   0  0  0  0  0  0  0  0  0  0  0  0
   -4.7795    1.1444    0.1082 C   0  0  0  0  0  0  0  0  0  0  0  0
   -5.7721    2.1050    0.8114 C   0  0  0  0  0  0  0  0  0  0  0  0
   -5.8594    3.4497    0.0886 C   0  0  0  0  0  0  0  0  0  0  0  0
   -6.9546    3.2915   -0.9552 C   0  0  0  0  0  0  0  0  0  0  0  0
   -7.8682    2.1734   -0.4583 C   0  0  0  0  0  0  0  0  0  0  0  0
   -7.2106    1.5790    0.7851 C   0  0  0  0  0  0  0  0  0  0  0  0
    8.2882    4.9615    0.2376 H   0  0  0  0  0  0  0  0  0  0  0  0
    6.9745    5.1822    1.4583 H   0  0  0  0  0  0  0  0  0  0  0  0
    6.5647    4.7565   -0.2650 H   0  0  0  0  0  0  0  0  0  0  0  0
    7.4628    0.8652    2.0712 H   0  0  0  0  0  0  0  0  0  0  0  0
    5.7097    0.7398    2.4465 H   0  0  0  0  0  0  0  0  0  0  0  0
    5.2470    0.3787   -0.0567 H   0  0  0  0  0  0  0  0  0  0  0  0
    7.0045    0.4972   -0.3569 H   0  0  0  0  0  0  0  0  0  0  0  0
    7.3837   -1.7156    0.4023 H   0  0  0  0  0  0  0  0  0  0  0  0
    5.7589   -3.1219    1.3787 H   0  0  0  0  0  0  0  0  0  0  0  0
    3.9578   -0.5514    1.5702 H   0  0  0  0  0  0  0  0  0  0  0  0
    4.0373   -1.8720    2.7459 H   0  0  0  0  0  0  0  0  0  0  0  0
    3.2660   -3.4889    0.8426 H   0  0  0  0  0  0  0  0  0  0  0  0
    2.1056   -2.3370    1.5539 H   0  0  0  0  0  0  0  0  0  0  0  0
    2.8033   -0.7154   -0.4808 H   0  0  0  0  0  0  0  0  0  0  0  0
    3.1091   -2.4449   -3.6896 H   0  0  0  0  0  0  0  0  0  0  0  0
    2.7915   -3.9902   -2.7701 H   0  0  0  0  0  0  0  0  0  0  0  0
    1.1474   -1.4161   -2.9471 H   0  0  0  0  0  0  0  0  0  0  0  0
    0.3459   -3.2892   -3.8587 H   0  0  0  0  0  0  0  0  0  0  0  0
    0.9906   -3.1968   -0.4595 H   0  0  0  0  0  0  0  0  0  0  0  0
    0.5293   -0.1752   -0.2681 H   0  0  0  0  0  0  0  0  0  0  0  0
   -1.3850   -2.5375   -0.6394 H   0  0  0  0  0  0  0  0  0  0  0  0
   -2.2283    0.2482   -0.8522 H   0  0  0  0  0  0  0  0  0  0  0  0
   -1.7295    0.0537    0.8634 H   0  0  0  0  0  0  0  0  0  0  0  0
   -5.2118   -2.0125   -0.6882 H   0  0  0  0  0  0  0  0  0  0  0  0
   -3.6302   -2.6552   -1.2310 H   0  0  0  0  0  0  0  0  0  0  0  0
   -4.1510   -1.0239   -1.7669 H   0  0  0  0  0  0  0  0  0  0  0  0
   -4.1198   -2.5564    1.5179 H   0  0  0  0  0  0  0  0  0  0  0  0
   -3.9194    0.3217    1.9237 H   0  0  0  0  0  0  0  0  0  0  0  0
   -5.3456   -0.5642    1.3382 H   0  0  0  0  0  0  0  0  0  0  0  0
   -5.2201    0.8018   -0.8503 H   0  0  0  0  0  0  0  0  0  0  0  0
   -3.8470    1.7010   -0.1214 H   0  0  0  0  0  0  0  0  0  0  0  0
   -5.4385    2.2737    1.8609 H   0  0  0  0  0  0  0  0  0  0  0  0
   -4.8974    3.7640   -0.3721 H   0  0  0  0  0  0  0  0  0  0  0  0
   -6.1662    4.2321    0.8189 H   0  0  0  0  0  0  0  0  0  0  0  0
   -6.5038    3.0030   -1.9303 H   0  0  0  0  0  0  0  0  0  0  0  0
   -7.5173    4.2422   -1.0842 H   0  0  0  0  0  0  0  0  0  0  0  0
   -7.9782    1.3935   -1.2446 H   0  0  0  0  0  0  0  0  0  0  0  0
   -8.8774    2.5703   -0.2099 H   0  0  0  0  0  0  0  0  0  0  0  0
   -7.7441    1.9468    1.6901 H   0  0  0  0  0  0  0  0  0  0  0  0
   -7.2743    0.4709    0.7730 H   0  0  0  0  0  0  0  0  0  0  0  0
  1  2  1  0
  2  3  1  0
  3  4  2  0
  3  5  1  0
  5  6  1  0
  6  7  1  0
  7  8  2  0
  8  9  1  0
  9 10  1  0
 10 11  1  0
 11 12  1  0
 12 13  2  0
 12 14  1  0
 14 15  1  0
 15 16  1  0
 15 17  1  0
 17 18  1  0
 18 19  2  0
 19 20  1  0
 20 21  1  0
 21 22  1  0
 21 23  1  0
 21 24  1  0
 24 25  1  0
 25 26  1  0
 26 27  1  0
 27 28  1  0
 28 29  1  0
 29 30  1  0
 17 11  1  0
 30 26  1  0
  1 31  1  0
  1 32  1  0
  1 33  1  0
  5 34  1  0
  5 35  1  0
  6 36  1  0
  6 37  1  0
  7 38  1  0
  8 39  1  0
  9 40  1  0
  9 41  1  0
 10 42  1  0
 10 43  1  0
 11 44  1  1
 14 45  1  0
 14 46  1  0
 15 47  1  6
 16 48  1  0
 17 49  1  1
 18 50  1  0
 19 51  1  0
 20 52  1  0
 20 53  1  0
 22 54  1  0
 22 55  1  0
 22 56  1  0
 23 57  1  0
 24 58  1  0
 24 59  1  0
 25 60  1  0
 25 61  1  0
 26 62  1  0
 27 63  1  0
 27 64  1  0
 28 65  1  0
 28 66  1  0
 29 67  1  0
 29 68  1  0
 30 69  1  0
 30 70  1  0
M  END
$$$$
