
     RDKit          3D

 44 48  0  0  0  0  0  0  0  0999 V2000
    7.6664   -1.8589   -0.0797 O   0  0  0  0  0  0  0  0  0  0  0  0
    7.2083   -0.6850   -0.1245 C   0  0  0  0  0  0  0  0  0  0  0  0
    8.0920    0.3890   -0.1952 O   0  0  0  0  0  0  0  0  0  0  0  0
    5.7478   -0.4489   -0.1023 C   0  0  0  0  0  0  0  0  0  0  0  0
    5.2395    0.8589   -0.1538 C   0  0  0  0  0  0  0  0  0  0  0  0
    3.8603    1.0875   -0.1327 C   0  0  0  0  0  0  0  0  0  0  0  0
    2.9578    0.0113   -0.0574 C   0  0  0  0  0  0  0  0  0  0  0  0
    1.4898    0.2316   -0.0352 C   0  0  0  0  0  0  0  0  0  0  0  0
    0.5957   -0.7768   -0.1370 N   0  0  0  0  0  0  0  0  0  0  0  0
   -0.6090   -0.1757   -0.0657 C   0  0  0  0  0  0  0  0  0  0  0  0
   -1.8777   -0.9148   -0.2285 C   0  0  0  0  0  0  0  0  0  0  0  0
   -2.9444   -0.3740   -0.9946 C   0  0  0  0  0  0  0  0  0  0  0  0
   -4.1419   -1.0930   -1.1606 C   0  0  0  0  0  0  0  0  0  0  0  0
   -4.2339   -2.3472   -0.5666 C   0  0  0  0  0  0  0  0  0  0  0  0
   -3.2124   -2.8794    0.1498 C   0  0  0  0  0  0  0  0  0  0  0  0
   -2.0115   -2.2017    0.3389 C   0  0  0  0  0  0  0  0  0  0  0  0
   -3.5772   -4.1286    0.6134 O   0  0  0  0  0  0  0  0  0  0  0  0
   -4.9117   -4.3971    0.1603 C   0  0  0  0  0  0  0  0  0  0  0  0
   -5.2923   -3.2348   -0.5893 O   0  0  0  0  0  0  0  0  0  0  0  0
   -0.4250    1.1913    0.0952 C   0  0  0  0  0  0  0  0  0  0  0  0
   -1.4394    2.2391    0.3245 C   0  0  0  0  0  0  0  0  0  0  0  0
   -2.5870    1.9936    1.0963 C   0  0  0  0  0  0  0  0  0  0  0  0
   -3.5065    3.0233    1.3050 C   0  0  0  0  0  0  0  0  0  0  0  0
   -3.2704    4.2868    0.7620 C   0  0  0  0  0  0  0  0  0  0  0  0
   -2.1075    4.5040    0.0208 C   0  0  0  0  0  0  0  0  0  0  0  0
   -1.2250    3.4881   -0.1747 N   0  0  0  0  0  0  0  0  0  0  0  0
    0.8960    1.4377    0.0986 N   0  0  0  0  0  0  0  0  0  0  0  0
    3.4692   -1.2974   -0.0112 C   0  0  0  0  0  0  0  0  0  0  0  0
    4.8480   -1.5253   -0.0318 C   0  0  0  0  0  0  0  0  0  0  0  0
    9.0937    0.2385   -0.2109 H   0  0  0  0  0  0  0  0  0  0  0  0
    5.9073    1.7092   -0.2134 H   0  0  0  0  0  0  0  0  0  0  0  0
    3.5127    2.1090   -0.1876 H   0  0  0  0  0  0  0  0  0  0  0  0
   -2.8441    0.5920   -1.4722 H   0  0  0  0  0  0  0  0  0  0  0  0
   -4.9619   -0.6880   -1.7386 H   0  0  0  0  0  0  0  0  0  0  0  0
   -1.2138   -2.6524    0.9160 H   0  0  0  0  0  0  0  0  0  0  0  0
   -4.9211   -5.2945   -0.4932 H   0  0  0  0  0  0  0  0  0  0  0  0
   -5.5908   -4.5326    1.0281 H   0  0  0  0  0  0  0  0  0  0  0  0
   -2.7620    1.0255    1.5472 H   0  0  0  0  0  0  0  0  0  0  0  0
   -4.3965    2.8442    1.8943 H   0  0  0  0  0  0  0  0  0  0  0  0
   -3.9762    5.0916    0.9214 H   0  0  0  0  0  0  0  0  0  0  0  0
   -1.9048    5.4808   -0.3975 H   0  0  0  0  0  0  0  0  0  0  0  0
    1.3479    2.3684    0.2345 H   0  0  0  0  0  0  0  0  0  0  0  0
    2.8032   -2.1493    0.0462 H   0  0  0  0  0  0  0  0  0  0  0  0
    5.2084   -2.5458    0.0080 H   0  0  0  0  0  0  0  0  0  0  0  0
  1  2  2  0
  2  3  1  0
  2  4  1  0
  4  5  2  0
  5  6  1  0
  6  7  2  0
  7  8  1  0
  8  9  2  0
  9 10  1  0
 10 11  1  0
 11 12  2  0
 12 13  1  0
 13 14  2  0
 14 15  1  0
 15 16  2  0
 15 17  1  0
 17 18  1  0
 18 19  1  0
 10 20  2  0
 20 21  1  0
 21 22  2  0
 22 23  1  0
 23 24  2  0
 24 25  1  0
 25 26  2  0
 20 27  1  0
  7 28  1  0
 28 29  2  0
 29  4  1  0
 27  8  1  0
 16 11  1  0
 26 21  1  0
 19 14  1  0
  3 30  1  0
  5 31  1  0
  6 32  1  0
 12 33  1  0
 13 34  1  0
 16 35  1  0
 18 36  1  0
 18 37  1  0
 22 38  1  0
 23 39  1  0
 24 40  1  0
 25 41  1  0
 27 42  1  0
 28 43  1  0
 29 44  1  0
M  END
$$$$
