
     RDKit          3D

 60 63  0  0  0  0  0  0  0  0999 V2000
    7.8528    1.4055    1.6074 C   0  0  0  0  0  0  0  0  0  0  0  0
    6.3394    1.2857    1.7493 C   0  0  0  0  0  0  0  0  0  0  0  0
    5.9014   -0.0736    1.3975 N   0  0  0  0  0  0  0  0  0  0  0  0
    5.5660   -0.2120   -0.0315 C   0  0  0  0  0  0  0  0  0  0  0  0
    4.1240    0.2461   -0.3538 C   0  0  0  0  0  0  0  0  0  0  0  0
    3.8484    0.2571   -1.8639 C   0  0  0  0  0  0  0  0  0  0  0  0
    2.3704   -0.0803   -2.0126 C   0  0  0  0  0  0  0  0  0  0  0  0
    1.9950   -0.7090   -0.7595 N   0  0  0  0  0  0  0  0  0  0  0  0
    0.7377   -1.3671   -0.5522 C   0  0  0  0  0  0  0  0  0  0  0  0
    0.6944   -2.7561   -0.4279 C   0  0  0  0  0  0  0  0  0  0  0  0
    1.8343   -3.4887   -0.4970 F   0  0  0  0  0  0  0  0  0  0  0  0
   -0.5271   -3.4081   -0.3137 C   0  0  0  0  0  0  0  0  0  0  0  0
   -1.7309   -2.6804   -0.2696 C   0  0  0  0  0  0  0  0  0  0  0  0
   -2.9633   -3.3552   -0.2458 C   0  0  0  0  0  0  0  0  0  0  0  0
   -2.9914   -4.6177   -0.2359 O   0  0  0  0  0  0  0  0  0  0  0  0
   -4.1604   -2.6241   -0.2568 C   0  0  0  0  0  0  0  0  0  0  0  0
   -5.4944   -3.2841   -0.3045 C   0  0  0  0  0  0  0  0  0  0  0  0
   -5.5946   -4.5374   -0.3969 O   0  0  0  0  0  0  0  0  0  0  0  0
   -6.6567   -2.5182   -0.2522 O   0  0  0  0  0  0  0  0  0  0  0  0
   -4.0889   -1.2280   -0.1938 C   0  0  0  0  0  0  0  0  0  0  0  0
   -2.8940   -0.5597   -0.0980 N   0  0  0  0  0  0  0  0  0  0  0  0
   -2.9479    0.8945    0.2229 C   0  0  0  0  0  0  0  0  0  0  0  0
   -3.2871    1.7101   -1.0451 C   0  0  0  0  0  0  0  0  0  0  0  0
   -3.5671    3.1738   -0.6899 C   0  0  0  0  0  0  0  0  0  0  0  0
   -4.7504    3.3321    0.2895 C   0  0  0  0  0  0  0  0  0  0  0  0
   -5.1368    2.0303    1.0136 C   0  0  0  0  0  0  0  0  0  0  0  0
   -3.8994    1.2173    1.4223 C   0  0  0  0  0  0  0  0  0  0  0  0
   -1.7064   -1.2565   -0.2769 C   0  0  0  0  0  0  0  0  0  0  0  0
   -0.4495   -0.6193   -0.5037 C   0  0  0  0  0  0  0  0  0  0  0  0
   -0.3486    0.7031   -0.7823 F   0  0  0  0  0  0  0  0  0  0  0  0
    3.0467   -0.6675    0.2394 C   0  0  0  0  0  0  0  0  0  0  0  0
    8.3562    0.6507    2.2480 H   0  0  0  0  0  0  0  0  0  0  0  0
    8.1781    2.4185    1.9254 H   0  0  0  0  0  0  0  0  0  0  0  0
    8.1595    1.2501    0.5520 H   0  0  0  0  0  0  0  0  0  0  0  0
    6.0764    1.4958    2.8098 H   0  0  0  0  0  0  0  0  0  0  0  0
    5.8423    2.0607    1.1257 H   0  0  0  0  0  0  0  0  0  0  0  0
    5.0764   -0.3322    1.9868 H   0  0  0  0  0  0  0  0  0  0  0  0
    5.6866   -1.2793   -0.3175 H   0  0  0  0  0  0  0  0  0  0  0  0
    6.2861    0.3603   -0.6576 H   0  0  0  0  0  0  0  0  0  0  0  0
    3.9605    1.2779    0.0282 H   0  0  0  0  0  0  0  0  0  0  0  0
    4.0840    1.2476   -2.3105 H   0  0  0  0  0  0  0  0  0  0  0  0
    4.4505   -0.5250   -2.3785 H   0  0  0  0  0  0  0  0  0  0  0  0
    1.7764    0.8454   -2.1664 H   0  0  0  0  0  0  0  0  0  0  0  0
    2.2091   -0.7797   -2.8615 H   0  0  0  0  0  0  0  0  0  0  0  0
   -0.5274   -4.4910   -0.2793 H   0  0  0  0  0  0  0  0  0  0  0  0
   -7.5703   -2.9548   -0.2852 H   0  0  0  0  0  0  0  0  0  0  0  0
   -5.0147   -0.6710   -0.1729 H   0  0  0  0  0  0  0  0  0  0  0  0
   -1.9679    1.2373    0.6026 H   0  0  0  0  0  0  0  0  0  0  0  0
   -4.1776    1.2824   -1.5552 H   0  0  0  0  0  0  0  0  0  0  0  0
   -2.4423    1.6632   -1.7638 H   0  0  0  0  0  0  0  0  0  0  0  0
   -2.6511    3.6115   -0.2349 H   0  0  0  0  0  0  0  0  0  0  0  0
   -3.7771    3.7432   -1.6212 H   0  0  0  0  0  0  0  0  0  0  0  0
   -5.6405    3.7036   -0.2635 H   0  0  0  0  0  0  0  0  0  0  0  0
   -4.4896    4.1046    1.0457 H   0  0  0  0  0  0  0  0  0  0  0  0
   -5.7872    1.4216    0.3511 H   0  0  0  0  0  0  0  0  0  0  0  0
   -5.7319    2.2770    1.9194 H   0  0  0  0  0  0  0  0  0  0  0  0
   -4.2199    0.2929    1.9485 H   0  0  0  0  0  0  0  0  0  0  0  0
   -3.3462    1.8145    2.1824 H   0  0  0  0  0  0  0  0  0  0  0  0
    2.6551   -0.2442    1.1899 H   0  0  0  0  0  0  0  0  0  0  0  0
    3.4309   -1.6945    0.4186 H   0  0  0  0  0  0  0  0  0  0  0  0
  1  2  1  0
  2  3  1  0
  3  4  1  0
  4  5  1  0
  5  6  1  0
  6  7  1  0
  7  8  1  0
  8  9  1  0
  9 10  2  0
 10 11  1  0
 10 12  1  0
 12 13  2  0
 13 14  1  0
 14 15  2  0
 14 16  1  0
 16 17  1  0
 17 18  2  0
 17 19  1  0
 16 20  2  0
 20 21  1  0
 21 22  1  0
 22 23  1  0
 23 24  1  0
 24 25  1  0
 25 26  1  0
 26 27  1  0
 21 28  1  0
 28 29  2  0
 29 30  1  0
  8 31  1  0
 31  5  1  0
 29  9  1  0
 28 13  1  0
 27 22  1  0
  1 32  1  0
  1 33  1  0
  1 34  1  0
  2 35  1  0
  2 36  1  0
  3 37  1  0
  4 38  1  0
  4 39  1  0
  5 40  1  0
  6 41  1  0
  6 42  1  0
  7 43  1  0
  7 44  1  0
 12 45  1  0
 19 46  1  0
 20 47  1  0
 22 48  1  0
 23 49  1  0
 23 50  1  0
 24 51  1  0
 24 52  1  0
 25 53  1  0
 25 54  1  0
 26 55  1  0
 26 56  1  0
 27 57  1  0
 27 58  1  0
 31 59  1  0
 31 60  1  0
M  END
$$$$
