
     RDKit          3D

 53 57  0  0  0  0  0  0  0  0999 V2000
    5.9993   -3.1532   -1.6845 C   0  0  0  0  0  0  0  0  0  0  0  0
    4.7894   -2.5634   -2.1490 O   0  0  0  0  0  0  0  0  0  0  0  0
    3.8826   -1.8702   -1.3336 C   0  0  0  0  0  0  0  0  0  0  0  0
    2.7294   -1.3404   -1.9227 C   0  0  0  0  0  0  0  0  0  0  0  0
    1.7959   -0.6409   -1.1537 C   0  0  0  0  0  0  0  0  0  0  0  0
    2.0086   -0.4498    0.2229 C   0  0  0  0  0  0  0  0  0  0  0  0
    0.9895    0.2829    1.0736 C   0  0  2  0  0  0  0  0  0  0  0  0
   -0.2572   -0.5828    1.3280 C   0  0  1  0  0  0  0  0  0  0  0  0
   -0.1934   -1.3079    2.6464 C   0  0  0  0  0  0  0  0  0  0  0  0
   -0.2618   -2.5658    2.6750 O   0  0  0  0  0  0  0  0  0  0  0  0
   -0.0601   -0.5960    3.8357 O   0  0  0  0  0  0  0  0  0  0  0  0
   -1.4381    0.4016    1.2574 C   0  0  2  0  0  0  0  0  0  0  0  0
   -2.7232   -0.2408    0.7667 C   0  0  0  0  0  0  0  0  0  0  0  0
   -3.8584   -0.2837    1.6196 C   0  0  0  0  0  0  0  0  0  0  0  0
   -5.0567   -0.8830    1.1914 C   0  0  0  0  0  0  0  0  0  0  0  0
   -5.0892   -1.4307   -0.0860 C   0  0  0  0  0  0  0  0  0  0  0  0
   -4.0116   -1.3994   -0.9083 C   0  0  0  0  0  0  0  0  0  0  0  0
   -2.8075   -0.8170   -0.5257 C   0  0  0  0  0  0  0  0  0  0  0  0
   -4.3271   -2.0145   -2.1044 O   0  0  0  0  0  0  0  0  0  0  0  0
   -5.6887   -2.4595   -2.0281 C   0  0  0  0  0  0  0  0  0  0  0  0
   -6.1370   -2.0666   -0.7233 O   0  0  0  0  0  0  0  0  0  0  0  0
   -0.9545    1.5477    0.3638 C   0  0  0  0  0  0  0  0  0  0  0  0
    0.4995    1.4850    0.4035 N   0  0  0  0  0  0  0  0  0  0  0  0
    1.3639    2.5746    0.0216 C   0  0  0  0  0  0  0  0  0  0  0  0
    2.5592    2.5862    0.4235 O   0  0  0  0  0  0  0  0  0  0  0  0
    0.8961    3.6753   -0.8438 C   0  0  0  0  0  0  0  0  0  0  0  0
    1.6289    4.7977   -1.1812 C   0  0  0  0  0  0  0  0  0  0  0  0
    0.8140    5.5430   -2.0055 C   0  0  0  0  0  0  0  0  0  0  0  0
   -0.3624    4.8324   -2.1234 C   0  0  0  0  0  0  0  0  0  0  0  0
   -0.2821    3.7255   -1.4219 O   0  0  0  0  0  0  0  0  0  0  0  0
    3.1576   -0.9936    0.8177 C   0  0  0  0  0  0  0  0  0  0  0  0
    4.0909   -1.6935    0.0474 C   0  0  0  0  0  0  0  0  0  0  0  0
    6.5199   -3.6329   -2.5385 H   0  0  0  0  0  0  0  0  0  0  0  0
    5.7776   -3.9293   -0.9218 H   0  0  0  0  0  0  0  0  0  0  0  0
    6.6638   -2.3738   -1.2552 H   0  0  0  0  0  0  0  0  0  0  0  0
    2.5541   -1.4749   -2.9826 H   0  0  0  0  0  0  0  0  0  0  0  0
    0.9057   -0.2500   -1.6310 H   0  0  0  0  0  0  0  0  0  0  0  0
    1.4508    0.5981    2.0373 H   0  0  0  0  0  0  0  0  0  0  0  0
   -0.3572   -1.3361    0.5138 H   0  0  0  0  0  0  0  0  0  0  0  0
   -0.0168   -1.0761    4.7265 H   0  0  0  0  0  0  0  0  0  0  0  0
   -1.6009    0.8380    2.2701 H   0  0  0  0  0  0  0  0  0  0  0  0
   -3.8146    0.1444    2.6132 H   0  0  0  0  0  0  0  0  0  0  0  0
   -5.9254   -0.9187    1.8354 H   0  0  0  0  0  0  0  0  0  0  0  0
   -1.9665   -0.8141   -1.2071 H   0  0  0  0  0  0  0  0  0  0  0  0
   -5.7374   -3.5635   -2.1336 H   0  0  0  0  0  0  0  0  0  0  0  0
   -6.2992   -1.9601   -2.8094 H   0  0  0  0  0  0  0  0  0  0  0  0
   -1.3133    2.5203    0.7668 H   0  0  0  0  0  0  0  0  0  0  0  0
   -1.2939    1.4351   -0.6874 H   0  0  0  0  0  0  0  0  0  0  0  0
    2.6344    5.0456   -0.8671 H   0  0  0  0  0  0  0  0  0  0  0  0
    1.0497    6.4922   -2.4676 H   0  0  0  0  0  0  0  0  0  0  0  0
   -1.2274    5.1279   -2.7018 H   0  0  0  0  0  0  0  0  0  0  0  0
    3.3325   -0.8762    1.8801 H   0  0  0  0  0  0  0  0  0  0  0  0
    4.9683   -2.0952    0.5355 H   0  0  0  0  0  0  0  0  0  0  0  0
  1  2  1  0
  2  3  1  0
  3  4  2  0
  4  5  1  0
  5  6  2  0
  6  7  1  0
  7  8  1  0
  8  9  1  0
  9 10  2  0
  9 11  1  0
  8 12  1  0
 12 13  1  0
 13 14  2  0
 14 15  1  0
 15 16  2  0
 16 17  1  0
 17 18  2  0
 17 19  1  0
 19 20  1  0
 20 21  1  0
 12 22  1  0
 22 23  1  0
 23 24  1  0
 24 25  2  0
 24 26  1  0
 26 27  2  0
 27 28  1  0
 28 29  2  0
 29 30  1  0
  6 31  1  0
 31 32  2  0
 32  3  1  0
 23  7  1  0
 30 26  1  0
 18 13  1  0
 21 16  1  0
  1 33  1  0
  1 34  1  0
  1 35  1  0
  4 36  1  0
  5 37  1  0
  7 38  1  1
  8 39  1  6
 11 40  1  0
 12 41  1  1
 14 42  1  0
 15 43  1  0
 18 44  1  0
 20 45  1  0
 20 46  1  0
 22 47  1  0
 22 48  1  0
 27 49  1  0
 28 50  1  0
 29 51  1  0
 31 52  1  0
 32 53  1  0
M  END
$$$$
