
     RDKit          3D

 49 52  0  0  0  0  0  0  0  0999 V2000
   -3.1114    1.7771    0.8812 C   0  0  0  0  0  0  0  0  0  0  0  0
   -2.7987    0.6579   -0.0818 C   0  0  0  0  0  0  0  0  0  0  0  0
   -3.5947    0.3902   -1.1377 C   0  0  0  0  0  0  0  0  0  0  0  0
   -4.8292    1.1742   -1.4949 C   0  0  0  0  0  0  0  0  0  0  0  0
   -5.8597    1.0173   -0.4726 N   0  0  0  0  0  0  0  0  0  0  0  0
   -6.3230    1.9709    0.2798 O   0  0  0  0  0  0  0  0  0  0  0  0
   -7.2355    1.4606    1.0758 C   0  0  0  0  0  0  0  0  0  0  0  0
   -7.8758    2.1256    1.9313 O   0  0  0  0  0  0  0  0  0  0  0  0
   -7.4060    0.1392    0.8680 N   0  0  0  0  0  0  0  0  0  0  0  0
   -6.5218   -0.1010   -0.1170 C   0  0  0  0  0  0  0  0  0  0  0  0
   -6.3394   -1.2329   -0.6392 O   0  0  0  0  0  0  0  0  0  0  0  0
   -1.6341   -0.2225    0.1997 C   0  0  0  0  0  0  0  0  0  0  0  0
   -1.3704   -0.6507    1.5119 C   0  0  0  0  0  0  0  0  0  0  0  0
   -0.2758   -1.4750    1.7795 C   0  0  0  0  0  0  0  0  0  0  0  0
    0.5714   -1.8778    0.7455 C   0  0  0  0  0  0  0  0  0  0  0  0
    0.3304   -1.4517   -0.5739 C   0  0  0  0  0  0  0  0  0  0  0  0
    1.1558   -1.8163   -1.6501 O   0  0  0  0  0  0  0  0  0  0  0  0
    2.3807   -2.5427   -1.5416 C   0  0  0  0  0  0  0  0  0  0  0  0
    3.4438   -1.7048   -0.8805 C   0  0  0  0  0  0  0  0  0  0  0  0
    4.1890   -2.2171    0.1905 C   0  0  0  0  0  0  0  0  0  0  0  0
    5.1792   -1.4439    0.8009 C   0  0  0  0  0  0  0  0  0  0  0  0
    5.4507   -0.1404    0.3447 C   0  0  0  0  0  0  0  0  0  0  0  0
    6.4449    0.6662    0.9447 C   0  0  0  0  0  0  0  0  0  0  0  0
    7.4154    0.1091    2.3063 Cl  0  0  0  0  0  0  0  0  0  0  0  0
    6.6829    1.9562    0.4563 C   0  0  0  0  0  0  0  0  0  0  0  0
    5.9469    2.4543   -0.6195 C   0  0  0  0  0  0  0  0  0  0  0  0
    4.9630    1.6695   -1.2212 C   0  0  0  0  0  0  0  0  0  0  0  0
    4.7062    0.3739   -0.7486 C   0  0  0  0  0  0  0  0  0  0  0  0
    3.7151   -0.4133   -1.3543 C   0  0  0  0  0  0  0  0  0  0  0  0
   -0.7730   -0.6305   -0.8364 C   0  0  0  0  0  0  0  0  0  0  0  0
   -3.9120    1.4570    1.5800 H   0  0  0  0  0  0  0  0  0  0  0  0
   -3.4287    2.6941    0.3440 H   0  0  0  0  0  0  0  0  0  0  0  0
   -2.2112    2.0458    1.4734 H   0  0  0  0  0  0  0  0  0  0  0  0
   -3.3624   -0.4544   -1.7760 H   0  0  0  0  0  0  0  0  0  0  0  0
   -4.5799    2.2480   -1.6290 H   0  0  0  0  0  0  0  0  0  0  0  0
   -5.2266    0.8048   -2.4645 H   0  0  0  0  0  0  0  0  0  0  0  0
   -8.0558   -0.5242    1.3459 H   0  0  0  0  0  0  0  0  0  0  0  0
   -2.0204   -0.3605    2.3280 H   0  0  0  0  0  0  0  0  0  0  0  0
   -0.0854   -1.8060    2.7924 H   0  0  0  0  0  0  0  0  0  0  0  0
    1.4057   -2.5210    0.9842 H   0  0  0  0  0  0  0  0  0  0  0  0
    2.7268   -2.8027   -2.5637 H   0  0  0  0  0  0  0  0  0  0  0  0
    2.2068   -3.4990   -1.0023 H   0  0  0  0  0  0  0  0  0  0  0  0
    4.0008   -3.2178    0.5595 H   0  0  0  0  0  0  0  0  0  0  0  0
    5.7262   -1.8760    1.6281 H   0  0  0  0  0  0  0  0  0  0  0  0
    7.4428    2.5778    0.9127 H   0  0  0  0  0  0  0  0  0  0  0  0
    6.1400    3.4536   -0.9882 H   0  0  0  0  0  0  0  0  0  0  0  0
    4.4023    2.0754   -2.0550 H   0  0  0  0  0  0  0  0  0  0  0  0
    3.1488   -0.0224   -2.1923 H   0  0  0  0  0  0  0  0  0  0  0  0
   -0.9445   -0.2940   -1.8517 H   0  0  0  0  0  0  0  0  0  0  0  0
  1  2  1  0
  2  3  2  0
  3  4  1  0
  4  5  1  0
  5  6  1  0
  6  7  1  0
  7  8  2  0
  7  9  1  0
  9 10  1  0
 10 11  2  0
  2 12  1  0
 12 13  2  0
 13 14  1  0
 14 15  2  0
 15 16  1  0
 16 17  1  0
 17 18  1  0
 18 19  1  0
 19 20  2  0
 20 21  1  0
 21 22  2  0
 22 23  1  0
 23 24  1  0
 23 25  2  0
 25 26  1  0
 26 27  2  0
 27 28  1  0
 28 29  2  0
 16 30  2  0
 10  5  1  0
 30 12  1  0
 29 19  1  0
 28 22  1  0
  1 31  1  0
  1 32  1  0
  1 33  1  0
  3 34  1  0
  4 35  1  0
  4 36  1  0
  9 37  1  0
 13 38  1  0
 14 39  1  0
 15 40  1  0
 18 41  1  0
 18 42  1  0
 20 43  1  0
 21 44  1  0
 25 45  1  0
 26 46  1  0
 27 47  1  0
 29 48  1  0
 30 49  1  0
M  END
$$$$
