
     RDKit          3D

 55 58  0  0  0  0  0  0  0  0999 V2000
    7.1415   -1.3262   -1.2221 C   0  0  0  0  0  0  0  0  0  0  0  0
    5.9695   -0.4749   -0.7430 C   0  0  0  0  0  0  0  0  0  0  0  0
    5.2055    0.1316   -1.9288 C   0  0  0  0  0  0  0  0  0  0  0  0
    4.0305    1.0042   -1.4666 C   0  0  0  0  0  0  0  0  0  0  0  0
    2.9529    0.1999   -0.8862 N   0  0  0  0  0  0  0  0  0  0  0  0
    1.7942    0.8263   -0.3063 C   0  0  0  0  0  0  0  0  0  0  0  0
    1.6920    2.0835   -0.3506 O   0  0  0  0  0  0  0  0  0  0  0  0
    0.7400    0.0634    0.3226 N   0  0  0  0  0  0  0  0  0  0  0  0
   -0.2659    0.8041    0.9784 N   0  0  0  0  0  0  0  0  0  0  0  0
   -1.5427    0.6651    0.7542 C   0  0  0  0  0  0  0  0  0  0  0  0
   -2.4980    1.5315    1.4927 C   0  0  0  0  0  0  0  0  0  0  0  0
   -3.8151    1.1025    1.7435 C   0  0  0  0  0  0  0  0  0  0  0  0
   -4.7062    1.9189    2.4458 C   0  0  0  0  0  0  0  0  0  0  0  0
   -4.2961    3.1733    2.9146 C   0  0  0  0  0  0  0  0  0  0  0  0
   -5.2090    4.0074    3.6329 N   0  0  0  0  0  0  0  0  0  0  0  0
   -2.9844    3.6035    2.6778 C   0  0  0  0  0  0  0  0  0  0  0  0
   -2.0909    2.7890    1.9760 C   0  0  0  0  0  0  0  0  0  0  0  0
   -2.0296   -0.3249   -0.2404 C   0  0  0  0  0  0  0  0  0  0  0  0
   -2.9843    0.0586   -1.2094 C   0  0  0  0  0  0  0  0  0  0  0  0
   -3.3943   -0.8922   -2.1372 C   0  0  0  0  0  0  0  0  0  0  0  0
   -2.9057   -2.1566   -2.1353 C   0  0  0  0  0  0  0  0  0  0  0  0
   -1.9659   -2.5831   -1.2035 C   0  0  0  0  0  0  0  0  0  0  0  0
   -1.5246   -1.6555   -0.2338 C   0  0  0  0  0  0  0  0  0  0  0  0
   -0.5121   -2.0640    0.8013 C   0  0  0  0  0  0  0  0  0  0  0  0
    0.8491   -1.3997    0.5240 C   0  0  0  0  0  0  0  0  0  0  0  0
    1.8167   -1.6985    1.6757 C   0  0  0  0  0  0  0  0  0  0  0  0
   -3.4830   -2.8751   -3.1644 O   0  0  0  0  0  0  0  0  0  0  0  0
   -4.3915   -2.0067   -3.8557 C   0  0  0  0  0  0  0  0  0  0  0  0
   -4.3033   -0.7511   -3.1678 O   0  0  0  0  0  0  0  0  0  0  0  0
    7.8542   -0.7075   -1.8080 H   0  0  0  0  0  0  0  0  0  0  0  0
    6.7765   -2.1637   -1.8542 H   0  0  0  0  0  0  0  0  0  0  0  0
    7.6762   -1.7496   -0.3459 H   0  0  0  0  0  0  0  0  0  0  0  0
    5.2920   -1.1123   -0.1354 H   0  0  0  0  0  0  0  0  0  0  0  0
    6.3593    0.3389   -0.0936 H   0  0  0  0  0  0  0  0  0  0  0  0
    5.9012    0.7659   -2.5207 H   0  0  0  0  0  0  0  0  0  0  0  0
    4.8293   -0.6756   -2.5952 H   0  0  0  0  0  0  0  0  0  0  0  0
    4.3892    1.7465   -0.7203 H   0  0  0  0  0  0  0  0  0  0  0  0
    3.6321    1.5602   -2.3426 H   0  0  0  0  0  0  0  0  0  0  0  0
    3.0414   -0.8378   -0.9065 H   0  0  0  0  0  0  0  0  0  0  0  0
   -4.1539    0.1299    1.4098 H   0  0  0  0  0  0  0  0  0  0  0  0
   -5.7153    1.5713    2.6285 H   0  0  0  0  0  0  0  0  0  0  0  0
   -4.9120    4.9438    3.9874 H   0  0  0  0  0  0  0  0  0  0  0  0
   -6.1887    3.6947    3.8154 H   0  0  0  0  0  0  0  0  0  0  0  0
   -2.6542    4.5704    3.0364 H   0  0  0  0  0  0  0  0  0  0  0  0
   -1.0844    3.1486    1.8013 H   0  0  0  0  0  0  0  0  0  0  0  0
   -3.3819    1.0650   -1.2459 H   0  0  0  0  0  0  0  0  0  0  0  0
   -1.5929   -3.5990   -1.2289 H   0  0  0  0  0  0  0  0  0  0  0  0
   -0.3878   -3.1697    0.8074 H   0  0  0  0  0  0  0  0  0  0  0  0
   -0.8857   -1.7811    1.8104 H   0  0  0  0  0  0  0  0  0  0  0  0
    1.2316   -1.8759   -0.4030 H   0  0  0  0  0  0  0  0  0  0  0  0
    1.9274   -2.7957    1.8101 H   0  0  0  0  0  0  0  0  0  0  0  0
    1.4394   -1.2546    2.6218 H   0  0  0  0  0  0  0  0  0  0  0  0
    2.8201   -1.2743    1.4655 H   0  0  0  0  0  0  0  0  0  0  0  0
   -4.0768   -1.8868   -4.9136 H   0  0  0  0  0  0  0  0  0  0  0  0
   -5.4255   -2.4059   -3.7932 H   0  0  0  0  0  0  0  0  0  0  0  0
  1  2  1  0
  2  3  1  0
  3  4  1  0
  4  5  1  0
  5  6  1  0
  6  7  2  0
  6  8  1  0
  8  9  1  0
  9 10  2  0
 10 11  1  0
 11 12  2  0
 12 13  1  0
 13 14  2  0
 14 15  1  0
 14 16  1  0
 16 17  2  0
 10 18  1  0
 18 19  2  0
 19 20  1  0
 20 21  2  0
 21 22  1  0
 22 23  2  0
 23 24  1  0
 24 25  1  0
 25 26  1  0
 21 27  1  0
 27 28  1  0
 28 29  1  0
 25  8  1  0
 17 11  1  0
 23 18  1  0
 29 20  1  0
  1 30  1  0
  1 31  1  0
  1 32  1  0
  2 33  1  0
  2 34  1  0
  3 35  1  0
  3 36  1  0
  4 37  1  0
  4 38  1  0
  5 39  1  0
 12 40  1  0
 13 41  1  0
 15 42  1  0
 15 43  1  0
 16 44  1  0
 17 45  1  0
 19 46  1  0
 22 47  1  0
 24 48  1  0
 24 49  1  0
 25 50  1  0
 26 51  1  0
 26 52  1  0
 26 53  1  0
 28 54  1  0
 28 55  1  0
M  END
$$$$
