
     RDKit          3D

 53 54  0  0  0  0  0  0  0  0999 V2000
    6.5204    2.0861   -1.6053 C   0  0  0  0  0  0  0  0  0  0  0  0
    6.2941    1.2168   -0.3500 C   0  0  0  0  0  0  0  0  0  0  0  0
    6.3059    2.1526    0.8788 C   0  0  0  0  0  0  0  0  0  0  0  0
    7.4484    0.1929   -0.2502 C   0  0  0  0  0  0  0  0  0  0  0  0
    4.9731    0.5514   -0.4825 N   0  0  0  0  0  0  0  0  0  0  0  0
    4.6810   -0.4759    0.5345 C   0  0  0  0  0  0  0  0  0  0  0  0
    3.1652   -0.7212    0.6419 C   0  0  0  0  0  0  0  0  0  0  0  0
    2.5050    0.4819    0.9395 O   0  0  0  0  0  0  0  0  0  0  0  0
    2.5894   -1.3239   -0.6498 C   0  0  0  0  0  0  0  0  0  0  0  0
    1.2669   -1.8132   -0.4296 O   0  0  0  0  0  0  0  0  0  0  0  0
    0.1235   -1.0038   -0.4408 C   0  0  0  0  0  0  0  0  0  0  0  0
    0.2107    0.2132   -0.7634 O   0  0  0  0  0  0  0  0  0  0  0  0
   -1.1895   -1.5839   -0.0810 C   0  0  0  0  0  0  0  0  0  0  0  0
   -1.2944   -2.9446    0.2546 C   0  0  0  0  0  0  0  0  0  0  0  0
   -2.5306   -3.4931    0.6029 C   0  0  0  0  0  0  0  0  0  0  0  0
   -3.6747   -2.6931    0.6240 C   0  0  0  0  0  0  0  0  0  0  0  0
   -3.5895   -1.3281    0.2922 C   0  0  0  0  0  0  0  0  0  0  0  0
   -4.7074   -0.4808    0.3021 O   0  0  0  0  0  0  0  0  0  0  0  0
   -6.0229   -0.8856    0.6711 C   0  0  0  0  0  0  0  0  0  0  0  0
   -6.9442    0.2959    0.5870 C   0  0  0  0  0  0  0  0  0  0  0  0
   -6.9558    1.2523    1.6158 C   0  0  0  0  0  0  0  0  0  0  0  0
   -7.7873    2.3732    1.5260 C   0  0  0  0  0  0  0  0  0  0  0  0
   -8.6043    2.5510    0.4063 C   0  0  0  0  0  0  0  0  0  0  0  0
   -8.5892    1.6096   -0.6271 C   0  0  0  0  0  0  0  0  0  0  0  0
   -7.7576    0.4884   -0.5427 C   0  0  0  0  0  0  0  0  0  0  0  0
   -2.3476   -0.7845   -0.0605 C   0  0  0  0  0  0  0  0  0  0  0  0
    5.6974    2.8249   -1.7166 H   0  0  0  0  0  0  0  0  0  0  0  0
    6.5466    1.4555   -2.5199 H   0  0  0  0  0  0  0  0  0  0  0  0
    7.4832    2.6388   -1.5417 H   0  0  0  0  0  0  0  0  0  0  0  0
    5.4064    2.8053    0.8741 H   0  0  0  0  0  0  0  0  0  0  0  0
    7.2095    2.8002    0.8706 H   0  0  0  0  0  0  0  0  0  0  0  0
    6.3268    1.5870    1.8323 H   0  0  0  0  0  0  0  0  0  0  0  0
    8.4321    0.7103   -0.2733 H   0  0  0  0  0  0  0  0  0  0  0  0
    7.3973   -0.3823    0.6985 H   0  0  0  0  0  0  0  0  0  0  0  0
    7.4064   -0.5221   -1.1002 H   0  0  0  0  0  0  0  0  0  0  0  0
    4.9259    0.0820   -1.4177 H   0  0  0  0  0  0  0  0  0  0  0  0
    5.1946   -1.4301    0.2790 H   0  0  0  0  0  0  0  0  0  0  0  0
    5.0365   -0.1669    1.5375 H   0  0  0  0  0  0  0  0  0  0  0  0
    2.9920   -1.4566    1.4627 H   0  0  0  0  0  0  0  0  0  0  0  0
    2.6904    0.6836    1.8939 H   0  0  0  0  0  0  0  0  0  0  0  0
    3.2193   -2.1837   -0.9633 H   0  0  0  0  0  0  0  0  0  0  0  0
    2.5943   -0.5814   -1.4776 H   0  0  0  0  0  0  0  0  0  0  0  0
   -0.4224   -3.5863    0.2492 H   0  0  0  0  0  0  0  0  0  0  0  0
   -2.6016   -4.5424    0.8597 H   0  0  0  0  0  0  0  0  0  0  0  0
   -4.6178   -3.1446    0.8997 H   0  0  0  0  0  0  0  0  0  0  0  0
   -6.3704   -1.6961   -0.0064 H   0  0  0  0  0  0  0  0  0  0  0  0
   -6.0177   -1.2779    1.7116 H   0  0  0  0  0  0  0  0  0  0  0  0
   -6.3197    1.1307    2.4839 H   0  0  0  0  0  0  0  0  0  0  0  0
   -7.7947    3.1060    2.3225 H   0  0  0  0  0  0  0  0  0  0  0  0
   -9.2464    3.4195    0.3376 H   0  0  0  0  0  0  0  0  0  0  0  0
   -9.2171    1.7521   -1.4980 H   0  0  0  0  0  0  0  0  0  0  0  0
   -7.7479   -0.2267   -1.3558 H   0  0  0  0  0  0  0  0  0  0  0  0
   -2.2919    0.2676   -0.3127 H   0  0  0  0  0  0  0  0  0  0  0  0
  1  2  1  0
  2  3  1  0
  2  4  1  0
  2  5  1  0
  5  6  1  0
  6  7  1  0
  7  8  1  0
  7  9  1  0
  9 10  1  0
 10 11  1  0
 11 12  2  0
 11 13  1  0
 13 14  2  0
 14 15  1  0
 15 16  2  0
 16 17  1  0
 17 18  1  0
 18 19  1  0
 19 20  1  0
 20 21  2  0
 21 22  1  0
 22 23  2  0
 23 24  1  0
 24 25  2  0
 17 26  2  0
 26 13  1  0
 25 20  1  0
  1 27  1  0
  1 28  1  0
  1 29  1  0
  3 30  1  0
  3 31  1  0
  3 32  1  0
  4 33  1  0
  4 34  1  0
  4 35  1  0
  5 36  1  0
  6 37  1  0
  6 38  1  0
  7 39  1  0
  8 40  1  0
  9 41  1  0
  9 42  1  0
 14 43  1  0
 15 44  1  0
 16 45  1  0
 19 46  1  0
 19 47  1  0
 21 48  1  0
 22 49  1  0
 23 50  1  0
 24 51  1  0
 25 52  1  0
 26 53  1  0
M  END
$$$$
