
     RDKit          3D

 39 41  0  0  0  0  0  0  0  0999 V2000
   -4.0044    2.2396    0.0469 C   0  0  0  0  0  0  0  0  0  0  0  0
   -4.0191    0.7978   -0.1962 N   0  0  0  0  0  0  0  0  0  0  0  0
   -5.1953    0.0048    0.1559 C   0  0  0  0  0  0  0  0  0  0  0  0
   -2.9428    0.1806   -0.9194 C   0  0  0  0  0  0  0  0  0  0  0  0
   -3.1281   -0.1356   -2.2693 C   0  0  0  0  0  0  0  0  0  0  0  0
   -2.1019   -0.7206   -3.0048 C   0  0  0  0  0  0  0  0  0  0  0  0
   -0.8724   -0.9935   -2.4069 C   0  0  0  0  0  0  0  0  0  0  0  0
   -0.6451   -0.6847   -1.0489 C   0  0  0  0  0  0  0  0  0  0  0  0
    0.6006   -0.9505   -0.4161 C   0  0  0  0  0  0  0  0  0  0  0  0
    1.9845   -1.6367   -1.2913 S   0  0  0  0  0  6  0  0  0  0  0  0
    2.2959   -0.8044   -2.5041 O   0  0  0  0  0  0  0  0  0  0  0  0
    1.6474   -3.0353   -1.7256 O   0  0  0  0  0  0  0  0  0  0  0  0
    3.3965   -1.6976   -0.2854 N   0  0  0  0  0  0  0  0  0  0  0  0
    4.1264   -0.5178    0.0748 C   0  0  0  0  0  0  0  0  0  0  0  0
    5.2701   -0.6111    0.8735 C   0  0  0  0  0  0  0  0  0  0  0  0
    5.9555    0.5513    1.2204 C   0  0  0  0  0  0  0  0  0  0  0  0
    5.4826    1.7805    0.7632 C   0  0  0  0  0  0  0  0  0  0  0  0
    6.3883    3.3973    1.2143 Br  0  0  0  0  0  0  0  0  0  0  0  0
    4.3659    1.8221   -0.0090 N   0  0  0  0  0  0  0  0  0  0  0  0
    3.7089    0.7093   -0.3418 N   0  0  0  0  0  0  0  0  0  0  0  0
    0.7500   -0.6683    0.9501 C   0  0  0  0  0  0  0  0  0  0  0  0
   -0.2934   -0.1106    1.6830 C   0  0  0  0  0  0  0  0  0  0  0  0
   -1.5091    0.1761    1.0703 C   0  0  0  0  0  0  0  0  0  0  0  0
   -1.7041   -0.0999   -0.2948 C   0  0  0  0  0  0  0  0  0  0  0  0
   -3.0052    2.6698   -0.1808 H   0  0  0  0  0  0  0  0  0  0  0  0
   -4.2396    2.4440    1.1127 H   0  0  0  0  0  0  0  0  0  0  0  0
   -4.7616    2.7334   -0.5975 H   0  0  0  0  0  0  0  0  0  0  0  0
   -4.8971   -0.8188    0.8382 H   0  0  0  0  0  0  0  0  0  0  0  0
   -5.9572    0.6307    0.6680 H   0  0  0  0  0  0  0  0  0  0  0  0
   -5.6509   -0.4263   -0.7601 H   0  0  0  0  0  0  0  0  0  0  0  0
   -4.0728    0.0793   -2.7530 H   0  0  0  0  0  0  0  0  0  0  0  0
   -2.2594   -0.9633   -4.0479 H   0  0  0  0  0  0  0  0  0  0  0  0
   -0.1154   -1.4567   -3.0214 H   0  0  0  0  0  0  0  0  0  0  0  0
    3.7138   -2.6306    0.0610 H   0  0  0  0  0  0  0  0  0  0  0  0
    5.6243   -1.5725    1.2234 H   0  0  0  0  0  0  0  0  0  0  0  0
    6.8428    0.4971    1.8379 H   0  0  0  0  0  0  0  0  0  0  0  0
    1.6774   -0.8822    1.4626 H   0  0  0  0  0  0  0  0  0  0  0  0
   -0.1586    0.1000    2.7362 H   0  0  0  0  0  0  0  0  0  0  0  0
   -2.2977    0.6034    1.6759 H   0  0  0  0  0  0  0  0  0  0  0  0
  1  2  1  0
  2  3  1  0
  2  4  1  0
  4  5  2  0
  5  6  1  0
  6  7  2  0
  7  8  1  0
  8  9  2  0
  9 10  1  0
 10 11  2  0
 10 12  2  0
 10 13  1  0
 13 14  1  0
 14 15  2  0
 15 16  1  0
 16 17  2  0
 17 18  1  0
 17 19  1  0
 19 20  2  0
  9 21  1  0
 21 22  2  0
 22 23  1  0
 23 24  2  0
 24  4  1  0
 24  8  1  0
 20 14  1  0
  1 25  1  0
  1 26  1  0
  1 27  1  0
  3 28  1  0
  3 29  1  0
  3 30  1  0
  5 31  1  0
  6 32  1  0
  7 33  1  0
 13 34  1  0
 15 35  1  0
 16 36  1  0
 21 37  1  0
 22 38  1  0
 23 39  1  0
M  END
$$$$
