
     RDKit          3D

 54 56  0  0  0  0  0  0  0  0999 V2000
    7.5687    2.0267    1.7467 C   0  0  0  0  0  0  0  0  0  0  0  0
    7.0081    1.6153    0.5040 O   0  0  0  0  0  0  0  0  0  0  0  0
    5.8363    0.8531    0.3738 C   0  0  0  0  0  0  0  0  0  0  0  0
    5.0968    0.4231    1.4919 C   0  0  0  0  0  0  0  0  0  0  0  0
    3.9368   -0.3344    1.3231 C   0  0  0  0  0  0  0  0  0  0  0  0
    3.5007   -0.6851    0.0387 C   0  0  0  0  0  0  0  0  0  0  0  0
    2.2290   -1.4718   -0.1405 C   0  0  0  0  0  0  0  0  0  0  0  0
    1.0183   -0.5310   -0.2003 C   0  0  0  0  0  0  0  0  0  0  0  0
   -0.2088   -1.2361   -0.6047 N   0  0  0  0  0  0  0  0  0  0  0  0
   -0.7082   -2.2297    0.3670 C   0  0  0  0  0  0  0  0  0  0  0  0
   -1.0768   -1.6500    1.7495 C   0  0  0  0  0  0  0  0  0  0  0  0
   -1.6456   -2.6710    2.5262 O   0  0  0  0  0  0  0  0  0  0  0  0
   -2.0593   -0.5207    1.6240 C   0  0  0  0  0  0  0  0  0  0  0  0
   -1.7162    0.6445    1.9630 O   0  0  0  0  0  0  0  0  0  0  0  0
   -3.3186   -0.7682    1.0623 O   0  0  0  0  0  0  0  0  0  0  0  0
   -4.4034    0.1233    1.0760 C   0  0  0  0  0  0  0  0  0  0  0  0
   -4.6190    0.9957    2.1590 C   0  0  0  0  0  0  0  0  0  0  0  0
   -5.7100    1.8666    2.1631 C   0  0  0  0  0  0  0  0  0  0  0  0
   -6.6084    1.8758    1.0962 C   0  0  0  0  0  0  0  0  0  0  0  0
   -6.4261    1.0033    0.0144 C   0  0  0  0  0  0  0  0  0  0  0  0
   -7.3335    1.0025   -1.0566 C   0  0  0  0  0  0  0  0  0  0  0  0
   -7.1498    0.1309   -2.1325 C   0  0  0  0  0  0  0  0  0  0  0  0
   -6.0620   -0.7440   -2.1496 C   0  0  0  0  0  0  0  0  0  0  0  0
   -5.1494   -0.7543   -1.0912 C   0  0  0  0  0  0  0  0  0  0  0  0
   -5.3193    0.1153    0.0027 C   0  0  0  0  0  0  0  0  0  0  0  0
    4.2263   -0.2468   -1.0790 C   0  0  0  0  0  0  0  0  0  0  0  0
    5.3979    0.5189   -0.9174 C   0  0  0  0  0  0  0  0  0  0  0  0
    6.1516    0.9678   -2.0136 O   0  0  0  0  0  0  0  0  0  0  0  0
    5.8284    0.7086   -3.3760 C   0  0  0  0  0  0  0  0  0  0  0  0
    8.4903    2.6124    1.5522 H   0  0  0  0  0  0  0  0  0  0  0  0
    6.8488    2.6691    2.2965 H   0  0  0  0  0  0  0  0  0  0  0  0
    7.8344    1.1387    2.3584 H   0  0  0  0  0  0  0  0  0  0  0  0
    5.4085    0.6722    2.4970 H   0  0  0  0  0  0  0  0  0  0  0  0
    3.3760   -0.6472    2.1955 H   0  0  0  0  0  0  0  0  0  0  0  0
    2.1213   -2.1810    0.7074 H   0  0  0  0  0  0  0  0  0  0  0  0
    2.2813   -2.0723   -1.0751 H   0  0  0  0  0  0  0  0  0  0  0  0
    1.2259    0.2528   -0.9625 H   0  0  0  0  0  0  0  0  0  0  0  0
    0.8840    0.0004    0.7648 H   0  0  0  0  0  0  0  0  0  0  0  0
   -0.9562   -0.5270   -0.7883 H   0  0  0  0  0  0  0  0  0  0  0  0
   -1.6127   -2.7097   -0.0676 H   0  0  0  0  0  0  0  0  0  0  0  0
    0.0319   -3.0473    0.4916 H   0  0  0  0  0  0  0  0  0  0  0  0
   -0.1493   -1.2958    2.2540 H   0  0  0  0  0  0  0  0  0  0  0  0
   -1.6455   -2.3525    3.4672 H   0  0  0  0  0  0  0  0  0  0  0  0
   -3.9617    0.9848    3.0176 H   0  0  0  0  0  0  0  0  0  0  0  0
   -5.8648    2.5318    3.0029 H   0  0  0  0  0  0  0  0  0  0  0  0
   -7.4494    2.5586    1.1201 H   0  0  0  0  0  0  0  0  0  0  0  0
   -8.1835    1.6745   -1.0613 H   0  0  0  0  0  0  0  0  0  0  0  0
   -7.8526    0.1339   -2.9557 H   0  0  0  0  0  0  0  0  0  0  0  0
   -5.9244   -1.4162   -2.9868 H   0  0  0  0  0  0  0  0  0  0  0  0
   -4.3137   -1.4420   -1.1339 H   0  0  0  0  0  0  0  0  0  0  0  0
    3.8712   -0.5038   -2.0681 H   0  0  0  0  0  0  0  0  0  0  0  0
    5.8255   -0.3854   -3.5664 H   0  0  0  0  0  0  0  0  0  0  0  0
    6.5937    1.1800   -4.0259 H   0  0  0  0  0  0  0  0  0  0  0  0
    4.8365    1.1431   -3.6225 H   0  0  0  0  0  0  0  0  0  0  0  0
  1  2  1  0
  2  3  1  0
  3  4  2  0
  4  5  1  0
  5  6  2  0
  6  7  1  0
  7  8  1  0
  8  9  1  0
  9 10  1  0
 10 11  1  0
 11 12  1  0
 11 13  1  0
 13 14  2  0
 13 15  1  0
 15 16  1  0
 16 17  2  0
 17 18  1  0
 18 19  2  0
 19 20  1  0
 20 21  2  0
 21 22  1  0
 22 23  2  0
 23 24  1  0
 24 25  2  0
  6 26  1  0
 26 27  2  0
 27 28  1  0
 28 29  1  0
 27  3  1  0
 25 16  1  0
 25 20  1  0
  1 30  1  0
  1 31  1  0
  1 32  1  0
  4 33  1  0
  5 34  1  0
  7 35  1  0
  7 36  1  0
  8 37  1  0
  8 38  1  0
  9 39  1  0
 10 40  1  0
 10 41  1  0
 11 42  1  0
 12 43  1  0
 17 44  1  0
 18 45  1  0
 19 46  1  0
 21 47  1  0
 22 48  1  0
 23 49  1  0
 24 50  1  0
 26 51  1  0
 29 52  1  0
 29 53  1  0
 29 54  1  0
M  END
$$$$
