
     RDKit          3D

 42 44  0  0  0  0  0  0  0  0999 V2000
    5.2984   -2.4739    1.0854 C   0  0  0  0  0  0  0  0  0  0  0  0
    4.8373   -1.4016    0.1451 C   0  0  0  0  0  0  0  0  0  0  0  0
    5.5216   -1.2066   -1.0152 N   0  0  0  0  0  0  0  0  0  0  0  0
    5.1528   -0.2555   -1.9107 C   0  0  0  0  0  0  0  0  0  0  0  0
    6.1481   -0.0262   -3.5213 Br  0  0  0  0  0  0  0  0  0  0  0  0
    4.0445    0.5449   -1.6406 C   0  0  0  0  0  0  0  0  0  0  0  0
    3.3545    0.3585   -0.4869 N   0  0  0  0  0  0  0  0  0  0  0  0
    3.7144   -0.5907    0.4213 C   0  0  0  0  0  0  0  0  0  0  0  0
    2.9415   -0.7571    1.6218 N   0  0  0  0  0  0  0  0  0  0  0  0
    1.5681    0.2433    1.9726 S   0  0  0  0  0  6  0  0  0  0  0  0
    1.1633    0.0155    3.4019 O   0  0  0  0  0  0  0  0  0  0  0  0
    1.9665    1.6822    1.7955 O   0  0  0  0  0  0  0  0  0  0  0  0
    0.2000   -0.1500    0.9118 C   0  0  0  0  0  0  0  0  0  0  0  0
    0.3189   -1.2531    0.0529 C   0  0  0  0  0  0  0  0  0  0  0  0
   -0.7113   -1.5953   -0.8178 C   0  0  0  0  0  0  0  0  0  0  0  0
   -1.8835   -0.8467   -0.8497 C   0  0  0  0  0  0  0  0  0  0  0  0
   -2.0482    0.2600    0.0022 C   0  0  0  0  0  0  0  0  0  0  0  0
   -3.2437    1.0173   -0.0191 C   0  0  0  0  0  0  0  0  0  0  0  0
   -4.3022    0.7131   -0.9408 N   0  0  0  0  0  0  0  0  0  0  0  0
   -4.2018    1.1394   -2.3359 C   0  0  0  0  0  0  0  0  0  0  0  0
   -5.5392    0.1156   -0.4419 C   0  0  0  0  0  0  0  0  0  0  0  0
   -3.4023    2.0912    0.8631 C   0  0  0  0  0  0  0  0  0  0  0  0
   -2.3915    2.4235    1.7598 C   0  0  0  0  0  0  0  0  0  0  0  0
   -1.2036    1.6941    1.7858 C   0  0  0  0  0  0  0  0  0  0  0  0
   -1.0036    0.6078    0.9078 C   0  0  0  0  0  0  0  0  0  0  0  0
    4.4987   -3.2333    1.2135 H   0  0  0  0  0  0  0  0  0  0  0  0
    5.5554   -2.0293    2.0698 H   0  0  0  0  0  0  0  0  0  0  0  0
    6.2017   -2.9812    0.6848 H   0  0  0  0  0  0  0  0  0  0  0  0
    3.7310    1.3085   -2.3399 H   0  0  0  0  0  0  0  0  0  0  0  0
    3.1836   -1.4948    2.3186 H   0  0  0  0  0  0  0  0  0  0  0  0
    1.2117   -1.8625    0.0528 H   0  0  0  0  0  0  0  0  0  0  0  0
   -0.6003   -2.4496   -1.4733 H   0  0  0  0  0  0  0  0  0  0  0  0
   -2.6636   -1.1487   -1.5365 H   0  0  0  0  0  0  0  0  0  0  0  0
   -4.9024    1.9808   -2.5193 H   0  0  0  0  0  0  0  0  0  0  0  0
   -4.4597    0.2936   -3.0075 H   0  0  0  0  0  0  0  0  0  0  0  0
   -3.1694    1.4750   -2.5745 H   0  0  0  0  0  0  0  0  0  0  0  0
   -6.2760   -0.0158   -1.2632 H   0  0  0  0  0  0  0  0  0  0  0  0
   -5.3195   -0.8794   -0.0011 H   0  0  0  0  0  0  0  0  0  0  0  0
   -5.9899    0.7681    0.3351 H   0  0  0  0  0  0  0  0  0  0  0  0
   -4.3138    2.6756    0.8494 H   0  0  0  0  0  0  0  0  0  0  0  0
   -2.5284    3.2546    2.4398 H   0  0  0  0  0  0  0  0  0  0  0  0
   -0.4579    1.9887    2.5086 H   0  0  0  0  0  0  0  0  0  0  0  0
  1  2  1  0
  2  3  2  0
  3  4  1  0
  4  5  1  0
  4  6  2  0
  6  7  1  0
  7  8  2  0
  8  9  1  0
  9 10  1  0
 10 11  2  0
 10 12  2  0
 10 13  1  0
 13 14  2  0
 14 15  1  0
 15 16  2  0
 16 17  1  0
 17 18  2  0
 18 19  1  0
 19 20  1  0
 19 21  1  0
 18 22  1  0
 22 23  2  0
 23 24  1  0
 24 25  2  0
  8  2  1  0
 25 13  1  0
 25 17  1  0
  1 26  1  0
  1 27  1  0
  1 28  1  0
  6 29  1  0
  9 30  1  0
 14 31  1  0
 15 32  1  0
 16 33  1  0
 20 34  1  0
 20 35  1  0
 20 36  1  0
 21 37  1  0
 21 38  1  0
 21 39  1  0
 22 40  1  0
 23 41  1  0
 24 42  1  0
M  END
$$$$
