
     RDKit          3D

 50 51  0  0  0  0  0  0  0  0999 V2000
    4.4580    2.1777    2.4211 C   0  0  0  0  0  0  0  0  0  0  0  0
    4.8917    1.2871    1.2604 C   0  0  0  0  0  0  0  0  0  0  0  0
    3.8987    0.1349    1.0483 C   0  0  0  0  0  0  0  0  0  0  0  0
    4.3628   -0.8687   -0.0201 C   0  0  0  0  0  0  0  0  0  0  0  0
    4.5030   -0.3134   -1.4577 C   0  0  0  0  0  0  0  0  0  0  0  0
    3.1937    0.0909   -2.1946 C   0  0  0  0  0  0  0  0  0  0  0  0
    2.8842    1.4552   -2.0372 O   0  0  0  0  0  0  0  0  0  0  0  0
    2.0104   -0.8081   -1.8839 C   0  0  0  0  0  0  0  0  0  0  0  0
    1.9945   -2.1179   -2.3922 C   0  0  0  0  0  0  0  0  0  0  0  0
    0.9362   -2.9795   -2.0979 C   0  0  0  0  0  0  0  0  0  0  0  0
   -0.1178   -2.5479   -1.2907 C   0  0  0  0  0  0  0  0  0  0  0  0
   -0.1201   -1.2409   -0.7696 C   0  0  0  0  0  0  0  0  0  0  0  0
   -1.1523   -0.7599    0.0491 O   0  0  0  0  0  0  0  0  0  0  0  0
   -2.2865   -1.5233    0.4494 C   0  0  0  0  0  0  0  0  0  0  0  0
   -3.1595   -0.6835    1.3272 C   0  0  0  0  0  0  0  0  0  0  0  0
   -2.8268   -0.4744    2.6719 C   0  0  0  0  0  0  0  0  0  0  0  0
   -3.6415    0.3404    3.4587 C   0  0  0  0  0  0  0  0  0  0  0  0
   -4.7697    0.9444    2.9011 C   0  0  0  0  0  0  0  0  0  0  0  0
   -5.0703    0.7263    1.5467 C   0  0  0  0  0  0  0  0  0  0  0  0
   -6.2450    1.3477    0.9118 C   0  0  0  0  0  0  0  0  0  0  0  0
   -7.0124    2.0940    1.5806 O   0  0  0  0  0  0  0  0  0  0  0  0
   -6.5020    1.1024   -0.4407 O   0  0  0  0  0  0  0  0  0  0  0  0
   -7.6151    1.6652   -1.1245 C   0  0  0  0  0  0  0  0  0  0  0  0
   -4.2578   -0.0739    0.8022 N   0  0  0  0  0  0  0  0  0  0  0  0
    0.9427   -0.3804   -1.0710 C   0  0  0  0  0  0  0  0  0  0  0  0
    4.4202    1.5924    3.3645 H   0  0  0  0  0  0  0  0  0  0  0  0
    5.1868    3.0060    2.5469 H   0  0  0  0  0  0  0  0  0  0  0  0
    3.4562    2.6134    2.2187 H   0  0  0  0  0  0  0  0  0  0  0  0
    5.9017    0.8776    1.4798 H   0  0  0  0  0  0  0  0  0  0  0  0
    4.9568    1.9140    0.3471 H   0  0  0  0  0  0  0  0  0  0  0  0
    2.8919    0.5272    0.8069 H   0  0  0  0  0  0  0  0  0  0  0  0
    3.7973   -0.4227    2.0054 H   0  0  0  0  0  0  0  0  0  0  0  0
    3.6705   -1.7370   -0.0197 H   0  0  0  0  0  0  0  0  0  0  0  0
    5.3526   -1.2698    0.2901 H   0  0  0  0  0  0  0  0  0  0  0  0
    5.2216    0.5324   -1.4778 H   0  0  0  0  0  0  0  0  0  0  0  0
    4.9822   -1.1193   -2.0567 H   0  0  0  0  0  0  0  0  0  0  0  0
    3.4030   -0.0340   -3.2803 H   0  0  0  0  0  0  0  0  0  0  0  0
    2.9899    1.6957   -1.0842 H   0  0  0  0  0  0  0  0  0  0  0  0
    2.8079   -2.4736   -3.0126 H   0  0  0  0  0  0  0  0  0  0  0  0
    0.9349   -3.9867   -2.4942 H   0  0  0  0  0  0  0  0  0  0  0  0
   -0.9235   -3.2368   -1.0774 H   0  0  0  0  0  0  0  0  0  0  0  0
   -2.8581   -1.8447   -0.4484 H   0  0  0  0  0  0  0  0  0  0  0  0
   -1.9569   -2.4273    1.0067 H   0  0  0  0  0  0  0  0  0  0  0  0
   -1.9471   -0.9359    3.1033 H   0  0  0  0  0  0  0  0  0  0  0  0
   -3.3970    0.5064    4.5000 H   0  0  0  0  0  0  0  0  0  0  0  0
   -5.3954    1.5759    3.5193 H   0  0  0  0  0  0  0  0  0  0  0  0
   -8.5618    1.3314   -0.6491 H   0  0  0  0  0  0  0  0  0  0  0  0
   -7.6039    1.3259   -2.1805 H   0  0  0  0  0  0  0  0  0  0  0  0
   -7.5542    2.7740   -1.1020 H   0  0  0  0  0  0  0  0  0  0  0  0
    0.9252    0.6213   -0.6631 H   0  0  0  0  0  0  0  0  0  0  0  0
  1  2  1  0
  2  3  1  0
  3  4  1  0
  4  5  1  0
  5  6  1  0
  6  7  1  0
  6  8  1  0
  8  9  2  0
  9 10  1  0
 10 11  2  0
 11 12  1  0
 12 13  1  0
 13 14  1  0
 14 15  1  0
 15 16  2  0
 16 17  1  0
 17 18  2  0
 18 19  1  0
 19 20  1  0
 20 21  2  0
 20 22  1  0
 22 23  1  0
 19 24  2  0
 12 25  2  0
 25  8  1  0
 24 15  1  0
  1 26  1  0
  1 27  1  0
  1 28  1  0
  2 29  1  0
  2 30  1  0
  3 31  1  0
  3 32  1  0
  4 33  1  0
  4 34  1  0
  5 35  1  0
  5 36  1  0
  6 37  1  0
  7 38  1  0
  9 39  1  0
 10 40  1  0
 11 41  1  0
 14 42  1  0
 14 43  1  0
 16 44  1  0
 17 45  1  0
 18 46  1  0
 23 47  1  0
 23 48  1  0
 23 49  1  0
 25 50  1  0
M  END
$$$$
