
     RDKit          3D

 33 35  0  0  0  0  0  0  0  0999 V2000
   -5.3379    1.0763   -1.7719 N   0  0  0  0  0  0  0  0  0  0  0  0
   -4.1276    0.7017   -1.1185 C   0  0  0  0  0  0  0  0  0  0  0  0
   -3.5705    1.5245   -0.1978 N   0  0  0  0  0  0  0  0  0  0  0  0
   -2.4159    1.2075    0.4458 C   0  0  0  0  0  0  0  0  0  0  0  0
   -2.0505    2.0069    1.5712 N   0  0  0  0  0  0  0  0  0  0  0  0
   -1.7250    0.0135    0.0998 C   0  0  0  0  0  0  0  0  0  0  0  0
   -0.4172   -0.3476    0.5525 C   0  0  0  0  0  0  0  0  0  0  0  0
    0.7714    0.8067    1.2014 S   0  0  0  0  0  6  0  0  0  0  0  0
    0.5147    2.1957    0.6870 O   0  0  0  0  0  0  0  0  0  0  0  0
    0.7124    0.8101    2.7036 O   0  0  0  0  0  0  0  0  0  0  0  0
    2.3946    0.3604    0.6735 C   0  0  0  0  0  0  0  0  0  0  0  0
    3.3421   -0.1157    1.5900 C   0  0  0  0  0  0  0  0  0  0  0  0
    4.6180   -0.4825    1.1535 C   0  0  0  0  0  0  0  0  0  0  0  0
    4.9578   -0.3804   -0.2002 C   0  0  0  0  0  0  0  0  0  0  0  0
    6.5721   -0.8538   -0.7118 Cl  0  0  0  0  0  0  0  0  0  0  0  0
    4.0096    0.0927   -1.1234 C   0  0  0  0  0  0  0  0  0  0  0  0
    4.3920    0.2307   -2.8340 Cl  0  0  0  0  0  0  0  0  0  0  0  0
    2.7329    0.4603   -0.6825 C   0  0  0  0  0  0  0  0  0  0  0  0
    0.0515   -1.6498    0.3036 C   0  0  0  0  0  0  0  0  0  0  0  0
   -0.6798   -2.5413   -0.4769 C   0  0  0  0  0  0  0  0  0  0  0  0
   -1.8816   -2.1420   -1.0498 C   0  0  0  0  0  0  0  0  0  0  0  0
   -2.4021   -0.8752   -0.7787 C   0  0  0  0  0  0  0  0  0  0  0  0
   -3.5644   -0.5029   -1.3722 N   0  0  0  0  0  0  0  0  0  0  0  0
   -5.7887    1.9948   -1.5637 H   0  0  0  0  0  0  0  0  0  0  0  0
   -5.7837    0.4365   -2.4662 H   0  0  0  0  0  0  0  0  0  0  0  0
   -2.4584    2.9618    1.6810 H   0  0  0  0  0  0  0  0  0  0  0  0
   -1.6203    1.5716    2.4140 H   0  0  0  0  0  0  0  0  0  0  0  0
    3.0962   -0.2088    2.6396 H   0  0  0  0  0  0  0  0  0  0  0  0
    5.3425   -0.8491    1.8696 H   0  0  0  0  0  0  0  0  0  0  0  0
    2.0013    0.8184   -1.3964 H   0  0  0  0  0  0  0  0  0  0  0  0
    1.0182   -1.9664    0.6734 H   0  0  0  0  0  0  0  0  0  0  0  0
   -0.2880   -3.5301   -0.6780 H   0  0  0  0  0  0  0  0  0  0  0  0
   -2.4155   -2.8247   -1.6997 H   0  0  0  0  0  0  0  0  0  0  0  0
  1  2  1  0
  2  3  2  0
  3  4  1  0
  4  5  1  0
  4  6  2  0
  6  7  1  0
  7  8  1  0
  8  9  2  0
  8 10  2  0
  8 11  1  0
 11 12  2  0
 12 13  1  0
 13 14  2  0
 14 15  1  0
 14 16  1  0
 16 17  1  0
 16 18  2  0
  7 19  2  0
 19 20  1  0
 20 21  2  0
 21 22  1  0
 22 23  2  0
 23  2  1  0
 22  6  1  0
 18 11  1  0
  1 24  1  0
  1 25  1  0
  5 26  1  0
  5 27  1  0
 12 28  1  0
 13 29  1  0
 18 30  1  0
 19 31  1  0
 20 32  1  0
 21 33  1  0
M  END
$$$$
