
     RDKit          3D

 52 53  0  0  0  0  0  0  0  0999 V2000
    5.7391    2.4097   -0.2615 C   0  0  0  0  0  0  0  0  0  0  0  0
    6.2871    1.0644    0.2134 C   0  0  0  0  0  0  0  0  0  0  0  0
    5.5685   -0.1224   -0.4455 C   0  0  0  0  0  0  0  0  0  0  0  0
    4.1239   -0.2122   -0.0404 C   0  0  0  0  0  0  0  0  0  0  0  0
    3.7657   -0.5574    1.2003 C   0  0  0  0  0  0  0  0  0  0  0  0
    2.3564   -0.6542    1.6058 C   0  0  0  0  0  0  0  0  0  0  0  0
    2.0799   -0.9860    2.7902 O   0  0  0  0  0  0  0  0  0  0  0  0
    1.3361   -0.3717    0.6882 O   0  0  0  0  0  0  0  0  0  0  0  0
   -0.0571   -0.4917    0.9842 C   0  0  2  0  0  0  0  0  0  0  0  0
   -0.4654   -1.9801    1.0038 C   0  0  0  0  0  0  0  0  0  0  0  0
   -1.9012   -2.1788    1.4328 C   0  0  0  0  0  0  0  0  0  0  0  0
   -2.4930   -3.3905    1.4866 C   0  0  0  0  0  0  0  0  0  0  0  0
   -3.9296   -3.4751    1.9330 C   0  0  0  0  0  0  0  0  0  0  0  0
   -1.7494   -4.6508    1.1122 C   0  0  0  0  0  0  0  0  0  0  0  0
   -0.8458    0.2850   -0.0575 C   0  0  0  0  0  0  0  0  0  0  0  0
   -0.6327    0.0539   -1.3608 C   0  0  0  0  0  0  0  0  0  0  0  0
   -1.3830    0.7643   -2.4054 C   0  0  0  0  0  0  0  0  0  0  0  0
   -1.0346    0.5962   -3.6033 O   0  0  0  0  0  0  0  0  0  0  0  0
   -2.4577    1.7275   -2.0363 C   0  0  0  0  0  0  0  0  0  0  0  0
   -3.3200    2.3199   -2.9983 C   0  0  0  0  0  0  0  0  0  0  0  0
   -3.3959    1.8908   -4.3255 O   0  0  0  0  0  0  0  0  0  0  0  0
   -4.1703    3.3580   -2.6185 C   0  0  0  0  0  0  0  0  0  0  0  0
   -4.2049    3.8021   -1.3025 C   0  0  0  0  0  0  0  0  0  0  0  0
   -3.4077    3.2038   -0.3271 C   0  0  0  0  0  0  0  0  0  0  0  0
   -3.4466    3.7600    0.9539 O   0  0  0  0  0  0  0  0  0  0  0  0
   -2.5759    2.1043   -0.6724 C   0  0  0  0  0  0  0  0  0  0  0  0
   -1.8648    1.2846    0.3531 C   0  0  0  0  0  0  0  0  0  0  0  0
   -2.1803    1.3701    1.5697 O   0  0  0  0  0  0  0  0  0  0  0  0
    4.6734    2.5219    0.0304 H   0  0  0  0  0  0  0  0  0  0  0  0
    6.3200    3.2321    0.2068 H   0  0  0  0  0  0  0  0  0  0  0  0
    5.8291    2.4959   -1.3653 H   0  0  0  0  0  0  0  0  0  0  0  0
    6.2032    0.9995    1.3199 H   0  0  0  0  0  0  0  0  0  0  0  0
    7.3668    1.0125   -0.0447 H   0  0  0  0  0  0  0  0  0  0  0  0
    5.6322   -0.0232   -1.5509 H   0  0  0  0  0  0  0  0  0  0  0  0
    6.0860   -1.0662   -0.1673 H   0  0  0  0  0  0  0  0  0  0  0  0
    3.3700   -0.0117   -0.7925 H   0  0  0  0  0  0  0  0  0  0  0  0
    4.5294   -0.7764    1.9374 H   0  0  0  0  0  0  0  0  0  0  0  0
   -0.2368   -0.0585    1.9930 H   0  0  0  0  0  0  0  0  0  0  0  0
   -0.3119   -2.4210   -0.0044 H   0  0  0  0  0  0  0  0  0  0  0  0
    0.1893   -2.5258    1.7154 H   0  0  0  0  0  0  0  0  0  0  0  0
   -2.4835   -1.3061    1.7161 H   0  0  0  0  0  0  0  0  0  0  0  0
   -4.0259   -3.0755    2.9647 H   0  0  0  0  0  0  0  0  0  0  0  0
   -4.5701   -2.8764    1.2512 H   0  0  0  0  0  0  0  0  0  0  0  0
   -4.3004   -4.5210    1.9285 H   0  0  0  0  0  0  0  0  0  0  0  0
   -1.4260   -4.5991    0.0516 H   0  0  0  0  0  0  0  0  0  0  0  0
   -2.3876   -5.5511    1.2315 H   0  0  0  0  0  0  0  0  0  0  0  0
   -0.8595   -4.7742    1.7645 H   0  0  0  0  0  0  0  0  0  0  0  0
    0.1184   -0.6643   -1.6691 H   0  0  0  0  0  0  0  0  0  0  0  0
   -3.0603    0.9946   -4.6472 H   0  0  0  0  0  0  0  0  0  0  0  0
   -4.8166    3.8223   -3.3529 H   0  0  0  0  0  0  0  0  0  0  0  0
   -4.8533    4.6282   -1.0375 H   0  0  0  0  0  0  0  0  0  0  0  0
   -2.7268    3.6203    1.6486 H   0  0  0  0  0  0  0  0  0  0  0  0
  1  2  1  0
  2  3  1  0
  3  4  1  0
  4  5  2  0
  5  6  1  0
  6  7  2  0
  6  8  1  0
  8  9  1  0
  9 10  1  0
 10 11  1  0
 11 12  2  3
 12 13  1  0
 12 14  1  0
  9 15  1  0
 15 16  2  0
 16 17  1  0
 17 18  2  0
 17 19  1  0
 19 20  2  0
 20 21  1  0
 20 22  1  0
 22 23  2  0
 23 24  1  0
 24 25  1  0
 24 26  2  0
 26 27  1  0
 27 28  2  0
 27 15  1  0
 26 19  1  0
  1 29  1  0
  1 30  1  0
  1 31  1  0
  2 32  1  0
  2 33  1  0
  3 34  1  0
  3 35  1  0
  4 36  1  0
  5 37  1  0
  9 38  1  1
 10 39  1  0
 10 40  1  0
 11 41  1  0
 13 42  1  0
 13 43  1  0
 13 44  1  0
 14 45  1  0
 14 46  1  0
 14 47  1  0
 16 48  1  0
 21 49  1  0
 22 50  1  0
 23 51  1  0
 25 52  1  0
M  END
$$$$
