
     RDKit          3D

 57 58  0  0  0  0  0  0  0  0999 V2000
    4.1573   -0.4215   -3.2046 C   0  0  0  0  0  0  0  0  0  0  0  0
    5.4263   -0.0601   -2.4354 C   0  0  0  0  0  0  0  0  0  0  0  0
    5.1980    0.0477   -0.9183 C   0  0  0  0  0  0  0  0  0  0  0  0
    4.8667   -1.3042   -0.2472 C   0  0  0  0  0  0  0  0  0  0  0  0
    3.3648   -1.4914    0.0289 C   0  0  0  0  0  0  0  0  0  0  0  0
    2.9036   -0.7230    1.2742 C   0  0  0  0  0  0  0  0  0  0  0  0
    1.4312   -0.8921    1.4615 C   0  0  0  0  0  0  0  0  0  0  0  0
    0.9952   -1.8221    2.1936 O   0  0  0  0  0  0  0  0  0  0  0  0
    0.5547   -0.0438    0.7748 O   0  0  0  0  0  0  0  0  0  0  0  0
   -0.8572   -0.2585    0.6791 C   0  0  2  0  0  0  0  0  0  0  0  0
   -1.1811   -1.1520   -0.5331 C   0  0  0  0  0  0  0  0  0  0  0  0
   -0.5969   -2.5356   -0.3889 C   0  0  0  0  0  0  0  0  0  0  0  0
   -1.1903   -3.5495    0.2803 C   0  0  0  0  0  0  0  0  0  0  0  0
   -2.5700   -3.4178    0.8768 C   0  0  0  0  0  0  0  0  0  0  0  0
   -0.4961   -4.8827    0.3826 C   0  0  0  0  0  0  0  0  0  0  0  0
   -1.5662    1.0751    0.5285 C   0  0  0  0  0  0  0  0  0  0  0  0
   -1.0514    2.0217   -0.2695 C   0  0  0  0  0  0  0  0  0  0  0  0
   -1.7243    3.3123   -0.4712 C   0  0  0  0  0  0  0  0  0  0  0  0
   -1.2465    4.1023   -1.3269 O   0  0  0  0  0  0  0  0  0  0  0  0
   -2.9914    3.6204    0.2484 C   0  0  0  0  0  0  0  0  0  0  0  0
   -3.5977    4.9052    0.2158 C   0  0  0  0  0  0  0  0  0  0  0  0
   -2.9579    6.0408   -0.2866 O   0  0  0  0  0  0  0  0  0  0  0  0
   -4.8792    5.0784    0.7378 C   0  0  0  0  0  0  0  0  0  0  0  0
   -5.5604    4.0142    1.3155 C   0  0  0  0  0  0  0  0  0  0  0  0
   -4.9684    2.7548    1.4082 C   0  0  0  0  0  0  0  0  0  0  0  0
   -5.7503    1.7237    1.9342 O   0  0  0  0  0  0  0  0  0  0  0  0
   -3.6403    2.5631    0.9392 C   0  0  0  0  0  0  0  0  0  0  0  0
   -2.8713    1.3093    1.1975 C   0  0  0  0  0  0  0  0  0  0  0  0
   -3.2791    0.4721    2.0458 O   0  0  0  0  0  0  0  0  0  0  0  0
    4.3547   -0.3531   -4.2951 H   0  0  0  0  0  0  0  0  0  0  0  0
    3.3343    0.2794   -2.9495 H   0  0  0  0  0  0  0  0  0  0  0  0
    3.8466   -1.4621   -2.9754 H   0  0  0  0  0  0  0  0  0  0  0  0
    5.7906    0.9228   -2.8055 H   0  0  0  0  0  0  0  0  0  0  0  0
    6.2173   -0.8114   -2.6496 H   0  0  0  0  0  0  0  0  0  0  0  0
    6.1387    0.4345   -0.4690 H   0  0  0  0  0  0  0  0  0  0  0  0
    4.4158    0.8097   -0.7139 H   0  0  0  0  0  0  0  0  0  0  0  0
    5.4245   -1.3853    0.7118 H   0  0  0  0  0  0  0  0  0  0  0  0
    5.2239   -2.1446   -0.8818 H   0  0  0  0  0  0  0  0  0  0  0  0
    3.1701   -2.5749    0.1904 H   0  0  0  0  0  0  0  0  0  0  0  0
    2.7679   -1.1737   -0.8526 H   0  0  0  0  0  0  0  0  0  0  0  0
    3.1263    0.3594    1.1697 H   0  0  0  0  0  0  0  0  0  0  0  0
    3.4394   -1.1009    2.1722 H   0  0  0  0  0  0  0  0  0  0  0  0
   -1.2105   -0.7479    1.6106 H   0  0  0  0  0  0  0  0  0  0  0  0
   -2.2789   -1.2078   -0.6940 H   0  0  0  0  0  0  0  0  0  0  0  0
   -0.7471   -0.6888   -1.4460 H   0  0  0  0  0  0  0  0  0  0  0  0
    0.3762   -2.6993   -0.8452 H   0  0  0  0  0  0  0  0  0  0  0  0
   -2.5863   -2.6208    1.6470 H   0  0  0  0  0  0  0  0  0  0  0  0
   -3.3090   -3.1848    0.0822 H   0  0  0  0  0  0  0  0  0  0  0  0
   -2.8816   -4.3671    1.3619 H   0  0  0  0  0  0  0  0  0  0  0  0
   -0.5090   -5.2300    1.4371 H   0  0  0  0  0  0  0  0  0  0  0  0
    0.5640   -4.8287    0.0535 H   0  0  0  0  0  0  0  0  0  0  0  0
   -1.0280   -5.6248   -0.2487 H   0  0  0  0  0  0  0  0  0  0  0  0
   -0.1247    1.8403   -0.8018 H   0  0  0  0  0  0  0  0  0  0  0  0
   -1.9595    6.1103   -0.4218 H   0  0  0  0  0  0  0  0  0  0  0  0
   -5.3505    6.0526    0.6993 H   0  0  0  0  0  0  0  0  0  0  0  0
   -6.5653    4.1670    1.6889 H   0  0  0  0  0  0  0  0  0  0  0  0
   -5.5616    0.7429    1.7842 H   0  0  0  0  0  0  0  0  0  0  0  0
  1  2  1  0
  2  3  1  0
  3  4  1  0
  4  5  1  0
  5  6  1  0
  6  7  1  0
  7  8  2  0
  7  9  1  0
  9 10  1  0
 10 11  1  0
 11 12  1  0
 12 13  2  3
 13 14  1  0
 13 15  1  0
 10 16  1  0
 16 17  2  0
 17 18  1  0
 18 19  2  0
 18 20  1  0
 20 21  2  0
 21 22  1  0
 21 23  1  0
 23 24  2  0
 24 25  1  0
 25 26  1  0
 25 27  2  0
 27 28  1  0
 28 29  2  0
 28 16  1  0
 27 20  1  0
  1 30  1  0
  1 31  1  0
  1 32  1  0
  2 33  1  0
  2 34  1  0
  3 35  1  0
  3 36  1  0
  4 37  1  0
  4 38  1  0
  5 39  1  0
  5 40  1  0
  6 41  1  0
  6 42  1  0
 10 43  1  1
 11 44  1  0
 11 45  1  0
 12 46  1  0
 14 47  1  0
 14 48  1  0
 14 49  1  0
 15 50  1  0
 15 51  1  0
 15 52  1  0
 17 53  1  0
 22 54  1  0
 23 55  1  0
 24 56  1  0
 26 57  1  0
M  END
$$$$
