
     RDKit          3D

 54 55  0  0  0  0  0  0  0  0999 V2000
    6.9055   -1.3317    2.1917 C   0  0  0  0  0  0  0  0  0  0  0  0
    5.8083   -0.6658    1.3620 C   0  0  0  0  0  0  0  0  0  0  0  0
    4.4594   -1.3688    1.5636 C   0  0  0  0  0  0  0  0  0  0  0  0
    3.3542   -0.7983    0.6583 C   0  0  0  0  0  0  0  0  0  0  0  0
    2.8857    0.5955    1.1022 C   0  0  0  0  0  0  0  0  0  0  0  0
    1.7350    1.0433    0.2569 C   0  0  0  0  0  0  0  0  0  0  0  0
    1.9479    1.7433   -0.7693 O   0  0  0  0  0  0  0  0  0  0  0  0
    0.4430    0.6153    0.5801 O   0  0  0  0  0  0  0  0  0  0  0  0
   -0.7194    0.9122   -0.1994 C   0  0  2  0  0  0  0  0  0  0  0  0
   -1.3125    2.2804    0.2069 C   0  0  0  0  0  0  0  0  0  0  0  0
   -0.5317    3.4324   -0.3750 C   0  0  0  0  0  0  0  0  0  0  0  0
   -0.7329    3.9411   -1.6138 C   0  0  0  0  0  0  0  0  0  0  0  0
   -1.8256    3.4286   -2.5204 C   0  0  0  0  0  0  0  0  0  0  0  0
    0.1494    5.0693   -2.0816 C   0  0  0  0  0  0  0  0  0  0  0  0
   -1.7378   -0.1938    0.0156 C   0  0  0  0  0  0  0  0  0  0  0  0
   -2.1950   -0.4463    1.2494 C   0  0  0  0  0  0  0  0  0  0  0  0
   -3.1912   -1.4966    1.5026 C   0  0  0  0  0  0  0  0  0  0  0  0
   -3.4804   -1.7614    2.6977 O   0  0  0  0  0  0  0  0  0  0  0  0
   -3.7583   -2.2863    0.3719 C   0  0  0  0  0  0  0  0  0  0  0  0
   -4.8381   -3.1934    0.5400 C   0  0  0  0  0  0  0  0  0  0  0  0
   -5.6230   -3.2393    1.6952 O   0  0  0  0  0  0  0  0  0  0  0  0
   -5.1774   -4.0629   -0.4950 C   0  0  0  0  0  0  0  0  0  0  0  0
   -4.4950   -4.0249   -1.7041 C   0  0  0  0  0  0  0  0  0  0  0  0
   -3.4712   -3.1010   -1.9163 C   0  0  0  0  0  0  0  0  0  0  0  0
   -2.7886   -3.1776   -3.1320 O   0  0  0  0  0  0  0  0  0  0  0  0
   -3.1413   -2.1667   -0.8975 C   0  0  0  0  0  0  0  0  0  0  0  0
   -2.2175   -1.0168   -1.1285 C   0  0  0  0  0  0  0  0  0  0  0  0
   -1.8981   -0.6837   -2.3029 O   0  0  0  0  0  0  0  0  0  0  0  0
    7.0255   -2.3960    1.8909 H   0  0  0  0  0  0  0  0  0  0  0  0
    6.6554   -1.2816    3.2745 H   0  0  0  0  0  0  0  0  0  0  0  0
    7.8708   -0.8049    2.0260 H   0  0  0  0  0  0  0  0  0  0  0  0
    5.7329    0.3979    1.6693 H   0  0  0  0  0  0  0  0  0  0  0  0
    6.0961   -0.7046    0.2891 H   0  0  0  0  0  0  0  0  0  0  0  0
    4.1489   -1.2992    2.6287 H   0  0  0  0  0  0  0  0  0  0  0  0
    4.5805   -2.4465    1.3172 H   0  0  0  0  0  0  0  0  0  0  0  0
    3.7134   -0.7608   -0.3959 H   0  0  0  0  0  0  0  0  0  0  0  0
    2.4862   -1.4954    0.6933 H   0  0  0  0  0  0  0  0  0  0  0  0
    3.7139    1.3313    1.0085 H   0  0  0  0  0  0  0  0  0  0  0  0
    2.5622    0.5668    2.1663 H   0  0  0  0  0  0  0  0  0  0  0  0
   -0.4340    0.9399   -1.2739 H   0  0  0  0  0  0  0  0  0  0  0  0
   -2.3802    2.3517   -0.0927 H   0  0  0  0  0  0  0  0  0  0  0  0
   -1.2884    2.3740    1.3143 H   0  0  0  0  0  0  0  0  0  0  0  0
    0.2546    3.8541    0.2442 H   0  0  0  0  0  0  0  0  0  0  0  0
   -2.8151    3.5791   -2.0411 H   0  0  0  0  0  0  0  0  0  0  0  0
   -1.6808    2.3504   -2.7354 H   0  0  0  0  0  0  0  0  0  0  0  0
   -1.8319    3.9692   -3.4876 H   0  0  0  0  0  0  0  0  0  0  0  0
    0.0004    5.9551   -1.4197 H   0  0  0  0  0  0  0  0  0  0  0  0
   -0.0786    5.3667   -3.1328 H   0  0  0  0  0  0  0  0  0  0  0  0
    1.2209    4.7553   -2.0349 H   0  0  0  0  0  0  0  0  0  0  0  0
   -1.8202    0.1227    2.0969 H   0  0  0  0  0  0  0  0  0  0  0  0
   -5.6662   -2.4930    2.3694 H   0  0  0  0  0  0  0  0  0  0  0  0
   -5.9871   -4.7704   -0.3639 H   0  0  0  0  0  0  0  0  0  0  0  0
   -4.7599   -4.7267   -2.4859 H   0  0  0  0  0  0  0  0  0  0  0  0
   -1.8730   -2.7812   -3.2860 H   0  0  0  0  0  0  0  0  0  0  0  0
  1  2  1  0
  2  3  1  0
  3  4  1  0
  4  5  1  0
  5  6  1  0
  6  7  2  0
  6  8  1  0
  8  9  1  0
  9 10  1  0
 10 11  1  0
 11 12  2  3
 12 13  1  0
 12 14  1  0
  9 15  1  0
 15 16  2  0
 16 17  1  0
 17 18  2  0
 17 19  1  0
 19 20  2  0
 20 21  1  0
 20 22  1  0
 22 23  2  0
 23 24  1  0
 24 25  1  0
 24 26  2  0
 26 27  1  0
 27 28  2  0
 27 15  1  0
 26 19  1  0
  1 29  1  0
  1 30  1  0
  1 31  1  0
  2 32  1  0
  2 33  1  0
  3 34  1  0
  3 35  1  0
  4 36  1  0
  4 37  1  0
  5 38  1  0
  5 39  1  0
  9 40  1  6
 10 41  1  0
 10 42  1  0
 11 43  1  0
 13 44  1  0
 13 45  1  0
 13 46  1  0
 14 47  1  0
 14 48  1  0
 14 49  1  0
 16 50  1  0
 21 51  1  0
 22 52  1  0
 23 53  1  0
 25 54  1  0
M  END
$$$$
