
     RDKit          3D

 53 55  0  0  0  0  0  0  0  0999 V2000
   -7.6709    0.4073    0.6366 C   0  0  0  0  0  0  0  0  0  0  0  0
   -6.3435    0.6591   -0.0680 C   0  0  0  0  0  0  0  0  0  0  0  0
   -5.5299   -0.5638   -0.0563 N   0  0  0  0  0  0  0  0  0  0  0  0
   -4.1711   -0.3127   -0.5625 C   0  0  0  0  0  0  0  0  0  0  0  0
   -3.2236    0.1033    0.5836 C   0  0  0  0  0  0  0  0  0  0  0  0
   -3.0346   -1.0317    1.6055 C   0  0  0  0  0  0  0  0  0  0  0  0
   -1.7372   -1.7298    1.2199 C   0  0  0  0  0  0  0  0  0  0  0  0
   -1.0269   -0.7811    0.3823 N   0  0  0  0  0  0  0  0  0  0  0  0
    0.3159   -0.9855   -0.0834 C   0  0  0  0  0  0  0  0  0  0  0  0
    0.6093   -2.0768   -0.8996 C   0  0  0  0  0  0  0  0  0  0  0  0
   -0.3701   -2.9298   -1.2915 F   0  0  0  0  0  0  0  0  0  0  0  0
    1.9117   -2.2996   -1.3221 C   0  0  0  0  0  0  0  0  0  0  0  0
    2.9482   -1.4148   -0.9695 C   0  0  0  0  0  0  0  0  0  0  0  0
    4.2642   -1.6863   -1.3788 C   0  0  0  0  0  0  0  0  0  0  0  0
    4.5120   -2.7190   -2.0625 O   0  0  0  0  0  0  0  0  0  0  0  0
    5.3020   -0.8174   -1.0200 C   0  0  0  0  0  0  0  0  0  0  0  0
    6.7204   -1.0769   -1.3958 C   0  0  0  0  0  0  0  0  0  0  0  0
    7.0449   -2.1230   -2.0202 O   0  0  0  0  0  0  0  0  0  0  0  0
    7.7141   -0.1616   -1.0564 O   0  0  0  0  0  0  0  0  0  0  0  0
    4.9844    0.3403   -0.3028 C   0  0  0  0  0  0  0  0  0  0  0  0
    3.6981    0.6538    0.0653 N   0  0  0  0  0  0  0  0  0  0  0  0
    3.5223    2.0095    0.6645 C   0  0  0  0  0  0  0  0  0  0  0  0
    2.5864    2.9059   -0.1679 C   0  0  0  0  0  0  0  0  0  0  0  0
    3.2134    1.9609    2.1748 C   0  0  0  0  0  0  0  0  0  0  0  0
    2.6697   -0.2509   -0.1920 C   0  0  0  0  0  0  0  0  0  0  0  0
    1.3343   -0.0940    0.2910 C   0  0  0  0  0  0  0  0  0  0  0  0
    0.9970    0.8406    1.2058 F   0  0  0  0  0  0  0  0  0  0  0  0
   -1.8133    0.3954    0.0565 C   0  0  0  0  0  0  0  0  0  0  0  0
   -7.4906    0.0937    1.6869 H   0  0  0  0  0  0  0  0  0  0  0  0
   -8.2758    1.3385    0.6386 H   0  0  0  0  0  0  0  0  0  0  0  0
   -8.2404   -0.3878    0.1101 H   0  0  0  0  0  0  0  0  0  0  0  0
   -6.5428    0.9810   -1.1152 H   0  0  0  0  0  0  0  0  0  0  0  0
   -5.8200    1.4830    0.4635 H   0  0  0  0  0  0  0  0  0  0  0  0
   -5.9871   -1.2526   -0.6997 H   0  0  0  0  0  0  0  0  0  0  0  0
   -4.1787    0.4683   -1.3574 H   0  0  0  0  0  0  0  0  0  0  0  0
   -3.7761   -1.2425   -1.0322 H   0  0  0  0  0  0  0  0  0  0  0  0
   -3.6267    1.0082    1.0884 H   0  0  0  0  0  0  0  0  0  0  0  0
   -2.9226   -0.5904    2.6206 H   0  0  0  0  0  0  0  0  0  0  0  0
   -3.8843   -1.7482    1.6288 H   0  0  0  0  0  0  0  0  0  0  0  0
   -1.9560   -2.6557    0.6472 H   0  0  0  0  0  0  0  0  0  0  0  0
   -1.1372   -1.9751    2.1230 H   0  0  0  0  0  0  0  0  0  0  0  0
    2.1051   -3.1726   -1.9339 H   0  0  0  0  0  0  0  0  0  0  0  0
    8.6821   -0.3272   -1.3056 H   0  0  0  0  0  0  0  0  0  0  0  0
    5.7962    1.0149   -0.0574 H   0  0  0  0  0  0  0  0  0  0  0  0
    4.4829    2.5729    0.6077 H   0  0  0  0  0  0  0  0  0  0  0  0
    2.5587    3.9280    0.2672 H   0  0  0  0  0  0  0  0  0  0  0  0
    1.5489    2.5373   -0.2347 H   0  0  0  0  0  0  0  0  0  0  0  0
    2.9802    2.9852   -1.2036 H   0  0  0  0  0  0  0  0  0  0  0  0
    3.0819    0.9159    2.5269 H   0  0  0  0  0  0  0  0  0  0  0  0
    2.3066    2.5518    2.4251 H   0  0  0  0  0  0  0  0  0  0  0  0
    4.0575    2.3918    2.7560 H   0  0  0  0  0  0  0  0  0  0  0  0
   -1.3924    1.2834    0.5739 H   0  0  0  0  0  0  0  0  0  0  0  0
   -1.7966    0.5769   -1.0405 H   0  0  0  0  0  0  0  0  0  0  0  0
  1  2  1  0
  2  3  1  0
  3  4  1  0
  4  5  1  0
  5  6  1  0
  6  7  1  0
  7  8  1  0
  8  9  1  0
  9 10  2  0
 10 11  1  0
 10 12  1  0
 12 13  2  0
 13 14  1  0
 14 15  2  0
 14 16  1  0
 16 17  1  0
 17 18  2  0
 17 19  1  0
 16 20  2  0
 20 21  1  0
 21 22  1  0
 22 23  1  0
 22 24  1  0
 21 25  1  0
 25 26  2  0
 26 27  1  0
  8 28  1  0
 28  5  1  0
 26  9  1  0
 25 13  1  0
  1 29  1  0
  1 30  1  0
  1 31  1  0
  2 32  1  0
  2 33  1  0
  3 34  1  0
  4 35  1  0
  4 36  1  0
  5 37  1  0
  6 38  1  0
  6 39  1  0
  7 40  1  0
  7 41  1  0
 12 42  1  0
 19 43  1  0
 20 44  1  0
 22 45  1  0
 23 46  1  0
 23 47  1  0
 23 48  1  0
 24 49  1  0
 24 50  1  0
 24 51  1  0
 28 52  1  0
 28 53  1  0
M  END
$$$$
