
     RDKit          3D

 53 54  0  0  0  0  0  0  0  0999 V2000
   -6.9535    0.0928   -0.1075 C   0  0  0  0  0  0  0  0  0  0  0  0
   -6.0820   -0.4167    1.0650 C   0  0  0  0  0  0  0  0  0  0  0  0
   -6.9718   -0.4619    2.3253 C   0  0  0  0  0  0  0  0  0  0  0  0
   -5.5683   -1.8489    0.7825 C   0  0  0  0  0  0  0  0  0  0  0  0
   -4.9636    0.5237    1.3294 N   0  0  0  0  0  0  0  0  0  0  0  0
   -3.9647    0.6604    0.2517 C   0  0  0  0  0  0  0  0  0  0  0  0
   -3.7382    2.1513   -0.0508 C   0  0  0  0  0  0  0  0  0  0  0  0
   -3.3088    2.8420    1.0978 O   0  0  0  0  0  0  0  0  0  0  0  0
   -2.7527    2.3574   -1.2115 C   0  0  0  0  0  0  0  0  0  0  0  0
   -1.4800    1.8041   -0.8869 O   0  0  0  0  0  0  0  0  0  0  0  0
   -0.3888    1.8424   -1.7609 C   0  0  0  0  0  0  0  0  0  0  0  0
   -0.5080    2.3752   -2.8996 O   0  0  0  0  0  0  0  0  0  0  0  0
    0.9048    1.2601   -1.3423 C   0  0  0  0  0  0  0  0  0  0  0  0
    2.0233    1.3053   -2.1935 C   0  0  0  0  0  0  0  0  0  0  0  0
    3.2458    0.7612   -1.7879 C   0  0  0  0  0  0  0  0  0  0  0  0
    3.3696    0.1573   -0.5219 C   0  0  0  0  0  0  0  0  0  0  0  0
    4.5725   -0.4053   -0.0688 O   0  0  0  0  0  0  0  0  0  0  0  0
    5.7905   -0.4095   -0.8076 C   0  0  0  0  0  0  0  0  0  0  0  0
    6.8398   -1.1399   -0.0212 C   0  0  0  0  0  0  0  0  0  0  0  0
    6.9608   -2.5354   -0.1316 C   0  0  0  0  0  0  0  0  0  0  0  0
    7.9103   -3.2223    0.6314 C   0  0  0  0  0  0  0  0  0  0  0  0
    8.7359   -2.5236    1.5172 C   0  0  0  0  0  0  0  0  0  0  0  0
    8.6100   -1.1370    1.6446 C   0  0  0  0  0  0  0  0  0  0  0  0
    7.6612   -0.4460    0.8834 C   0  0  0  0  0  0  0  0  0  0  0  0
    2.2558    0.1103    0.3229 C   0  0  0  0  0  0  0  0  0  0  0  0
    1.0338    0.6559   -0.0795 C   0  0  0  0  0  0  0  0  0  0  0  0
   -7.2281    1.1576    0.0545 H   0  0  0  0  0  0  0  0  0  0  0  0
   -7.8880   -0.5048   -0.1910 H   0  0  0  0  0  0  0  0  0  0  0  0
   -6.4322    0.0132   -1.0824 H   0  0  0  0  0  0  0  0  0  0  0  0
   -7.3479    0.5560    2.5695 H   0  0  0  0  0  0  0  0  0  0  0  0
   -6.3962   -0.8403    3.1985 H   0  0  0  0  0  0  0  0  0  0  0  0
   -7.8457   -1.1334    2.1746 H   0  0  0  0  0  0  0  0  0  0  0  0
   -6.4202   -2.5595    0.7044 H   0  0  0  0  0  0  0  0  0  0  0  0
   -5.0020   -1.9056   -0.1693 H   0  0  0  0  0  0  0  0  0  0  0  0
   -4.9023   -2.1901    1.6043 H   0  0  0  0  0  0  0  0  0  0  0  0
   -4.4606    0.2280    2.2035 H   0  0  0  0  0  0  0  0  0  0  0  0
   -3.0057    0.1873    0.5624 H   0  0  0  0  0  0  0  0  0  0  0  0
   -4.2730    0.1604   -0.6875 H   0  0  0  0  0  0  0  0  0  0  0  0
   -4.7139    2.5855   -0.3625 H   0  0  0  0  0  0  0  0  0  0  0  0
   -2.4518    2.4364    1.3906 H   0  0  0  0  0  0  0  0  0  0  0  0
   -3.1489    1.8697   -2.1298 H   0  0  0  0  0  0  0  0  0  0  0  0
   -2.6450    3.4463   -1.4103 H   0  0  0  0  0  0  0  0  0  0  0  0
    1.9553    1.7633   -3.1731 H   0  0  0  0  0  0  0  0  0  0  0  0
    4.0864    0.8156   -2.4662 H   0  0  0  0  0  0  0  0  0  0  0  0
    5.6368   -0.9133   -1.7873 H   0  0  0  0  0  0  0  0  0  0  0  0
    6.1158    0.6368   -0.9998 H   0  0  0  0  0  0  0  0  0  0  0  0
    6.3200   -3.0905   -0.8064 H   0  0  0  0  0  0  0  0  0  0  0  0
    8.0030   -4.2973    0.5397 H   0  0  0  0  0  0  0  0  0  0  0  0
    9.4693   -3.0574    2.1086 H   0  0  0  0  0  0  0  0  0  0  0  0
    9.2446   -0.5978    2.3366 H   0  0  0  0  0  0  0  0  0  0  0  0
    7.5670    0.6269    0.9996 H   0  0  0  0  0  0  0  0  0  0  0  0
    2.3385   -0.3502    1.2997 H   0  0  0  0  0  0  0  0  0  0  0  0
    0.1912    0.6046    0.5993 H   0  0  0  0  0  0  0  0  0  0  0  0
  1  2  1  0
  2  3  1  0
  2  4  1  0
  2  5  1  0
  5  6  1  0
  6  7  1  0
  7  8  1  0
  7  9  1  0
  9 10  1  0
 10 11  1  0
 11 12  2  0
 11 13  1  0
 13 14  2  0
 14 15  1  0
 15 16  2  0
 16 17  1  0
 17 18  1  0
 18 19  1  0
 19 20  2  0
 20 21  1  0
 21 22  2  0
 22 23  1  0
 23 24  2  0
 16 25  1  0
 25 26  2  0
 26 13  1  0
 24 19  1  0
  1 27  1  0
  1 28  1  0
  1 29  1  0
  3 30  1  0
  3 31  1  0
  3 32  1  0
  4 33  1  0
  4 34  1  0
  4 35  1  0
  5 36  1  0
  6 37  1  0
  6 38  1  0
  7 39  1  0
  8 40  1  0
  9 41  1  0
  9 42  1  0
 14 43  1  0
 15 44  1  0
 18 45  1  0
 18 46  1  0
 20 47  1  0
 21 48  1  0
 22 49  1  0
 23 50  1  0
 24 51  1  0
 25 52  1  0
 26 53  1  0
M  END
$$$$
