
     RDKit          3D

 53 56  0  0  0  0  0  0  0  0999 V2000
   -4.3467   -2.3804    1.1127 C   0  0  0  0  0  0  0  0  0  0  0  0
   -3.9289   -1.2011    0.2356 C   0  0  0  0  0  0  0  0  0  0  0  0
   -3.0928   -1.6435   -0.9765 C   0  0  0  0  0  0  0  0  0  0  0  0
   -1.6780   -2.0254   -0.5819 C   0  0  0  0  0  0  0  0  0  0  0  0
   -1.4198   -3.3939   -0.4194 C   0  0  0  0  0  0  0  0  0  0  0  0
   -0.1548   -3.8188   -0.0364 C   0  0  0  0  0  0  0  0  0  0  0  0
    0.0780   -5.0465    0.1152 O   0  0  0  0  0  0  0  0  0  0  0  0
    0.8113   -2.9397    0.1694 O   0  0  0  0  0  0  0  0  0  0  0  0
    0.6487   -1.6264    0.0340 C   0  0  0  0  0  0  0  0  0  0  0  0
    1.7524   -0.7777    0.2655 C   0  0  0  0  0  0  0  0  0  0  0  0
    1.5709    0.6182    0.2187 C   0  0  0  0  0  0  0  0  0  0  0  0
    0.3343    1.1572   -0.1536 C   0  0  0  0  0  0  0  0  0  0  0  0
   -0.7598    0.3188   -0.4208 C   0  0  0  0  0  0  0  0  0  0  0  0
   -0.6211   -1.0937   -0.3337 C   0  0  0  0  0  0  0  0  0  0  0  0
   -1.9716    0.9187   -0.7868 O   0  0  0  0  0  0  0  0  0  0  0  0
   -2.2763    2.3075   -0.5994 C   0  0  0  0  0  0  0  0  0  0  0  0
   -3.1774    2.7590   -1.7538 C   0  0  0  0  0  0  0  0  0  0  0  0
   -3.0126    2.4796    0.7356 C   0  0  0  0  0  0  0  0  0  0  0  0
   -1.0212    3.1498   -0.5802 C   0  0  0  0  0  0  0  0  0  0  0  0
    0.1704    2.6161   -0.3125 C   0  0  0  0  0  0  0  0  0  0  0  0
    2.6320    1.4802    0.5303 O   0  0  0  0  0  0  0  0  0  0  0  0
    3.8417    1.0142    1.1211 C   0  0  2  0  0  0  0  0  0  0  0  0
    4.9117    2.1047    1.0398 C   0  0  0  0  0  0  0  0  0  0  0  0
    4.2621   -0.3180    0.4629 C   0  0  2  0  0  0  0  0  0  0  0  0
    4.6211   -0.1486   -1.0293 C   0  0  0  0  0  0  0  0  0  0  0  0
    3.1133   -1.3439    0.6656 C   0  0  2  0  0  0  0  0  0  0  0  0
    3.3905   -2.5220   -0.0502 O   0  0  0  0  0  0  0  0  0  0  0  0
   -3.4549   -2.8691    1.5580 H   0  0  0  0  0  0  0  0  0  0  0  0
   -4.9170   -3.1247    0.5174 H   0  0  0  0  0  0  0  0  0  0  0  0
   -4.9945   -2.0163    1.9377 H   0  0  0  0  0  0  0  0  0  0  0  0
   -3.3618   -0.4796    0.8594 H   0  0  0  0  0  0  0  0  0  0  0  0
   -4.8455   -0.6903   -0.1304 H   0  0  0  0  0  0  0  0  0  0  0  0
   -3.0859   -0.8630   -1.7620 H   0  0  0  0  0  0  0  0  0  0  0  0
   -3.6041   -2.4989   -1.4716 H   0  0  0  0  0  0  0  0  0  0  0  0
   -2.2000   -4.1294   -0.5810 H   0  0  0  0  0  0  0  0  0  0  0  0
   -2.6442    2.6432   -2.7219 H   0  0  0  0  0  0  0  0  0  0  0  0
   -4.0978    2.1372   -1.7887 H   0  0  0  0  0  0  0  0  0  0  0  0
   -3.4720    3.8243   -1.6340 H   0  0  0  0  0  0  0  0  0  0  0  0
   -3.2483    3.5502    0.9206 H   0  0  0  0  0  0  0  0  0  0  0  0
   -2.3838    2.1043    1.5716 H   0  0  0  0  0  0  0  0  0  0  0  0
   -3.9643    1.9070    0.7303 H   0  0  0  0  0  0  0  0  0  0  0  0
   -1.1027    4.2261   -0.6781 H   0  0  0  0  0  0  0  0  0  0  0  0
    1.0276    3.2734   -0.2340 H   0  0  0  0  0  0  0  0  0  0  0  0
    3.6497    0.8209    2.2006 H   0  0  0  0  0  0  0  0  0  0  0  0
    4.6175    2.9607    1.6834 H   0  0  0  0  0  0  0  0  0  0  0  0
    5.0177    2.4796    0.0004 H   0  0  0  0  0  0  0  0  0  0  0  0
    5.8891    1.7158    1.3962 H   0  0  0  0  0  0  0  0  0  0  0  0
    5.1651   -0.7028    0.9876 H   0  0  0  0  0  0  0  0  0  0  0  0
    5.5045    0.5119   -1.1457 H   0  0  0  0  0  0  0  0  0  0  0  0
    4.8947   -1.1255   -1.4793 H   0  0  0  0  0  0  0  0  0  0  0  0
    3.7715    0.2799   -1.6015 H   0  0  0  0  0  0  0  0  0  0  0  0
    3.0482   -1.5867    1.7523 H   0  0  0  0  0  0  0  0  0  0  0  0
    4.1137   -2.9929    0.4409 H   0  0  0  0  0  0  0  0  0  0  0  0
  1  2  1  0
  2  3  1  0
  3  4  1  0
  4  5  2  0
  5  6  1  0
  6  7  2  0
  6  8  1  0
  8  9  1  0
  9 10  2  0
 10 11  1  0
 11 12  2  0
 12 13  1  0
 13 14  2  0
 13 15  1  0
 15 16  1  0
 16 17  1  0
 16 18  1  0
 16 19  1  0
 19 20  2  0
 11 21  1  0
 21 22  1  0
 22 23  1  0
 22 24  1  0
 24 25  1  0
 24 26  1  0
 26 27  1  0
 14  4  1  0
 14  9  1  0
 26 10  1  0
 20 12  1  0
  1 28  1  0
  1 29  1  0
  1 30  1  0
  2 31  1  0
  2 32  1  0
  3 33  1  0
  3 34  1  0
  5 35  1  0
 17 36  1  0
 17 37  1  0
 17 38  1  0
 18 39  1  0
 18 40  1  0
 18 41  1  0
 19 42  1  0
 20 43  1  0
 22 44  1  1
 23 45  1  0
 23 46  1  0
 23 47  1  0
 24 48  1  1
 25 49  1  0
 25 50  1  0
 25 51  1  0
 26 52  1  1
 27 53  1  0
M  END
$$$$
