
     RDKit          3D

 33 35  0  0  0  0  0  0  0  0999 V2000
    5.6247   -0.4362   -1.7570 N   0  0  0  0  0  0  0  0  0  0  0  0
    4.3715   -0.3825   -1.0796 C   0  0  0  0  0  0  0  0  0  0  0  0
    3.8868   -1.4881   -0.4599 N   0  0  0  0  0  0  0  0  0  0  0  0
    2.6965   -1.4823    0.1980 C   0  0  0  0  0  0  0  0  0  0  0  0
    2.2671   -2.6984    0.8239 N   0  0  0  0  0  0  0  0  0  0  0  0
    1.9366   -0.2868    0.2392 C   0  0  0  0  0  0  0  0  0  0  0  0
    0.6901   -0.1740    0.8906 C   0  0  0  0  0  0  0  0  0  0  0  0
   -0.0041    1.0442    0.8920 C   0  0  0  0  0  0  0  0  0  0  0  0
   -1.5708    1.1580    1.6861 S   0  0  0  0  0  6  0  0  0  0  0  0
   -1.8796    2.5908    2.0216 O   0  0  0  0  0  0  0  0  0  0  0  0
   -1.5499    0.3727    2.9680 O   0  0  0  0  0  0  0  0  0  0  0  0
   -2.8048    0.5171    0.6083 C   0  0  0  0  0  0  0  0  0  0  0  0
   -3.4728    1.3662   -0.2831 C   0  0  0  0  0  0  0  0  0  0  0  0
   -4.4364    0.8515   -1.1544 C   0  0  0  0  0  0  0  0  0  0  0  0
   -4.7360   -0.5156   -1.1474 C   0  0  0  0  0  0  0  0  0  0  0  0
   -5.9530   -1.1271   -2.2596 Cl  0  0  0  0  0  0  0  0  0  0  0  0
   -4.0612   -1.3729   -0.2612 C   0  0  0  0  0  0  0  0  0  0  0  0
   -4.3994   -3.0981   -0.2262 Cl  0  0  0  0  0  0  0  0  0  0  0  0
   -3.0969   -0.8534    0.6108 C   0  0  0  0  0  0  0  0  0  0  0  0
    0.5328    2.1548    0.2313 C   0  0  0  0  0  0  0  0  0  0  0  0
    1.7641    2.0585   -0.4169 C   0  0  0  0  0  0  0  0  0  0  0  0
    2.4675    0.8500   -0.4167 C   0  0  0  0  0  0  0  0  0  0  0  0
    3.6629    0.7731   -1.0547 N   0  0  0  0  0  0  0  0  0  0  0  0
    6.0034    0.4107   -2.2361 H   0  0  0  0  0  0  0  0  0  0  0  0
    6.1755   -1.3230   -1.7803 H   0  0  0  0  0  0  0  0  0  0  0  0
    1.3802   -2.7936    1.3601 H   0  0  0  0  0  0  0  0  0  0  0  0
    2.8690   -3.5489    0.7541 H   0  0  0  0  0  0  0  0  0  0  0  0
    0.2355   -1.0111    1.3955 H   0  0  0  0  0  0  0  0  0  0  0  0
   -3.2455    2.4244   -0.3075 H   0  0  0  0  0  0  0  0  0  0  0  0
   -4.9483    1.5169   -1.8380 H   0  0  0  0  0  0  0  0  0  0  0  0
   -2.5725   -1.5181    1.2859 H   0  0  0  0  0  0  0  0  0  0  0  0
   -0.0029    3.0952    0.2128 H   0  0  0  0  0  0  0  0  0  0  0  0
    2.1699    2.9257   -0.9235 H   0  0  0  0  0  0  0  0  0  0  0  0
  1  2  1  0
  2  3  2  0
  3  4  1  0
  4  5  1  0
  4  6  2  0
  6  7  1  0
  7  8  2  0
  8  9  1  0
  9 10  2  0
  9 11  2  0
  9 12  1  0
 12 13  2  0
 13 14  1  0
 14 15  2  0
 15 16  1  0
 15 17  1  0
 17 18  1  0
 17 19  2  0
  8 20  1  0
 20 21  2  0
 21 22  1  0
 22 23  2  0
 23  2  1  0
 22  6  1  0
 19 12  1  0
  1 24  1  0
  1 25  1  0
  5 26  1  0
  5 27  1  0
  7 28  1  0
 13 29  1  0
 14 30  1  0
 19 31  1  0
 20 32  1  0
 21 33  1  0
M  END
$$$$
