
     RDKit          3D

 55 57  0  0  0  0  0  0  0  0999 V2000
    0.6878    0.0000    0.0000 Cl  0  0  0  0  0  0  0  0  0  0  0  0
    2.4756    0.9789    0.3914 O   0  0  0  0  0  0  0  0  0  0  0  0
    2.5825    0.0476   -0.4509 C   0  0  0  0  0  0  0  0  0  0  0  0
    3.8406   -0.0803   -1.2799 C   0  0  2  0  0  0  0  0  0  0  0  0
    5.0081   -0.6066   -0.4376 C   0  0  0  0  0  0  0  0  0  0  0  0
    6.0681    0.4771   -0.4873 C   0  0  0  0  0  0  0  0  0  0  0  0
    5.3566    1.6946   -1.0412 C   0  0  0  0  0  0  0  0  0  0  0  0
    4.2505    1.2067   -1.8569 N   0  0  0  0  0  0  0  0  0  0  0  0
    1.5377   -0.9267   -0.5637 N   0  0  0  0  0  0  0  0  0  0  0  0
    1.7733   -2.3415   -0.3258 C   0  0  0  0  0  0  0  0  0  0  0  0
    0.6353   -3.0678   -1.0299 C   0  0  0  0  0  0  0  0  0  0  0  0
   -0.4532   -2.0187   -1.2192 C   0  0  0  0  0  0  0  0  0  0  0  0
    0.2853   -0.6838   -1.2670 C   0  0  0  0  0  0  0  0  0  0  0  0
   -0.6769    0.6771   -0.5040 P   0  0  0  0  0  5  0  0  0  0  0  0
    0.0694    1.9675   -0.7574 O   0  0  0  0  0  0  0  0  0  0  0  0
   -2.2277    0.8206   -1.2515 O   0  0  0  0  0  0  0  0  0  0  0  0
   -3.3300   -0.0285   -1.0683 C   0  0  0  0  0  0  0  0  0  0  0  0
   -3.4904   -0.8638    0.0550 C   0  0  0  0  0  0  0  0  0  0  0  0
   -4.6240   -1.6737    0.1758 C   0  0  0  0  0  0  0  0  0  0  0  0
   -5.6111   -1.6516   -0.8117 C   0  0  0  0  0  0  0  0  0  0  0  0
   -5.4682   -0.8149   -1.9202 C   0  0  0  0  0  0  0  0  0  0  0  0
   -4.3353   -0.0055   -2.0443 C   0  0  0  0  0  0  0  0  0  0  0  0
   -0.7932    0.4395    1.1979 O   0  0  0  0  0  0  0  0  0  0  0  0
   -1.4449    1.3095    2.0843 C   0  0  0  0  0  0  0  0  0  0  0  0
   -1.4278    0.9910    3.4486 C   0  0  0  0  0  0  0  0  0  0  0  0
   -2.0645    1.8176    4.3791 C   0  0  0  0  0  0  0  0  0  0  0  0
   -2.7271    2.9712    3.9522 C   0  0  0  0  0  0  0  0  0  0  0  0
   -2.7530    3.2990    2.5947 C   0  0  0  0  0  0  0  0  0  0  0  0
   -2.1160    2.4752    1.6610 C   0  0  0  0  0  0  0  0  0  0  0  0
   -0.6878    0.0000    0.0000 H   0  0  0  0  0  0  0  0  0  0  0  0
    3.6459   -0.7837   -2.1186 H   0  0  0  0  0  0  0  0  0  0  0  0
    4.7120   -0.8000    0.6182 H   0  0  0  0  0  0  0  0  0  0  0  0
    5.4046   -1.5534   -0.8663 H   0  0  0  0  0  0  0  0  0  0  0  0
    6.8868    0.1749   -1.1780 H   0  0  0  0  0  0  0  0  0  0  0  0
    6.4918    0.6818    0.5205 H   0  0  0  0  0  0  0  0  0  0  0  0
    6.0452    2.3069   -1.6613 H   0  0  0  0  0  0  0  0  0  0  0  0
    4.9692    2.3176   -0.2033 H   0  0  0  0  0  0  0  0  0  0  0  0
    3.4723    1.9081   -1.8548 H   0  0  0  0  0  0  0  0  0  0  0  0
    2.7518   -2.6636   -0.7426 H   0  0  0  0  0  0  0  0  0  0  0  0
    1.7490   -2.5398    0.7672 H   0  0  0  0  0  0  0  0  0  0  0  0
    0.2715   -3.9321   -0.4329 H   0  0  0  0  0  0  0  0  0  0  0  0
    0.9798   -3.4262   -2.0250 H   0  0  0  0  0  0  0  0  0  0  0  0
   -1.1212   -2.0710   -0.3371 H   0  0  0  0  0  0  0  0  0  0  0  0
   -1.0425   -2.1978   -2.1447 H   0  0  0  0  0  0  0  0  0  0  0  0
    0.5065   -0.4197   -2.3243 H   0  0  0  0  0  0  0  0  0  0  0  0
   -2.7637   -0.8937    0.8478 H   0  0  0  0  0  0  0  0  0  0  0  0
   -4.7400   -2.3151    1.0403 H   0  0  0  0  0  0  0  0  0  0  0  0
   -6.4889   -2.2775   -0.7147 H   0  0  0  0  0  0  0  0  0  0  0  0
   -6.2356   -0.7920   -2.6831 H   0  0  0  0  0  0  0  0  0  0  0  0
   -4.2348    0.6410   -2.9070 H   0  0  0  0  0  0  0  0  0  0  0  0
   -0.9174    0.0987    3.7885 H   0  0  0  0  0  0  0  0  0  0  0  0
   -2.0440    1.5637    5.4306 H   0  0  0  0  0  0  0  0  0  0  0  0
   -3.2194    3.6113    4.6730 H   0  0  0  0  0  0  0  0  0  0  0  0
   -3.2649    4.1942    2.2652 H   0  0  0  0  0  0  0  0  0  0  0  0
   -2.1540    2.7575    0.6192 H   0  0  0  0  0  0  0  0  0  0  0  0
  2  3  2  0
  3  4  1  0
  4  5  1  0
  5  6  1  0
  6  7  1  0
  7  8  1  0
  3  9  1  0
  9 10  1  0
 10 11  1  0
 11 12  1  0
 12 13  1  0
 13 14  1  0
 14 15  2  0
 14 16  1  0
 16 17  1  0
 17 18  2  0
 18 19  1  0
 19 20  2  0
 20 21  1  0
 21 22  2  0
 14 23  1  0
 23 24  1  0
 24 25  2  0
 25 26  1  0
 26 27  2  0
 27 28  1  0
 28 29  2  0
  8  4  1  0
 13  9  1  0
 22 17  1  0
 29 24  1  0
  1 30  1  0
  4 31  1  6
  5 32  1  0
  5 33  1  0
  6 34  1  0
  6 35  1  0
  7 36  1  0
  7 37  1  0
  8 38  1  0
 10 39  1  0
 10 40  1  0
 11 41  1  0
 11 42  1  0
 12 43  1  0
 12 44  1  0
 13 45  1  0
 18 46  1  0
 19 47  1  0
 20 48  1  0
 21 49  1  0
 22 50  1  0
 25 51  1  0
 26 52  1  0
 27 53  1  0
 28 54  1  0
 29 55  1  0
M  END
$$$$
