
     RDKit          3D

 62 65  0  0  0  0  0  0  0  0999 V2000
   -6.2439   -1.0646    3.2979 C   0  0  0  0  0  0  0  0  0  0  0  0
   -5.3288   -0.8114    2.1032 C   0  0  0  0  0  0  0  0  0  0  0  0
   -4.6516   -2.1100    1.6402 C   0  0  0  0  0  0  0  0  0  0  0  0
   -3.8437   -1.9274    0.3458 C   0  0  0  0  0  0  0  0  0  0  0  0
   -2.5746   -1.0876    0.5543 C   0  0  0  0  0  0  0  0  0  0  0  0
   -1.7261   -1.0455   -0.7224 C   0  0  0  0  0  0  0  0  0  0  0  0
   -0.4960   -0.2588   -0.4973 N   0  0  0  0  0  0  0  0  0  0  0  0
   -0.7414    1.1968   -0.4640 C   0  0  0  0  0  0  0  0  0  0  0  0
    0.2998    1.8742   -1.3655 C   0  0  1  0  0  0  0  0  0  0  0  0
    0.9107    3.1225   -0.7533 C   0  0  0  0  0  0  0  0  0  0  0  0
    0.8403    4.3561   -1.4547 C   0  0  0  0  0  0  0  0  0  0  0  0
    1.4037    5.5245   -0.9108 C   0  0  0  0  0  0  0  0  0  0  0  0
    2.0311    5.4289    0.3260 C   0  0  0  0  0  0  0  0  0  0  0  0
    2.1092    4.2566    1.0029 C   0  0  0  0  0  0  0  0  0  0  0  0
    1.5651    3.0777    0.5032 C   0  0  0  0  0  0  0  0  0  0  0  0
    2.7853    4.4553    2.1914 O   0  0  0  0  0  0  0  0  0  0  0  0
    3.1579    5.8388    2.2632 C   0  0  0  0  0  0  0  0  0  0  0  0
    2.6528    6.4243    1.0547 O   0  0  0  0  0  0  0  0  0  0  0  0
    1.3291    0.7853   -1.6532 C   0  0  2  0  0  0  0  0  0  0  0  0
    1.9848    0.9488   -2.9998 C   0  0  0  0  0  0  0  0  0  0  0  0
    3.2342    1.0959   -3.0747 O   0  0  0  0  0  0  0  0  0  0  0  0
    1.2187    0.9428   -4.1626 O   0  0  0  0  0  0  0  0  0  0  0  0
    0.5088   -0.4993   -1.5463 C   0  0  1  0  0  0  0  0  0  0  0  0
    1.3807   -1.6870   -1.1940 C   0  0  0  0  0  0  0  0  0  0  0  0
    1.8672   -1.8626    0.1134 C   0  0  0  0  0  0  0  0  0  0  0  0
    2.6856   -2.9520    0.4245 C   0  0  0  0  0  0  0  0  0  0  0  0
    3.0405   -3.8804   -0.5722 C   0  0  0  0  0  0  0  0  0  0  0  0
    3.8569   -4.9905   -0.3103 O   0  0  0  0  0  0  0  0  0  0  0  0
    4.4095   -5.2985    0.9658 C   0  0  0  0  0  0  0  0  0  0  0  0
    2.5676   -3.6956   -1.8761 C   0  0  0  0  0  0  0  0  0  0  0  0
    1.7488   -2.6070   -2.1882 C   0  0  0  0  0  0  0  0  0  0  0  0
   -7.0541   -1.7727    3.0206 H   0  0  0  0  0  0  0  0  0  0  0  0
   -6.7053   -0.1078    3.6222 H   0  0  0  0  0  0  0  0  0  0  0  0
   -5.6630   -1.4850    4.1467 H   0  0  0  0  0  0  0  0  0  0  0  0
   -5.9329   -0.3831    1.2734 H   0  0  0  0  0  0  0  0  0  0  0  0
   -4.5612   -0.0670    2.4033 H   0  0  0  0  0  0  0  0  0  0  0  0
   -3.9898   -2.4991    2.4449 H   0  0  0  0  0  0  0  0  0  0  0  0
   -5.4352   -2.8757    1.4492 H   0  0  0  0  0  0  0  0  0  0  0  0
   -4.4832   -1.4585   -0.4344 H   0  0  0  0  0  0  0  0  0  0  0  0
   -3.5517   -2.9364   -0.0200 H   0  0  0  0  0  0  0  0  0  0  0  0
   -1.9667   -1.5257    1.3765 H   0  0  0  0  0  0  0  0  0  0  0  0
   -2.8577   -0.0524    0.8377 H   0  0  0  0  0  0  0  0  0  0  0  0
   -2.3177   -0.6291   -1.5699 H   0  0  0  0  0  0  0  0  0  0  0  0
   -1.4548   -2.0930   -0.9863 H   0  0  0  0  0  0  0  0  0  0  0  0
   -0.6607    1.5362    0.5903 H   0  0  0  0  0  0  0  0  0  0  0  0
   -1.7631    1.4700   -0.8154 H   0  0  0  0  0  0  0  0  0  0  0  0
   -0.2210    2.1392   -2.3150 H   0  0  0  0  0  0  0  0  0  0  0  0
    0.3519    4.4119   -2.4192 H   0  0  0  0  0  0  0  0  0  0  0  0
    1.3534    6.4676   -1.4390 H   0  0  0  0  0  0  0  0  0  0  0  0
    1.6487    2.1588    1.0696 H   0  0  0  0  0  0  0  0  0  0  0  0
    2.6871    6.3175    3.1477 H   0  0  0  0  0  0  0  0  0  0  0  0
    4.2635    5.9363    2.3017 H   0  0  0  0  0  0  0  0  0  0  0  0
    2.1129    0.7864   -0.8617 H   0  0  0  0  0  0  0  0  0  0  0  0
    1.6524    1.0549   -5.0713 H   0  0  0  0  0  0  0  0  0  0  0  0
   -0.0052   -0.6808   -2.5219 H   0  0  0  0  0  0  0  0  0  0  0  0
    1.6138   -1.1546    0.8927 H   0  0  0  0  0  0  0  0  0  0  0  0
    3.0383   -3.0614    1.4408 H   0  0  0  0  0  0  0  0  0  0  0  0
    5.0713   -4.4730    1.3044 H   0  0  0  0  0  0  0  0  0  0  0  0
    3.5962   -5.4644    1.7041 H   0  0  0  0  0  0  0  0  0  0  0  0
    5.0114   -6.2269    0.8860 H   0  0  0  0  0  0  0  0  0  0  0  0
    2.8385   -4.3995   -2.6529 H   0  0  0  0  0  0  0  0  0  0  0  0
    1.4017   -2.4832   -3.2064 H   0  0  0  0  0  0  0  0  0  0  0  0
  1  2  1  0
  2  3  1  0
  3  4  1  0
  4  5  1  0
  5  6  1  0
  6  7  1  0
  7  8  1  0
  8  9  1  0
  9 10  1  0
 10 11  2  0
 11 12  1  0
 12 13  2  0
 13 14  1  0
 14 15  2  0
 14 16  1  0
 16 17  1  0
 17 18  1  0
  9 19  1  0
 19 20  1  0
 20 21  2  0
 20 22  1  0
 19 23  1  0
 23 24  1  0
 24 25  2  0
 25 26  1  0
 26 27  2  0
 27 28  1  0
 28 29  1  0
 27 30  1  0
 30 31  2  0
 23  7  1  0
 31 24  1  0
 15 10  1  0
 18 13  1  0
  1 32  1  0
  1 33  1  0
  1 34  1  0
  2 35  1  0
  2 36  1  0
  3 37  1  0
  3 38  1  0
  4 39  1  0
  4 40  1  0
  5 41  1  0
  5 42  1  0
  6 43  1  0
  6 44  1  0
  8 45  1  0
  8 46  1  0
  9 47  1  6
 11 48  1  0
 12 49  1  0
 15 50  1  0
 17 51  1  0
 17 52  1  0
 19 53  1  1
 22 54  1  0
 23 55  1  6
 25 56  1  0
 26 57  1  0
 29 58  1  0
 29 59  1  0
 29 60  1  0
 30 61  1  0
 31 62  1  0
M  END
$$$$
