
     RDKit          3D

 65 70  0  0  0  0  0  0  0  0999 V2000
   -4.1197    4.8499    1.2477 C   0  0  0  0  0  0  0  0  0  0  0  0
   -3.4926    3.6019    1.5198 O   0  0  0  0  0  0  0  0  0  0  0  0
   -3.2831    2.6043    0.5579 C   0  0  0  0  0  0  0  0  0  0  0  0
   -3.6552    2.7471   -0.8054 C   0  0  0  0  0  0  0  0  0  0  0  0
   -3.3492    1.7313   -1.7418 C   0  0  0  0  0  0  0  0  0  0  0  0
   -2.7271    0.5429   -1.3151 C   0  0  0  0  0  0  0  0  0  0  0  0
   -2.4536    0.4134    0.0374 C   0  0  0  0  0  0  0  0  0  0  0  0
   -2.6549    1.4163    0.9298 C   0  0  0  0  0  0  0  0  0  0  0  0
   -2.0544    1.1038    2.1390 O   0  0  0  0  0  0  0  0  0  0  0  0
   -1.2218   -0.0596    1.9653 C   0  0  0  0  0  0  0  0  0  0  0  0
    0.2673    0.4106    1.7981 C   0  0  2  0  0  0  0  0  0  0  0  0
    0.3286    1.7632    1.4004 O   0  0  0  0  0  0  0  0  0  0  0  0
    1.1740   -0.5006    0.8903 C   0  0  2  0  0  0  0  0  0  0  0  0
    1.4633   -1.8246    1.6701 C   0  0  0  0  0  0  0  0  0  0  0  0
    1.9734   -2.8196    0.8217 O   0  0  0  0  0  0  0  0  0  0  0  0
    2.5183    0.2621    0.6194 C   0  0  0  0  0  0  0  0  0  0  0  0
    3.6522   -0.5617   -0.0219 C   0  0  0  0  0  0  0  0  0  0  0  0
    4.8096    0.3318   -0.3836 C   0  0  0  0  0  0  0  0  0  0  0  0
    5.7319    0.7273    0.5990 C   0  0  0  0  0  0  0  0  0  0  0  0
    6.7816    1.5917    0.2711 C   0  0  0  0  0  0  0  0  0  0  0  0
    6.9168    2.0680   -1.0356 C   0  0  0  0  0  0  0  0  0  0  0  0
    5.9994    1.6851   -2.0174 C   0  0  0  0  0  0  0  0  0  0  0  0
    4.9442    0.8262   -1.6931 C   0  0  0  0  0  0  0  0  0  0  0  0
    0.4420   -0.7674   -0.4645 C   0  0  0  0  0  0  0  0  0  0  0  0
   -0.8907   -1.4962   -0.2503 C   0  0  0  0  0  0  0  0  0  0  0  0
   -1.6906   -1.7995   -1.5556 C   0  0  0  0  0  0  0  0  0  0  0  0
   -2.2139   -0.5106   -2.2707 C   0  0  0  0  0  0  0  0  0  0  0  0
   -2.8325   -2.7146   -1.2682 N   0  0  0  0  0  0  0  0  0  0  0  0
   -2.4177   -4.1195   -1.1075 C   0  0  0  0  0  0  0  0  0  0  0  0
   -3.7173   -2.2755   -0.1562 C   0  0  0  0  0  0  0  0  0  0  0  0
   -2.9569   -1.7541    1.0894 C   0  0  0  0  0  0  0  0  0  0  0  0
   -1.8358   -0.7570    0.7046 C   0  0  0  0  0  0  0  0  0  0  0  0
   -4.1470    5.4517    2.1799 H   0  0  0  0  0  0  0  0  0  0  0  0
   -3.5421    5.4097    0.4808 H   0  0  0  0  0  0  0  0  0  0  0  0
   -5.1599    4.6836    0.8938 H   0  0  0  0  0  0  0  0  0  0  0  0
   -4.1387    3.6483   -1.1575 H   0  0  0  0  0  0  0  0  0  0  0  0
   -3.5801    1.8775   -2.7892 H   0  0  0  0  0  0  0  0  0  0  0  0
   -1.3024   -0.7170    2.8591 H   0  0  0  0  0  0  0  0  0  0  0  0
    0.7058    0.3922    2.8209 H   0  0  0  0  0  0  0  0  0  0  0  0
   -0.0196    1.8296    0.4757 H   0  0  0  0  0  0  0  0  0  0  0  0
    2.1946   -1.6309    2.4862 H   0  0  0  0  0  0  0  0  0  0  0  0
    0.5354   -2.1989    2.1586 H   0  0  0  0  0  0  0  0  0  0  0  0
    1.9416   -3.6717    1.3376 H   0  0  0  0  0  0  0  0  0  0  0  0
    2.9015    0.6702    1.5821 H   0  0  0  0  0  0  0  0  0  0  0  0
    2.3151    1.1356   -0.0394 H   0  0  0  0  0  0  0  0  0  0  0  0
    4.0147   -1.3307    0.6936 H   0  0  0  0  0  0  0  0  0  0  0  0
    3.2944   -1.0870   -0.9315 H   0  0  0  0  0  0  0  0  0  0  0  0
    5.6333    0.3707    1.6176 H   0  0  0  0  0  0  0  0  0  0  0  0
    7.4876    1.8986    1.0308 H   0  0  0  0  0  0  0  0  0  0  0  0
    7.7308    2.7363   -1.2830 H   0  0  0  0  0  0  0  0  0  0  0  0
    6.0999    2.0586   -3.0284 H   0  0  0  0  0  0  0  0  0  0  0  0
    4.2334    0.5487   -2.4612 H   0  0  0  0  0  0  0  0  0  0  0  0
    1.0702   -1.3975   -1.1267 H   0  0  0  0  0  0  0  0  0  0  0  0
    0.2722    0.1833   -1.0108 H   0  0  0  0  0  0  0  0  0  0  0  0
   -0.6259   -2.4766    0.1929 H   0  0  0  0  0  0  0  0  0  0  0  0
   -1.0006   -2.2943   -2.2759 H   0  0  0  0  0  0  0  0  0  0  0  0
   -1.3806   -0.0633   -2.8528 H   0  0  0  0  0  0  0  0  0  0  0  0
   -3.0136   -0.7806   -2.9924 H   0  0  0  0  0  0  0  0  0  0  0  0
   -1.9127   -4.2886   -0.1336 H   0  0  0  0  0  0  0  0  0  0  0  0
   -3.3093   -4.7810   -1.1586 H   0  0  0  0  0  0  0  0  0  0  0  0
   -1.7422   -4.4299   -1.9323 H   0  0  0  0  0  0  0  0  0  0  0  0
   -4.3897   -1.4775   -0.5339 H   0  0  0  0  0  0  0  0  0  0  0  0
   -4.3957   -3.0990    0.1570 H   0  0  0  0  0  0  0  0  0  0  0  0
   -2.5193   -2.6149    1.6404 H   0  0  0  0  0  0  0  0  0  0  0  0
   -3.6868   -1.2716    1.7764 H   0  0  0  0  0  0  0  0  0  0  0  0
  1  2  1  0
  2  3  1  0
  3  4  2  0
  4  5  1  0
  5  6  2  0
  6  7  1  0
  7  8  2  0
  8  9  1  0
  9 10  1  0
 10 11  1  0
 11 12  1  0
 11 13  1  0
 13 14  1  1
 14 15  1  0
 13 16  1  0
 16 17  1  0
 17 18  1  0
 18 19  2  0
 19 20  1  0
 20 21  2  0
 21 22  1  0
 22 23  2  0
 13 24  1  0
 24 25  1  0
 25 26  1  0
 26 27  1  0
 26 28  1  0
 28 29  1  0
 28 30  1  0
 30 31  1  0
 31 32  1  0
  8  3  1  0
 32 10  1  0
 27  6  1  0
 32  7  1  0
 23 18  1  0
 32 25  1  0
  1 33  1  0
  1 34  1  0
  1 35  1  0
  4 36  1  0
  5 37  1  0
 10 38  1  0
 11 39  1  1
 12 40  1  0
 14 41  1  0
 14 42  1  0
 15 43  1  0
 16 44  1  0
 16 45  1  0
 17 46  1  0
 17 47  1  0
 19 48  1  0
 20 49  1  0
 21 50  1  0
 22 51  1  0
 23 52  1  0
 24 53  1  0
 24 54  1  0
 25 55  1  0
 26 56  1  0
 27 57  1  0
 27 58  1  0
 29 59  1  0
 29 60  1  0
 29 61  1  0
 30 62  1  0
 30 63  1  0
 31 64  1  0
 31 65  1  0
M  END
$$$$
