
     RDKit          3D

 48 49  0  0  0  0  0  0  0  0999 V2000
   -4.0814   -3.4513   -0.9407 C   0  0  0  0  0  0  0  0  0  0  0  0
   -3.1059   -2.7498   -0.0003 C   0  0  0  0  0  0  0  0  0  0  0  0
   -3.3056   -1.2326   -0.0292 C   0  0  0  0  0  0  0  0  0  0  0  0
   -2.3358   -0.5625    0.8896 C   0  0  0  0  0  0  0  0  0  0  0  0
   -2.6831   -0.2813    2.0691 O   0  0  0  0  0  0  0  0  0  0  0  0
   -1.0369   -0.2985    0.4386 O   0  0  0  0  0  0  0  0  0  0  0  0
   -0.0498    0.4040    1.1984 C   0  0  2  0  0  0  0  0  0  0  0  0
   -0.1232    1.9177    0.9252 C   0  0  0  0  0  0  0  0  0  0  0  0
   -1.4338    2.5026    1.3937 C   0  0  0  0  0  0  0  0  0  0  0  0
   -2.4646    2.8277    0.5818 C   0  0  0  0  0  0  0  0  0  0  0  0
   -3.7386    3.3337    1.2073 C   0  0  0  0  0  0  0  0  0  0  0  0
   -2.3769    2.6913   -0.9200 C   0  0  0  0  0  0  0  0  0  0  0  0
    1.3239   -0.1201    0.8244 C   0  0  0  0  0  0  0  0  0  0  0  0
    2.1487   -0.5766    1.7765 C   0  0  0  0  0  0  0  0  0  0  0  0
    3.4737   -1.1185    1.4428 C   0  0  0  0  0  0  0  0  0  0  0  0
    4.0651   -1.8182    2.3059 O   0  0  0  0  0  0  0  0  0  0  0  0
    4.0542   -0.8901    0.0891 C   0  0  0  0  0  0  0  0  0  0  0  0
    5.4125   -1.1738   -0.2209 C   0  0  0  0  0  0  0  0  0  0  0  0
    6.3614   -1.5326    0.7397 O   0  0  0  0  0  0  0  0  0  0  0  0
    5.8573   -1.0681   -1.5383 C   0  0  0  0  0  0  0  0  0  0  0  0
    5.0197   -0.5810   -2.5337 C   0  0  0  0  0  0  0  0  0  0  0  0
    3.7145   -0.1900   -2.2379 C   0  0  0  0  0  0  0  0  0  0  0  0
    2.9903    0.4265   -3.2613 O   0  0  0  0  0  0  0  0  0  0  0  0
    3.1950   -0.3979   -0.9314 C   0  0  0  0  0  0  0  0  0  0  0  0
    1.7602   -0.1601   -0.5948 C   0  0  0  0  0  0  0  0  0  0  0  0
    0.8932   -0.0623   -1.5035 O   0  0  0  0  0  0  0  0  0  0  0  0
   -3.9140   -4.5482   -0.8991 H   0  0  0  0  0  0  0  0  0  0  0  0
   -5.1290   -3.2401   -0.6376 H   0  0  0  0  0  0  0  0  0  0  0  0
   -3.9249   -3.1075   -1.9854 H   0  0  0  0  0  0  0  0  0  0  0  0
   -3.2656   -3.1292    1.0329 H   0  0  0  0  0  0  0  0  0  0  0  0
   -2.0667   -2.9974   -0.3100 H   0  0  0  0  0  0  0  0  0  0  0  0
   -3.1460   -0.8507   -1.0608 H   0  0  0  0  0  0  0  0  0  0  0  0
   -4.3443   -0.9799    0.2777 H   0  0  0  0  0  0  0  0  0  0  0  0
   -0.2282    0.2329    2.2850 H   0  0  0  0  0  0  0  0  0  0  0  0
    0.0619    2.1274   -0.1482 H   0  0  0  0  0  0  0  0  0  0  0  0
    0.6894    2.4234    1.4907 H   0  0  0  0  0  0  0  0  0  0  0  0
   -1.5631    2.6021    2.4688 H   0  0  0  0  0  0  0  0  0  0  0  0
   -3.5303    4.2561    1.7898 H   0  0  0  0  0  0  0  0  0  0  0  0
   -4.1542    2.5602    1.8876 H   0  0  0  0  0  0  0  0  0  0  0  0
   -4.5065    3.5724    0.4425 H   0  0  0  0  0  0  0  0  0  0  0  0
   -3.3370    2.9553   -1.4098 H   0  0  0  0  0  0  0  0  0  0  0  0
   -1.5943    3.3723   -1.3151 H   0  0  0  0  0  0  0  0  0  0  0  0
   -2.1325    1.6450   -1.1970 H   0  0  0  0  0  0  0  0  0  0  0  0
    1.8330   -0.5970    2.8130 H   0  0  0  0  0  0  0  0  0  0  0  0
    6.2523   -1.3715    1.7302 H   0  0  0  0  0  0  0  0  0  0  0  0
    6.8836   -1.3134   -1.7823 H   0  0  0  0  0  0  0  0  0  0  0  0
    5.4068   -0.4533   -3.5370 H   0  0  0  0  0  0  0  0  0  0  0  0
    2.1754    1.0027   -3.1061 H   0  0  0  0  0  0  0  0  0  0  0  0
  1  2  1  0
  2  3  1  0
  3  4  1  0
  4  5  2  0
  4  6  1  0
  6  7  1  0
  7  8  1  0
  8  9  1  0
  9 10  2  3
 10 11  1  0
 10 12  1  0
  7 13  1  0
 13 14  2  0
 14 15  1  0
 15 16  2  0
 15 17  1  0
 17 18  2  0
 18 19  1  0
 18 20  1  0
 20 21  2  0
 21 22  1  0
 22 23  1  0
 22 24  2  0
 24 25  1  0
 25 26  2  0
 25 13  1  0
 24 17  1  0
  1 27  1  0
  1 28  1  0
  1 29  1  0
  2 30  1  0
  2 31  1  0
  3 32  1  0
  3 33  1  0
  7 34  1  1
  8 35  1  0
  8 36  1  0
  9 37  1  0
 11 38  1  0
 11 39  1  0
 11 40  1  0
 12 41  1  0
 12 42  1  0
 12 43  1  0
 14 44  1  0
 19 45  1  0
 20 46  1  0
 21 47  1  0
 23 48  1  0
M  END
$$$$
