
     RDKit          3D

 44 47  0  0  0  0  0  0  0  0999 V2000
   -2.7897   -2.1546   -1.9950 C   0  0  0  0  0  0  0  0  0  0  0  0
   -2.4706   -1.1179   -0.9127 C   0  0  0  0  0  0  0  0  0  0  0  0
   -1.9036    0.1604   -1.5592 C   0  0  0  0  0  0  0  0  0  0  0  0
   -1.3457    1.0940   -0.5182 C   0  0  0  0  0  0  0  0  0  0  0  0
   -2.0092    2.3054   -0.2221 C   0  0  0  0  0  0  0  0  0  0  0  0
   -1.4455    3.1424    0.7343 C   0  0  0  0  0  0  0  0  0  0  0  0
   -0.2970    2.8256    1.3807 C   0  0  0  0  0  0  0  0  0  0  0  0
    0.3880    1.6418    1.1309 C   0  0  0  0  0  0  0  0  0  0  0  0
   -0.1432    0.7551    0.1671 C   0  0  0  0  0  0  0  0  0  0  0  0
    0.5340   -0.5419   -0.0984 C   0  0  0  0  0  0  0  0  0  0  0  0
    2.0045   -0.6045   -0.3044 C   0  0  0  0  0  0  0  0  0  0  0  0
    2.7069    0.4987   -0.8252 C   0  0  0  0  0  0  0  0  0  0  0  0
    4.0887    0.4308   -1.0246 C   0  0  0  0  0  0  0  0  0  0  0  0
    4.7910   -0.7405   -0.7139 C   0  0  0  0  0  0  0  0  0  0  0  0
    6.2047   -0.8083   -0.9185 N   0  0  0  0  0  0  0  0  0  0  0  0
    4.0980   -1.8460   -0.2047 C   0  0  0  0  0  0  0  0  0  0  0  0
    2.7160   -1.7812   -0.0046 C   0  0  0  0  0  0  0  0  0  0  0  0
   -0.1534   -1.6492   -0.1224 N   0  0  0  0  0  0  0  0  0  0  0  0
   -1.5465   -1.7035    0.0828 N   0  0  0  0  0  0  0  0  0  0  0  0
   -2.0261   -2.6051    1.1000 C   0  0  0  0  0  0  0  0  0  0  0  0
   -1.2700   -3.5274    1.5106 O   0  0  0  0  0  0  0  0  0  0  0  0
   -3.3911   -2.4586    1.7149 C   0  0  0  0  0  0  0  0  0  0  0  0
   -3.4830   -3.2263    2.8628 F   0  0  0  0  0  0  0  0  0  0  0  0
   -4.3603   -2.8785    0.8235 F   0  0  0  0  0  0  0  0  0  0  0  0
   -3.6140   -1.1363    2.0530 F   0  0  0  0  0  0  0  0  0  0  0  0
    0.0240    3.8326    2.2702 O   0  0  0  0  0  0  0  0  0  0  0  0
   -0.9864    4.8463    2.1752 C   0  0  0  0  0  0  0  0  0  0  0  0
   -1.9048    4.3653    1.1838 O   0  0  0  0  0  0  0  0  0  0  0  0
   -1.8624   -2.4583   -2.5265 H   0  0  0  0  0  0  0  0  0  0  0  0
   -3.2465   -3.0583   -1.5411 H   0  0  0  0  0  0  0  0  0  0  0  0
   -3.5077   -1.7339   -2.7310 H   0  0  0  0  0  0  0  0  0  0  0  0
   -3.4226   -0.8288   -0.4204 H   0  0  0  0  0  0  0  0  0  0  0  0
   -1.0966   -0.0947   -2.2814 H   0  0  0  0  0  0  0  0  0  0  0  0
   -2.7057    0.6619   -2.1447 H   0  0  0  0  0  0  0  0  0  0  0  0
   -2.9276    2.5866   -0.7213 H   0  0  0  0  0  0  0  0  0  0  0  0
    1.2934    1.4091    1.6770 H   0  0  0  0  0  0  0  0  0  0  0  0
    2.1874    1.4102   -1.0922 H   0  0  0  0  0  0  0  0  0  0  0  0
    4.6113    1.2902   -1.4258 H   0  0  0  0  0  0  0  0  0  0  0  0
    6.7367   -1.6778   -0.6909 H   0  0  0  0  0  0  0  0  0  0  0  0
    6.7298    0.0106   -1.2986 H   0  0  0  0  0  0  0  0  0  0  0  0
    4.6287   -2.7582    0.0377 H   0  0  0  0  0  0  0  0  0  0  0  0
    2.2059   -2.6484    0.3960 H   0  0  0  0  0  0  0  0  0  0  0  0
   -0.5362    5.8064    1.8466 H   0  0  0  0  0  0  0  0  0  0  0  0
   -1.5031    4.9648    3.1506 H   0  0  0  0  0  0  0  0  0  0  0  0
  1  2  1  0
  2  3  1  0
  3  4  1  0
  4  5  2  0
  5  6  1  0
  6  7  2  0
  7  8  1  0
  8  9  2  0
  9 10  1  0
 10 11  1  0
 11 12  2  0
 12 13  1  0
 13 14  2  0
 14 15  1  0
 14 16  1  0
 16 17  2  0
 10 18  2  0
 18 19  1  0
 19 20  1  0
 20 21  2  0
 20 22  1  0
 22 23  1  0
 22 24  1  0
 22 25  1  0
  7 26  1  0
 26 27  1  0
 27 28  1  0
 19  2  1  0
  9  4  1  0
 17 11  1  0
 28  6  1  0
  1 29  1  0
  1 30  1  0
  1 31  1  0
  2 32  1  0
  3 33  1  0
  3 34  1  0
  5 35  1  0
  8 36  1  0
 12 37  1  0
 13 38  1  0
 15 39  1  0
 15 40  1  0
 16 41  1  0
 17 42  1  0
 27 43  1  0
 27 44  1  0
M  END
$$$$
