
     RDKit          3D

 58 58  0  0  0  0  0  0  0  0999 V2000
   -8.6853   -1.1459   -1.1441 C   0  0  0  0  0  0  0  0  0  0  0  0
   -7.7715   -0.1639   -0.3846 C   0  0  0  0  0  0  0  0  0  0  0  0
   -8.3505    0.0393    1.0344 C   0  0  0  0  0  0  0  0  0  0  0  0
   -6.3412   -0.7753   -0.3054 C   0  0  0  0  0  0  0  0  0  0  0  0
   -5.3090    0.1148    0.4137 C   0  0  0  0  0  0  0  0  0  0  0  0
   -3.9105   -0.4946    0.3355 C   0  0  0  0  0  0  0  0  0  0  0  0
   -2.9873    0.3518    1.0158 O   0  0  0  0  0  0  0  0  0  0  0  0
   -1.6145    0.0912    1.1373 C   0  0  0  0  0  0  0  0  0  0  0  0
   -1.0126   -1.0599    0.5932 C   0  0  0  0  0  0  0  0  0  0  0  0
    0.3610   -1.2737    0.7422 C   0  0  0  0  0  0  0  0  0  0  0  0
    1.1484   -0.3475    1.4382 C   0  0  0  0  0  0  0  0  0  0  0  0
    2.8810   -0.6074    1.6068 S   0  0  0  0  0  6  0  0  0  0  0  0
    3.1710   -2.0824    1.6313 O   0  0  0  0  0  0  0  0  0  0  0  0
    3.3600    0.0005    2.8957 O   0  0  0  0  0  0  0  0  0  0  0  0
    3.7191    0.1545    0.2270 C   0  0  0  0  0  0  0  0  0  0  0  0
    5.2322   -0.0621    0.3180 C   0  0  0  0  0  0  0  0  0  0  0  0
    5.9521    0.6123   -0.8660 C   0  0  0  0  0  0  0  0  0  0  0  0
    7.4989    0.3980   -0.9251 C   0  0  0  0  0  0  0  0  0  0  0  0
    7.8395   -1.0912   -1.1348 C   0  0  0  0  0  0  0  0  0  0  0  0
    8.1668    0.9001    0.3745 C   0  0  0  0  0  0  0  0  0  0  0  0
    8.0763    1.1724   -2.1008 C   0  0  0  0  0  0  0  0  0  0  0  0
    7.3435    1.5280   -3.0648 O   0  0  0  0  0  0  0  0  0  0  0  0
    9.4438    1.4336   -2.1595 O   0  0  0  0  0  0  0  0  0  0  0  0
    0.5531    0.8020    1.9728 C   0  0  0  0  0  0  0  0  0  0  0  0
   -0.8202    1.0163    1.8249 C   0  0  0  0  0  0  0  0  0  0  0  0
   -7.7532    1.1483   -1.1482 C   0  0  0  0  0  0  0  0  0  0  0  0
   -7.1523    1.2259   -2.2549 O   0  0  0  0  0  0  0  0  0  0  0  0
   -8.4362    2.2629   -0.6655 O   0  0  0  0  0  0  0  0  0  0  0  0
   -8.7489   -2.1176   -0.6080 H   0  0  0  0  0  0  0  0  0  0  0  0
   -8.2945   -1.3395   -2.1668 H   0  0  0  0  0  0  0  0  0  0  0  0
   -9.7132   -0.7330   -1.2397 H   0  0  0  0  0  0  0  0  0  0  0  0
   -7.8051    0.8369    1.5813 H   0  0  0  0  0  0  0  0  0  0  0  0
   -9.4197    0.3399    0.9834 H   0  0  0  0  0  0  0  0  0  0  0  0
   -8.2851   -0.9012    1.6229 H   0  0  0  0  0  0  0  0  0  0  0  0
   -5.9762   -0.9815   -1.3367 H   0  0  0  0  0  0  0  0  0  0  0  0
   -6.3887   -1.7552    0.2204 H   0  0  0  0  0  0  0  0  0  0  0  0
   -5.5818    0.2228    1.4848 H   0  0  0  0  0  0  0  0  0  0  0  0
   -5.2827    1.1246   -0.0491 H   0  0  0  0  0  0  0  0  0  0  0  0
   -3.9162   -1.4984    0.8143 H   0  0  0  0  0  0  0  0  0  0  0  0
   -3.6064   -0.5925   -0.7298 H   0  0  0  0  0  0  0  0  0  0  0  0
   -1.5954   -1.7930    0.0528 H   0  0  0  0  0  0  0  0  0  0  0  0
    0.8099   -2.1597    0.3117 H   0  0  0  0  0  0  0  0  0  0  0  0
    3.4899    1.2418    0.2298 H   0  0  0  0  0  0  0  0  0  0  0  0
    3.3280   -0.2897   -0.7135 H   0  0  0  0  0  0  0  0  0  0  0  0
    5.5902    0.3712    1.2750 H   0  0  0  0  0  0  0  0  0  0  0  0
    5.4325   -1.1533    0.3169 H   0  0  0  0  0  0  0  0  0  0  0  0
    5.4991    0.2303   -1.8085 H   0  0  0  0  0  0  0  0  0  0  0  0
    5.7426    1.7049   -0.8215 H   0  0  0  0  0  0  0  0  0  0  0  0
    7.3065   -1.4930   -2.0235 H   0  0  0  0  0  0  0  0  0  0  0  0
    7.5620   -1.6993   -0.2490 H   0  0  0  0  0  0  0  0  0  0  0  0
    8.9318   -1.2236   -1.2954 H   0  0  0  0  0  0  0  0  0  0  0  0
    7.8968    1.9609    0.5666 H   0  0  0  0  0  0  0  0  0  0  0  0
    7.8593    0.2892    1.2484 H   0  0  0  0  0  0  0  0  0  0  0  0
    9.2736    0.8255    0.3093 H   0  0  0  0  0  0  0  0  0  0  0  0
    9.8462    1.9254   -2.9484 H   0  0  0  0  0  0  0  0  0  0  0  0
    1.1510    1.5338    2.5009 H   0  0  0  0  0  0  0  0  0  0  0  0
   -1.2699    1.9075    2.2440 H   0  0  0  0  0  0  0  0  0  0  0  0
   -8.4375    3.1354   -1.1800 H   0  0  0  0  0  0  0  0  0  0  0  0
  1  2  1  0
  2  3  1  0
  2  4  1  0
  4  5  1  0
  5  6  1  0
  6  7  1  0
  7  8  1  0
  8  9  2  0
  9 10  1  0
 10 11  2  0
 11 12  1  0
 12 13  2  0
 12 14  2  0
 12 15  1  0
 15 16  1  0
 16 17  1  0
 17 18  1  0
 18 19  1  0
 18 20  1  0
 18 21  1  0
 21 22  2  0
 21 23  1  0
 11 24  1  0
 24 25  2  0
  2 26  1  0
 26 27  2  0
 26 28  1  0
 25  8  1  0
  1 29  1  0
  1 30  1  0
  1 31  1  0
  3 32  1  0
  3 33  1  0
  3 34  1  0
  4 35  1  0
  4 36  1  0
  5 37  1  0
  5 38  1  0
  6 39  1  0
  6 40  1  0
  9 41  1  0
 10 42  1  0
 15 43  1  0
 15 44  1  0
 16 45  1  0
 16 46  1  0
 17 47  1  0
 17 48  1  0
 19 49  1  0
 19 50  1  0
 19 51  1  0
 20 52  1  0
 20 53  1  0
 20 54  1  0
 23 55  1  0
 24 56  1  0
 25 57  1  0
 28 58  1  0
M  END
$$$$
