
     RDKit          3D

 58 62  0  0  0  0  0  0  0  0999 V2000
    3.2372    3.4875    0.7633 C   0  0  0  0  0  0  0  0  0  0  0  0
    3.3796    2.1209    0.2710 N   0  0  0  0  0  0  0  0  0  0  0  0
    2.7245    1.5766   -0.7816 C   0  0  0  0  0  0  0  0  0  0  0  0
    3.1455    0.2659   -0.9800 C   0  0  0  0  0  0  0  0  0  0  0  0
    2.7057   -0.6536   -2.0414 C   0  0  0  0  0  0  0  0  0  0  0  0
    1.4893   -1.1947   -2.1705 C   0  0  0  0  0  0  0  0  0  0  0  0
    0.3357   -0.9763   -1.2817 C   0  0  0  0  0  0  0  0  0  0  0  0
   -0.3327    0.2227   -1.0613 C   0  0  0  0  0  0  0  0  0  0  0  0
   -1.3691    0.0316   -0.2108 N   0  0  0  0  0  0  0  0  0  0  0  0
   -2.3400    1.0499    0.1913 C   0  0  0  0  0  0  0  0  0  0  0  0
   -3.5550    1.0188   -0.7444 C   0  0  0  0  0  0  0  0  0  0  0  0
   -4.5002    2.2151   -0.5408 C   0  0  0  0  0  0  0  0  0  0  0  0
   -5.1710    2.2897    0.8444 C   0  0  0  0  0  0  0  0  0  0  0  0
   -6.1727    1.1548    1.1089 C   0  0  0  0  0  0  0  0  0  0  0  0
   -5.4883   -0.0592    1.5425 N   0  0  0  0  0  0  0  0  0  0  0  0
   -1.3769   -1.2845    0.0897 C   0  0  0  0  0  0  0  0  0  0  0  0
   -2.2698   -1.9778    0.9122 C   0  0  0  0  0  0  0  0  0  0  0  0
   -2.0765   -3.3607    1.0784 C   0  0  0  0  0  0  0  0  0  0  0  0
   -1.0090   -4.0176    0.4295 C   0  0  0  0  0  0  0  0  0  0  0  0
   -0.1268   -3.2988   -0.3959 C   0  0  0  0  0  0  0  0  0  0  0  0
   -0.3462   -1.9292   -0.5493 C   0  0  0  0  0  0  0  0  0  0  0  0
    1.5683   -2.2122   -3.2211 C   0  0  0  0  0  0  0  0  0  0  0  0
    0.6129   -2.9318   -3.6148 O   0  0  0  0  0  0  0  0  0  0  0  0
    2.8811   -2.2898   -3.7535 N   0  0  0  0  0  0  0  0  0  0  0  0
    3.5897   -1.3182   -3.0009 C   0  0  0  0  0  0  0  0  0  0  0  0
    4.8171   -1.0800   -3.1494 O   0  0  0  0  0  0  0  0  0  0  0  0
    4.1082    0.0271   -0.0182 C   0  0  0  0  0  0  0  0  0  0  0  0
    4.8717   -1.1083    0.2546 C   0  0  0  0  0  0  0  0  0  0  0  0
    5.7845   -1.0449    1.3225 C   0  0  0  0  0  0  0  0  0  0  0  0
    5.9118    0.1361    2.0859 C   0  0  0  0  0  0  0  0  0  0  0  0
    5.1255    1.2646    1.7911 C   0  0  0  0  0  0  0  0  0  0  0  0
    4.2239    1.1739    0.7273 C   0  0  0  0  0  0  0  0  0  0  0  0
    3.0382    3.4746    1.8555 H   0  0  0  0  0  0  0  0  0  0  0  0
    4.1712    4.0541    0.5656 H   0  0  0  0  0  0  0  0  0  0  0  0
    2.3912    3.9982    0.2557 H   0  0  0  0  0  0  0  0  0  0  0  0
    2.0128    2.1121   -1.3949 H   0  0  0  0  0  0  0  0  0  0  0  0
   -0.1055    1.1688   -1.5324 H   0  0  0  0  0  0  0  0  0  0  0  0
   -1.8599    2.0524    0.1519 H   0  0  0  0  0  0  0  0  0  0  0  0
   -2.6524    0.8699    1.2409 H   0  0  0  0  0  0  0  0  0  0  0  0
   -4.1047    0.0622   -0.6268 H   0  0  0  0  0  0  0  0  0  0  0  0
   -3.1905    1.0529   -1.7945 H   0  0  0  0  0  0  0  0  0  0  0  0
   -5.2892    2.1819   -1.3235 H   0  0  0  0  0  0  0  0  0  0  0  0
   -3.9272    3.1537   -0.7057 H   0  0  0  0  0  0  0  0  0  0  0  0
   -5.7319    3.2488    0.8860 H   0  0  0  0  0  0  0  0  0  0  0  0
   -4.4113    2.3390    1.6527 H   0  0  0  0  0  0  0  0  0  0  0  0
   -6.8839    1.4766    1.9025 H   0  0  0  0  0  0  0  0  0  0  0  0
   -6.7650    0.9449    0.1913 H   0  0  0  0  0  0  0  0  0  0  0  0
   -5.0991    0.1066    2.4992 H   0  0  0  0  0  0  0  0  0  0  0  0
   -6.2062   -0.8131    1.6396 H   0  0  0  0  0  0  0  0  0  0  0  0
   -3.0856   -1.4760    1.4127 H   0  0  0  0  0  0  0  0  0  0  0  0
   -2.7499   -3.9247    1.7106 H   0  0  0  0  0  0  0  0  0  0  0  0
   -0.8678   -5.0814    0.5688 H   0  0  0  0  0  0  0  0  0  0  0  0
    0.6967   -3.7968   -0.8905 H   0  0  0  0  0  0  0  0  0  0  0  0
    3.2439   -2.9269   -4.4966 H   0  0  0  0  0  0  0  0  0  0  0  0
    4.7663   -2.0121   -0.3313 H   0  0  0  0  0  0  0  0  0  0  0  0
    6.3930   -1.9075    1.5608 H   0  0  0  0  0  0  0  0  0  0  0  0
    6.6186    0.1732    2.9046 H   0  0  0  0  0  0  0  0  0  0  0  0
    5.2203    2.1709    2.3745 H   0  0  0  0  0  0  0  0  0  0  0  0
  1  2  1  0
  2  3  1  0
  3  4  2  0
  4  5  1  0
  5  6  2  0
  6  7  1  0
  7  8  2  0
  8  9  1  0
  9 10  1  0
 10 11  1  0
 11 12  1  0
 12 13  1  0
 13 14  1  0
 14 15  1  0
  9 16  1  0
 16 17  2  0
 17 18  1  0
 18 19  2  0
 19 20  1  0
 20 21  2  0
  6 22  1  0
 22 23  2  0
 22 24  1  0
 24 25  1  0
 25 26  2  0
  4 27  1  0
 27 28  2  0
 28 29  1  0
 29 30  2  0
 30 31  1  0
 31 32  2  0
 32  2  1  0
 25  5  1  0
 32 27  1  0
 21  7  1  0
 21 16  1  0
  1 33  1  0
  1 34  1  0
  1 35  1  0
  3 36  1  0
  8 37  1  0
 10 38  1  0
 10 39  1  0
 11 40  1  0
 11 41  1  0
 12 42  1  0
 12 43  1  0
 13 44  1  0
 13 45  1  0
 14 46  1  0
 14 47  1  0
 15 48  1  0
 15 49  1  0
 17 50  1  0
 18 51  1  0
 19 52  1  0
 20 53  1  0
 24 54  1  0
 28 55  1  0
 29 56  1  0
 30 57  1  0
 31 58  1  0
M  END
$$$$
