
     RDKit          3D

 47 50  0  0  0  0  0  0  0  0999 V2000
   -4.0897   -1.9411   -2.0600 C   0  0  0  0  0  0  0  0  0  0  0  0
   -4.6083   -0.5188   -2.2461 C   0  0  0  0  0  0  0  0  0  0  0  0
   -3.8348    0.4243   -1.4379 N   0  0  0  0  0  0  0  0  0  0  0  0
   -3.8004    0.4154    0.0027 C   0  0  0  0  0  0  0  0  0  0  0  0
   -4.9062   -0.0271    0.7510 C   0  0  0  0  0  0  0  0  0  0  0  0
   -4.8959    0.0625    2.1427 C   0  0  0  0  0  0  0  0  0  0  0  0
   -3.7822    0.5988    2.7844 C   0  0  0  0  0  0  0  0  0  0  0  0
   -2.7112    1.0088    2.0572 N   0  0  0  0  0  0  0  0  0  0  0  0
   -2.6793    0.9248    0.6979 C   0  0  0  0  0  0  0  0  0  0  0  0
   -1.4850    1.3256    0.0048 N   0  0  0  0  0  0  0  0  0  0  0  0
   -0.7906    0.3850   -0.8839 C   0  0  0  0  0  0  0  0  0  0  0  0
    0.7052    0.3713   -0.5603 C   0  0  0  0  0  0  0  0  0  0  0  0
    1.2631    1.7348   -0.5251 N   0  0  0  0  0  0  0  0  0  0  0  0
    2.6785    1.9495   -0.7168 C   0  0  0  0  0  0  0  0  0  0  0  0
    3.0744    3.0108   -1.2720 O   0  0  0  0  0  0  0  0  0  0  0  0
    3.6908    0.9719   -0.2698 C   0  0  0  0  0  0  0  0  0  0  0  0
    3.4191   -0.0956    0.5215 N   0  0  0  0  0  0  0  0  0  0  0  0
    4.5445   -0.8007    0.8014 C   0  0  0  0  0  0  0  0  0  0  0  0
    4.5787   -1.9474    1.5975 C   0  0  0  0  0  0  0  0  0  0  0  0
    5.8169   -2.5759    1.8203 C   0  0  0  0  0  0  0  0  0  0  0  0
    6.9967   -2.0533    1.2529 C   0  0  0  0  0  0  0  0  0  0  0  0
    6.9494   -0.8982    0.4552 C   0  0  0  0  0  0  0  0  0  0  0  0
    5.7102   -0.2976    0.2465 C   0  0  0  0  0  0  0  0  0  0  0  0
    5.3452    1.0825   -0.6340 S   0  0  0  0  0  0  0  0  0  0  0  0
    0.3601    2.8963   -0.5356 C   0  0  0  0  0  0  0  0  0  0  0  0
   -0.8823    2.6263    0.3215 C   0  0  0  0  0  0  0  0  0  0  0  0
   -3.0168   -1.9942   -2.3441 H   0  0  0  0  0  0  0  0  0  0  0  0
   -4.6672   -2.6355   -2.7061 H   0  0  0  0  0  0  0  0  0  0  0  0
   -4.2019   -2.2625   -1.0030 H   0  0  0  0  0  0  0  0  0  0  0  0
   -4.5091   -0.2451   -3.3188 H   0  0  0  0  0  0  0  0  0  0  0  0
   -5.6859   -0.4606   -1.9897 H   0  0  0  0  0  0  0  0  0  0  0  0
   -3.2709    1.1389   -1.9496 H   0  0  0  0  0  0  0  0  0  0  0  0
   -5.7902   -0.4172    0.2673 H   0  0  0  0  0  0  0  0  0  0  0  0
   -5.7508   -0.2679    2.7187 H   0  0  0  0  0  0  0  0  0  0  0  0
   -3.7647    0.6830    3.8626 H   0  0  0  0  0  0  0  0  0  0  0  0
   -0.9325    0.6989   -1.9404 H   0  0  0  0  0  0  0  0  0  0  0  0
   -1.1967   -0.6441   -0.7670 H   0  0  0  0  0  0  0  0  0  0  0  0
    0.8474   -0.1093    0.4309 H   0  0  0  0  0  0  0  0  0  0  0  0
    1.2267   -0.2336   -1.3342 H   0  0  0  0  0  0  0  0  0  0  0  0
    3.6726   -2.3442    2.0374 H   0  0  0  0  0  0  0  0  0  0  0  0
    5.8638   -3.4644    2.4375 H   0  0  0  0  0  0  0  0  0  0  0  0
    7.9454   -2.5420    1.4353 H   0  0  0  0  0  0  0  0  0  0  0  0
    7.8513   -0.4837    0.0222 H   0  0  0  0  0  0  0  0  0  0  0  0
    0.8760    3.7956   -0.1318 H   0  0  0  0  0  0  0  0  0  0  0  0
    0.0534    3.1109   -1.5826 H   0  0  0  0  0  0  0  0  0  0  0  0
   -0.5907    2.6444    1.3941 H   0  0  0  0  0  0  0  0  0  0  0  0
   -1.6261    3.4332    0.1452 H   0  0  0  0  0  0  0  0  0  0  0  0
  1  2  1  0
  2  3  1  0
  3  4  1  0
  4  5  2  0
  5  6  1  0
  6  7  2  0
  7  8  1  0
  8  9  2  0
  9 10  1  0
 10 11  1  0
 11 12  1  0
 12 13  1  0
 13 14  1  0
 14 15  2  0
 14 16  1  0
 16 17  2  0
 17 18  1  0
 18 19  2  0
 19 20  1  0
 20 21  2  0
 21 22  1  0
 22 23  2  0
 23 24  1  0
 13 25  1  0
 25 26  1  0
  9  4  1  0
 26 10  1  0
 24 16  1  0
 23 18  1  0
  1 27  1  0
  1 28  1  0
  1 29  1  0
  2 30  1  0
  2 31  1  0
  3 32  1  0
  5 33  1  0
  6 34  1  0
  7 35  1  0
 11 36  1  0
 11 37  1  0
 12 38  1  0
 12 39  1  0
 19 40  1  0
 20 41  1  0
 21 42  1  0
 22 43  1  0
 25 44  1  0
 25 45  1  0
 26 46  1  0
 26 47  1  0
M  END
$$$$
