
     RDKit          3D

 56 59  0  0  0  0  0  0  0  0999 V2000
   -4.5704    2.8399    1.2454 C   0  0  0  0  0  0  0  0  0  0  0  0
   -4.7197    2.1425   -0.1082 C   0  0  0  0  0  0  0  0  0  0  0  0
   -3.5874    1.1339   -0.3847 C   0  0  0  0  0  0  0  0  0  0  0  0
   -2.1741    1.6881   -0.5723 C   0  0  0  0  0  0  0  0  0  0  0  0
   -1.9786    3.0532   -0.8581 C   0  0  0  0  0  0  0  0  0  0  0  0
   -0.6905    3.5714   -0.9310 C   0  0  0  0  0  0  0  0  0  0  0  0
   -0.5175    4.7982   -1.1544 O   0  0  0  0  0  0  0  0  0  0  0  0
    0.3584    2.7856   -0.7602 O   0  0  0  0  0  0  0  0  0  0  0  0
    0.2611    1.4772   -0.5484 C   0  0  0  0  0  0  0  0  0  0  0  0
    1.4439    0.7268   -0.3949 C   0  0  0  0  0  0  0  0  0  0  0  0
    1.3671   -0.6644   -0.2129 C   0  0  0  0  0  0  0  0  0  0  0  0
    0.1217   -1.3048   -0.2187 C   0  0  0  0  0  0  0  0  0  0  0  0
   -1.0618   -0.5633   -0.3667 C   0  0  0  0  0  0  0  0  0  0  0  0
   -1.0156    0.8516   -0.4902 C   0  0  0  0  0  0  0  0  0  0  0  0
   -2.2688   -1.2694   -0.4480 O   0  0  0  0  0  0  0  0  0  0  0  0
   -2.4404   -2.6086    0.0307 C   0  0  0  0  0  0  0  0  0  0  0  0
   -3.5224   -3.2863   -0.8170 C   0  0  0  0  0  0  0  0  0  0  0  0
   -2.8825   -2.5547    1.4989 C   0  0  0  0  0  0  0  0  0  0  0  0
   -1.1510   -3.3922   -0.0712 C   0  0  0  0  0  0  0  0  0  0  0  0
    0.0315   -2.7776   -0.1316 C   0  0  0  0  0  0  0  0  0  0  0  0
    2.5313   -1.4312   -0.0669 O   0  0  0  0  0  0  0  0  0  0  0  0
    3.8331   -0.8799    0.1374 C   0  0  0  0  0  0  0  0  0  0  0  0
    4.0324   -0.6788    1.6541 C   0  0  0  0  0  0  0  0  0  0  0  0
    4.8469   -1.9282   -0.3567 C   0  0  0  0  0  0  0  0  0  0  0  0
    3.9554    0.4423   -0.6915 C   0  0  2  0  0  0  0  0  0  0  0  0
    5.3182    1.1523   -0.5689 C   0  0  0  0  0  0  0  0  0  0  0  0
    2.7925    1.4236   -0.4004 C   0  0  2  0  0  0  0  0  0  0  0  0
    2.9925    2.0730    0.8303 O   0  0  0  0  0  0  0  0  0  0  0  0
   -5.4291    3.5256    1.4039 H   0  0  0  0  0  0  0  0  0  0  0  0
   -4.5625    2.0902    2.0650 H   0  0  0  0  0  0  0  0  0  0  0  0
   -3.6356    3.4342    1.2921 H   0  0  0  0  0  0  0  0  0  0  0  0
   -4.8132    2.8837   -0.9283 H   0  0  0  0  0  0  0  0  0  0  0  0
   -5.6794    1.5812   -0.0927 H   0  0  0  0  0  0  0  0  0  0  0  0
   -3.8578    0.5609   -1.2976 H   0  0  0  0  0  0  0  0  0  0  0  0
   -3.5898    0.4398    0.4817 H   0  0  0  0  0  0  0  0  0  0  0  0
   -2.8037    3.7338   -1.0030 H   0  0  0  0  0  0  0  0  0  0  0  0
   -3.2033   -3.3285   -1.8807 H   0  0  0  0  0  0  0  0  0  0  0  0
   -4.4709   -2.7098   -0.7620 H   0  0  0  0  0  0  0  0  0  0  0  0
   -3.7143   -4.3218   -0.4611 H   0  0  0  0  0  0  0  0  0  0  0  0
   -2.1079   -2.0491    2.1152 H   0  0  0  0  0  0  0  0  0  0  0  0
   -3.0434   -3.5787    1.9004 H   0  0  0  0  0  0  0  0  0  0  0  0
   -3.8295   -1.9815    1.5953 H   0  0  0  0  0  0  0  0  0  0  0  0
   -1.1770   -4.4727    0.0103 H   0  0  0  0  0  0  0  0  0  0  0  0
    0.9310   -3.3808   -0.1306 H   0  0  0  0  0  0  0  0  0  0  0  0
    3.9493   -1.6553    2.1781 H   0  0  0  0  0  0  0  0  0  0  0  0
    5.0329   -0.2581    1.8827 H   0  0  0  0  0  0  0  0  0  0  0  0
    3.2490   -0.0218    2.0808 H   0  0  0  0  0  0  0  0  0  0  0  0
    5.8874   -1.6406   -0.0978 H   0  0  0  0  0  0  0  0  0  0  0  0
    4.7705   -2.0575   -1.4575 H   0  0  0  0  0  0  0  0  0  0  0  0
    4.6400   -2.9127    0.1159 H   0  0  0  0  0  0  0  0  0  0  0  0
    3.8526    0.1579   -1.7642 H   0  0  0  0  0  0  0  0  0  0  0  0
    6.1418    0.4936   -0.9111 H   0  0  0  0  0  0  0  0  0  0  0  0
    5.3300    2.0546   -1.2170 H   0  0  0  0  0  0  0  0  0  0  0  0
    5.5193    1.4769    0.4722 H   0  0  0  0  0  0  0  0  0  0  0  0
    2.8001    2.1782   -1.2235 H   0  0  0  0  0  0  0  0  0  0  0  0
    2.5078    2.9382    0.7894 H   0  0  0  0  0  0  0  0  0  0  0  0
  1  2  1  0
  2  3  1  0
  3  4  1  0
  4  5  2  0
  5  6  1  0
  6  7  2  0
  6  8  1  0
  8  9  1  0
  9 10  2  0
 10 11  1  0
 11 12  2  0
 12 13  1  0
 13 14  2  0
 13 15  1  0
 15 16  1  0
 16 17  1  0
 16 18  1  0
 16 19  1  0
 19 20  2  0
 11 21  1  0
 21 22  1  0
 22 23  1  0
 22 24  1  0
 22 25  1  0
 25 26  1  0
 25 27  1  0
 27 28  1  0
 14  4  1  0
 14  9  1  0
 27 10  1  0
 20 12  1  0
  1 29  1  0
  1 30  1  0
  1 31  1  0
  2 32  1  0
  2 33  1  0
  3 34  1  0
  3 35  1  0
  5 36  1  0
 17 37  1  0
 17 38  1  0
 17 39  1  0
 18 40  1  0
 18 41  1  0
 18 42  1  0
 19 43  1  0
 20 44  1  0
 23 45  1  0
 23 46  1  0
 23 47  1  0
 24 48  1  0
 24 49  1  0
 24 50  1  0
 25 51  1  6
 26 52  1  0
 26 53  1  0
 26 54  1  0
 27 55  1  6
 28 56  1  0
M  END
$$$$
