
     RDKit          3D

 50 53  0  0  0  0  0  0  0  0999 V2000
    4.4553    0.4018   -2.3352 C   0  0  0  0  0  0  0  0  0  0  0  0
    3.5419   -0.8193   -2.3034 C   0  0  0  0  0  0  0  0  0  0  0  0
    2.8537   -0.9186   -1.0158 N   0  0  0  0  0  0  0  0  0  0  0  0
    3.5210   -1.1345    0.2432 C   0  0  0  0  0  0  0  0  0  0  0  0
    4.7396   -1.8331    0.3115 C   0  0  0  0  0  0  0  0  0  0  0  0
    5.3260   -2.1045    1.5476 C   0  0  0  0  0  0  0  0  0  0  0  0
    4.6900   -1.6830    2.7136 C   0  0  0  0  0  0  0  0  0  0  0  0
    3.5193   -0.9991    2.6395 N   0  0  0  0  0  0  0  0  0  0  0  0
    2.9257   -0.7063    1.4494 C   0  0  0  0  0  0  0  0  0  0  0  0
    1.7149    0.0629    1.4461 N   0  0  0  0  0  0  0  0  0  0  0  0
    0.5613   -0.4195    2.2076 C   0  0  0  0  0  0  0  0  0  0  0  0
   -0.7325    0.0305    1.5253 C   0  0  0  0  0  0  0  0  0  0  0  0
   -0.7148    1.4735    1.2266 N   0  0  0  0  0  0  0  0  0  0  0  0
   -1.9562    2.1855    1.0381 C   0  0  0  0  0  0  0  0  0  0  0  0
   -2.0607    3.3669    1.4696 O   0  0  0  0  0  0  0  0  0  0  0  0
   -3.1093    1.5718    0.3387 C   0  0  0  0  0  0  0  0  0  0  0  0
   -4.4002    2.1118    0.4710 C   0  0  0  0  0  0  0  0  0  0  0  0
   -5.4695    1.5281   -0.2120 C   0  0  0  0  0  0  0  0  0  0  0  0
   -5.2496    0.4135   -1.0292 C   0  0  0  0  0  0  0  0  0  0  0  0
   -6.3005   -0.1985   -1.7288 C   0  0  0  0  0  0  0  0  0  0  0  0
   -6.0456   -1.3103   -2.5386 C   0  0  0  0  0  0  0  0  0  0  0  0
   -4.7457   -1.8143   -2.6536 C   0  0  0  0  0  0  0  0  0  0  0  0
   -3.6928   -1.2095   -1.9596 C   0  0  0  0  0  0  0  0  0  0  0  0
   -3.9388   -0.0972   -1.1467 C   0  0  0  0  0  0  0  0  0  0  0  0
   -2.9183    0.4931   -0.4699 N   0  0  0  0  0  0  0  0  0  0  0  0
    0.5256    2.2442    1.4002 C   0  0  0  0  0  0  0  0  0  0  0  0
    1.7411    1.4380    0.9265 C   0  0  0  0  0  0  0  0  0  0  0  0
    4.9191    0.4940   -3.3397 H   0  0  0  0  0  0  0  0  0  0  0  0
    3.8686    1.3211   -2.1246 H   0  0  0  0  0  0  0  0  0  0  0  0
    5.2630    0.3043   -1.5802 H   0  0  0  0  0  0  0  0  0  0  0  0
    4.1196   -1.7441   -2.5087 H   0  0  0  0  0  0  0  0  0  0  0  0
    2.7868   -0.7150   -3.1126 H   0  0  0  0  0  0  0  0  0  0  0  0
    1.8148   -0.8053   -1.0204 H   0  0  0  0  0  0  0  0  0  0  0  0
    5.2305   -2.1919   -0.5817 H   0  0  0  0  0  0  0  0  0  0  0  0
    6.2599   -2.6488    1.6018 H   0  0  0  0  0  0  0  0  0  0  0  0
    5.1294   -1.8947    3.6792 H   0  0  0  0  0  0  0  0  0  0  0  0
    0.6048   -0.0122    3.2410 H   0  0  0  0  0  0  0  0  0  0  0  0
    0.5721   -1.5303    2.2672 H   0  0  0  0  0  0  0  0  0  0  0  0
   -1.5883   -0.2099    2.1934 H   0  0  0  0  0  0  0  0  0  0  0  0
   -0.8441   -0.5404    0.5796 H   0  0  0  0  0  0  0  0  0  0  0  0
   -4.5822    2.9725    1.1023 H   0  0  0  0  0  0  0  0  0  0  0  0
   -6.4631    1.9459   -0.1017 H   0  0  0  0  0  0  0  0  0  0  0  0
   -7.3123    0.1810   -1.6498 H   0  0  0  0  0  0  0  0  0  0  0  0
   -6.8566   -1.7821   -3.0781 H   0  0  0  0  0  0  0  0  0  0  0  0
   -4.5541   -2.6747   -3.2817 H   0  0  0  0  0  0  0  0  0  0  0  0
   -2.6894   -1.6061   -2.0540 H   0  0  0  0  0  0  0  0  0  0  0  0
    0.4812    3.1900    0.8165 H   0  0  0  0  0  0  0  0  0  0  0  0
    0.6460    2.5038    2.4745 H   0  0  0  0  0  0  0  0  0  0  0  0
    1.7483    1.4165   -0.1832 H   0  0  0  0  0  0  0  0  0  0  0  0
    2.6650    1.9529    1.2692 H   0  0  0  0  0  0  0  0  0  0  0  0
  1  2  1  0
  2  3  1  0
  3  4  1  0
  4  5  2  0
  5  6  1  0
  6  7  2  0
  7  8  1  0
  8  9  2  0
  9 10  1  0
 10 11  1  0
 11 12  1  0
 12 13  1  0
 13 14  1  0
 14 15  2  0
 14 16  1  0
 16 17  2  0
 17 18  1  0
 18 19  2  0
 19 20  1  0
 20 21  2  0
 21 22  1  0
 22 23  2  0
 23 24  1  0
 24 25  2  0
 13 26  1  0
 26 27  1  0
  9  4  1  0
 27 10  1  0
 25 16  1  0
 24 19  1  0
  1 28  1  0
  1 29  1  0
  1 30  1  0
  2 31  1  0
  2 32  1  0
  3 33  1  0
  5 34  1  0
  6 35  1  0
  7 36  1  0
 11 37  1  0
 11 38  1  0
 12 39  1  0
 12 40  1  0
 17 41  1  0
 18 42  1  0
 20 43  1  0
 21 44  1  0
 22 45  1  0
 23 46  1  0
 26 47  1  0
 26 48  1  0
 27 49  1  0
 27 50  1  0
M  END
$$$$
