
     RDKit          3D

 52 53  0  0  0  0  0  0  0  0999 V2000
    4.6172   -0.0364    1.7774 C   0  0  0  0  0  0  0  0  0  0  0  0
    4.7136   -1.2964    0.9219 C   0  0  0  0  0  0  0  0  0  0  0  0
    3.8924   -1.1643   -0.3299 C   0  0  0  0  0  0  0  0  0  0  0  0
    4.2688   -0.3601   -1.3368 C   0  0  0  0  0  0  0  0  0  0  0  0
    3.4210   -0.1959   -2.5650 C   0  0  0  0  0  0  0  0  0  0  0  0
    2.2136    0.6220   -2.2395 C   0  0  0  0  0  0  0  0  0  0  0  0
    2.2280    1.8681   -2.4354 O   0  0  0  0  0  0  0  0  0  0  0  0
    1.1027    0.0002   -1.6588 O   0  0  0  0  0  0  0  0  0  0  0  0
    0.0144    0.7153   -1.0741 C   0  0  2  0  0  0  0  0  0  0  0  0
    0.4505    1.3255    0.2737 C   0  0  0  0  0  0  0  0  0  0  0  0
   -0.6555    2.1377    0.9051 C   0  0  0  0  0  0  0  0  0  0  0  0
   -0.9045    3.4367    0.6249 C   0  0  0  0  0  0  0  0  0  0  0  0
   -0.0222    4.2423   -0.2972 C   0  0  0  0  0  0  0  0  0  0  0  0
   -2.0560    4.1388    1.2967 C   0  0  0  0  0  0  0  0  0  0  0  0
   -1.1577   -0.2317   -0.8856 C   0  0  0  0  0  0  0  0  0  0  0  0
   -2.3570    0.0807   -1.3948 C   0  0  0  0  0  0  0  0  0  0  0  0
   -3.5087   -0.8194   -1.2413 C   0  0  0  0  0  0  0  0  0  0  0  0
   -4.5020   -0.6493   -1.9954 O   0  0  0  0  0  0  0  0  0  0  0  0
   -3.4547   -1.9383   -0.2580 C   0  0  0  0  0  0  0  0  0  0  0  0
   -4.6032   -2.6905    0.1114 C   0  0  0  0  0  0  0  0  0  0  0  0
   -5.9012   -2.3527   -0.2791 O   0  0  0  0  0  0  0  0  0  0  0  0
   -4.4618   -3.8107    0.9300 C   0  0  0  0  0  0  0  0  0  0  0  0
   -3.2291   -4.1357    1.4820 C   0  0  0  0  0  0  0  0  0  0  0  0
   -2.1053   -3.3502    1.2274 C   0  0  0  0  0  0  0  0  0  0  0  0
   -0.9430   -3.6556    1.9401 O   0  0  0  0  0  0  0  0  0  0  0  0
   -2.1916   -2.2756    0.3014 C   0  0  0  0  0  0  0  0  0  0  0  0
   -0.9921   -1.5078   -0.1452 C   0  0  0  0  0  0  0  0  0  0  0  0
    0.1682   -1.9632    0.0358 O   0  0  0  0  0  0  0  0  0  0  0  0
    3.5568    0.1720    2.0365 H   0  0  0  0  0  0  0  0  0  0  0  0
    5.0391    0.8358    1.2340 H   0  0  0  0  0  0  0  0  0  0  0  0
    5.1920   -0.1799    2.7166 H   0  0  0  0  0  0  0  0  0  0  0  0
    4.3336   -2.1581    1.5121 H   0  0  0  0  0  0  0  0  0  0  0  0
    5.7753   -1.4981    0.6612 H   0  0  0  0  0  0  0  0  0  0  0  0
    2.9788   -1.7461   -0.4143 H   0  0  0  0  0  0  0  0  0  0  0  0
    5.1948    0.2036   -1.2640 H   0  0  0  0  0  0  0  0  0  0  0  0
    4.0140    0.3147   -3.3543 H   0  0  0  0  0  0  0  0  0  0  0  0
    3.1140   -1.1904   -2.9559 H   0  0  0  0  0  0  0  0  0  0  0  0
   -0.2741    1.5362   -1.7673 H   0  0  0  0  0  0  0  0  0  0  0  0
    0.7327    0.5102    0.9741 H   0  0  0  0  0  0  0  0  0  0  0  0
    1.3618    1.9450    0.1434 H   0  0  0  0  0  0  0  0  0  0  0  0
   -1.2965    1.6141    1.6099 H   0  0  0  0  0  0  0  0  0  0  0  0
   -0.0197    3.8027   -1.3149 H   0  0  0  0  0  0  0  0  0  0  0  0
   -0.3881    5.2880   -0.3789 H   0  0  0  0  0  0  0  0  0  0  0  0
    1.0145    4.2758    0.0987 H   0  0  0  0  0  0  0  0  0  0  0  0
   -2.6799    4.6466    0.5314 H   0  0  0  0  0  0  0  0  0  0  0  0
   -1.6626    4.8985    2.0041 H   0  0  0  0  0  0  0  0  0  0  0  0
   -2.7069    3.4343    1.8582 H   0  0  0  0  0  0  0  0  0  0  0  0
   -2.4895    0.9909   -1.9682 H   0  0  0  0  0  0  0  0  0  0  0  0
   -6.1712   -1.4397   -0.6142 H   0  0  0  0  0  0  0  0  0  0  0  0
   -5.3305   -4.4033    1.1883 H   0  0  0  0  0  0  0  0  0  0  0  0
   -3.1571   -4.9753    2.1622 H   0  0  0  0  0  0  0  0  0  0  0  0
   -0.1764   -3.0107    2.0691 H   0  0  0  0  0  0  0  0  0  0  0  0
  1  2  1  0
  2  3  1  0
  3  4  2  0
  4  5  1  0
  5  6  1  0
  6  7  2  0
  6  8  1  0
  8  9  1  0
  9 10  1  0
 10 11  1  0
 11 12  2  3
 12 13  1  0
 12 14  1  0
  9 15  1  0
 15 16  2  0
 16 17  1  0
 17 18  2  0
 17 19  1  0
 19 20  2  0
 20 21  1  0
 20 22  1  0
 22 23  2  0
 23 24  1  0
 24 25  1  0
 24 26  2  0
 26 27  1  0
 27 28  2  0
 27 15  1  0
 26 19  1  0
  1 29  1  0
  1 30  1  0
  1 31  1  0
  2 32  1  0
  2 33  1  0
  3 34  1  0
  4 35  1  0
  5 36  1  0
  5 37  1  0
  9 38  1  6
 10 39  1  0
 10 40  1  0
 11 41  1  0
 13 42  1  0
 13 43  1  0
 13 44  1  0
 14 45  1  0
 14 46  1  0
 14 47  1  0
 16 48  1  0
 21 49  1  0
 22 50  1  0
 23 51  1  0
 25 52  1  0
M  END
$$$$
