
     RDKit          3D

 45 48  0  0  0  0  0  0  0  0999 V2000
    1.1412    3.3945   -0.8264 C   0  0  0  0  0  0  0  0  0  0  0  0
    0.7882    2.8339   -2.1421 N   0  0  0  0  0  0  0  0  0  0  0  0
    1.9464    2.1374   -2.7471 C   0  0  0  0  0  0  0  0  0  0  0  0
    2.1321    0.7775   -2.1402 C   0  0  0  0  0  0  0  0  0  0  0  0
    1.0580    0.0058   -1.9621 C   0  0  0  0  0  0  0  0  0  0  0  0
    1.1780   -1.3436   -1.3619 C   0  0  0  0  0  0  0  0  0  0  0  0
    1.9682   -2.3230   -1.9824 C   0  0  0  0  0  0  0  0  0  0  0  0
    2.6426   -2.0324   -3.1691 O   0  0  0  0  0  0  0  0  0  0  0  0
    2.0764   -3.5942   -1.4150 C   0  0  0  0  0  0  0  0  0  0  0  0
    1.4099   -3.9206   -0.2309 C   0  0  0  0  0  0  0  0  0  0  0  0
    1.6591   -5.1927    0.2930 O   0  0  0  0  0  0  0  0  0  0  0  0
    0.5550   -2.9599    0.3828 C   0  0  0  0  0  0  0  0  0  0  0  0
   -0.2516   -3.2160    1.5183 C   0  0  0  0  0  0  0  0  0  0  0  0
   -0.3313   -4.3600    2.0360 O   0  0  0  0  0  0  0  0  0  0  0  0
   -1.0114   -2.1883    2.0762 C   0  0  0  0  0  0  0  0  0  0  0  0
   -0.9938   -0.9192    1.4871 C   0  0  0  0  0  0  0  0  0  0  0  0
   -1.7689    0.2134    2.0470 C   0  0  0  0  0  0  0  0  0  0  0  0
   -1.2916    1.5254    1.8824 C   0  0  0  0  0  0  0  0  0  0  0  0
   -2.0141    2.6125    2.3817 C   0  0  0  0  0  0  0  0  0  0  0  0
   -3.2243    2.4029    3.0486 C   0  0  0  0  0  0  0  0  0  0  0  0
   -4.1310    3.7683    3.6732 Cl  0  0  0  0  0  0  0  0  0  0  0  0
   -3.7131    1.1036    3.2128 C   0  0  0  0  0  0  0  0  0  0  0  0
   -2.9934    0.0134    2.7137 C   0  0  0  0  0  0  0  0  0  0  0  0
   -0.2634   -0.7158    0.3972 O   0  0  0  0  0  0  0  0  0  0  0  0
    0.4762   -1.6580   -0.1829 C   0  0  0  0  0  0  0  0  0  0  0  0
   -0.2710    0.5222   -2.4442 C   0  0  0  0  0  0  0  0  0  0  0  0
   -0.4568    2.0114   -2.0727 C   0  0  0  0  0  0  0  0  0  0  0  0
    1.9983    4.0947   -0.9235 H   0  0  0  0  0  0  0  0  0  0  0  0
    0.2888    3.9790   -0.4174 H   0  0  0  0  0  0  0  0  0  0  0  0
    1.4093    2.5886   -0.1088 H   0  0  0  0  0  0  0  0  0  0  0  0
    1.7660    2.0214   -3.8377 H   0  0  0  0  0  0  0  0  0  0  0  0
    2.8788    2.7337   -2.6375 H   0  0  0  0  0  0  0  0  0  0  0  0
    3.1119    0.4622   -1.8013 H   0  0  0  0  0  0  0  0  0  0  0  0
    3.2181   -2.7226   -3.6372 H   0  0  0  0  0  0  0  0  0  0  0  0
    2.7075   -4.3364   -1.8886 H   0  0  0  0  0  0  0  0  0  0  0  0
    1.4903   -5.4656    1.2491 H   0  0  0  0  0  0  0  0  0  0  0  0
   -1.5951   -2.3815    2.9677 H   0  0  0  0  0  0  0  0  0  0  0  0
   -0.3513    1.7081    1.3795 H   0  0  0  0  0  0  0  0  0  0  0  0
   -1.6312    3.6166    2.2504 H   0  0  0  0  0  0  0  0  0  0  0  0
   -4.6548    0.9372    3.7205 H   0  0  0  0  0  0  0  0  0  0  0  0
   -3.4103   -0.9783    2.8287 H   0  0  0  0  0  0  0  0  0  0  0  0
   -1.1099   -0.0745   -2.0259 H   0  0  0  0  0  0  0  0  0  0  0  0
   -0.3075    0.4129   -3.5500 H   0  0  0  0  0  0  0  0  0  0  0  0
   -1.2032    2.4523   -2.7667 H   0  0  0  0  0  0  0  0  0  0  0  0
   -0.9212    2.0536   -1.0618 H   0  0  0  0  0  0  0  0  0  0  0  0
  1  2  1  0
  2  3  1  0
  3  4  1  0
  4  5  2  0
  5  6  1  0
  6  7  2  0
  7  8  1  0
  7  9  1  0
  9 10  2  0
 10 11  1  0
 10 12  1  0
 12 13  1  0
 13 14  2  0
 13 15  1  0
 15 16  2  0
 16 17  1  0
 17 18  2  0
 18 19  1  0
 19 20  2  0
 20 21  1  0
 20 22  1  0
 22 23  2  0
 16 24  1  0
 24 25  1  0
  5 26  1  0
 26 27  1  0
 27  2  1  0
 25  6  1  0
 25 12  2  0
 23 17  1  0
  1 28  1  0
  1 29  1  0
  1 30  1  0
  3 31  1  0
  3 32  1  0
  4 33  1  0
  8 34  1  0
  9 35  1  0
 11 36  1  0
 15 37  1  0
 18 38  1  0
 19 39  1  0
 22 40  1  0
 23 41  1  0
 26 42  1  0
 26 43  1  0
 27 44  1  0
 27 45  1  0
M  END
$$$$
