
     RDKit          3D

 39 41  0  0  0  0  0  0  0  0999 V2000
   -4.8034   -0.7533   -0.5126 C   0  0  0  0  0  0  0  0  0  0  0  0
   -3.9683    0.4450   -0.5772 N   0  0  0  0  0  0  0  0  0  0  0  0
   -4.5081    1.6413   -1.2210 C   0  0  0  0  0  0  0  0  0  0  0  0
   -2.8799    0.5793    0.3522 C   0  0  0  0  0  0  0  0  0  0  0  0
   -3.0627    1.3441    1.5103 C   0  0  0  0  0  0  0  0  0  0  0  0
   -2.0384    1.4679    2.4439 C   0  0  0  0  0  0  0  0  0  0  0  0
   -0.8130    0.8372    2.2346 C   0  0  0  0  0  0  0  0  0  0  0  0
   -0.5835    0.0722    1.0715 C   0  0  0  0  0  0  0  0  0  0  0  0
    0.6627   -0.5680    0.8268 C   0  0  0  0  0  0  0  0  0  0  0  0
    2.0398   -0.4281    1.9391 S   0  0  0  0  0  6  0  0  0  0  0  0
    1.6901   -1.1083    3.2327 O   0  0  0  0  0  0  0  0  0  0  0  0
    2.3502    1.0174    2.2133 O   0  0  0  0  0  0  0  0  0  0  0  0
    3.4596   -1.1869    1.2866 N   0  0  0  0  0  0  0  0  0  0  0  0
    4.2456   -0.6423    0.2147 C   0  0  0  0  0  0  0  0  0  0  0  0
    3.8210    0.4637   -0.5430 C   0  0  0  0  0  0  0  0  0  0  0  0
    4.6049    0.9240   -1.5531 N   0  0  0  0  0  0  0  0  0  0  0  0
    5.7930    0.3370   -1.8491 C   0  0  0  0  0  0  0  0  0  0  0  0
    6.7754    0.9604   -3.1588 Cl  0  0  0  0  0  0  0  0  0  0  0  0
    6.2168   -0.7648   -1.1050 C   0  0  0  0  0  0  0  0  0  0  0  0
    5.4345   -1.2278   -0.0956 N   0  0  0  0  0  0  0  0  0  0  0  0
    0.8193   -1.3447   -0.3311 C   0  0  0  0  0  0  0  0  0  0  0  0
   -0.2131   -1.4644   -1.2564 C   0  0  0  0  0  0  0  0  0  0  0  0
   -1.4290   -0.8236   -1.0408 C   0  0  0  0  0  0  0  0  0  0  0  0
   -1.6388   -0.0611    0.1222 C   0  0  0  0  0  0  0  0  0  0  0  0
   -5.2144   -0.9856   -1.5178 H   0  0  0  0  0  0  0  0  0  0  0  0
   -5.6413   -0.5866    0.1967 H   0  0  0  0  0  0  0  0  0  0  0  0
   -4.2097   -1.6277   -0.1698 H   0  0  0  0  0  0  0  0  0  0  0  0
   -4.9393    1.3798   -2.2103 H   0  0  0  0  0  0  0  0  0  0  0  0
   -5.3004    2.0869   -0.5833 H   0  0  0  0  0  0  0  0  0  0  0  0
   -3.7034    2.3907   -1.3813 H   0  0  0  0  0  0  0  0  0  0  0  0
   -4.0110    1.8326    1.6957 H   0  0  0  0  0  0  0  0  0  0  0  0
   -2.1971    2.0525    3.3411 H   0  0  0  0  0  0  0  0  0  0  0  0
   -0.0598    0.9542    2.9989 H   0  0  0  0  0  0  0  0  0  0  0  0
    3.7907   -2.0626    1.7494 H   0  0  0  0  0  0  0  0  0  0  0  0
    2.8776    0.9531   -0.3519 H   0  0  0  0  0  0  0  0  0  0  0  0
    7.1578   -1.2511   -1.3252 H   0  0  0  0  0  0  0  0  0  0  0  0
    1.7474   -1.8618   -0.5301 H   0  0  0  0  0  0  0  0  0  0  0  0
   -0.0685   -2.0580   -2.1501 H   0  0  0  0  0  0  0  0  0  0  0  0
   -2.2034   -0.9324   -1.7892 H   0  0  0  0  0  0  0  0  0  0  0  0
  1  2  1  0
  2  3  1  0
  2  4  1  0
  4  5  2  0
  5  6  1  0
  6  7  2  0
  7  8  1  0
  8  9  2  0
  9 10  1  0
 10 11  2  0
 10 12  2  0
 10 13  1  0
 13 14  1  0
 14 15  2  0
 15 16  1  0
 16 17  2  0
 17 18  1  0
 17 19  1  0
 19 20  2  0
  9 21  1  0
 21 22  2  0
 22 23  1  0
 23 24  2  0
 24  4  1  0
 24  8  1  0
 20 14  1  0
  1 25  1  0
  1 26  1  0
  1 27  1  0
  3 28  1  0
  3 29  1  0
  3 30  1  0
  5 31  1  0
  6 32  1  0
  7 33  1  0
 13 34  1  0
 15 35  1  0
 19 36  1  0
 21 37  1  0
 22 38  1  0
 23 39  1  0
M  END
$$$$
