
     RDKit          3D

 50 55  0  0  0  0  0  0  0  0999 V2000
   -4.5587   -0.7229    2.8173 O   0  0  0  0  0  0  0  0  0  0  0  0
   -3.3769   -1.1187    2.1974 C   0  0  0  0  0  0  0  0  0  0  0  0
   -2.8697   -2.4369    2.3327 C   0  0  0  0  0  0  0  0  0  0  0  0
   -1.7182   -2.8487    1.6079 C   0  0  0  0  0  0  0  0  0  0  0  0
   -1.0196   -1.9206    0.8105 C   0  0  0  0  0  0  0  0  0  0  0  0
   -1.4957   -0.6343    0.7940 C   0  0  0  0  0  0  0  0  0  0  0  0
   -2.6738   -0.2364    1.3799 C   0  0  0  0  0  0  0  0  0  0  0  0
   -3.0705    1.0070    0.8554 O   0  0  0  0  0  0  0  0  0  0  0  0
   -2.2963    1.0750   -0.3475 C   0  0  1  0  0  0  0  0  0  0  0  0
   -2.1408    2.2442   -1.3003 C   0  0  2  0  0  0  0  0  0  0  0  0
   -3.4461    2.8386   -1.5771 N   0  0  0  0  0  0  0  0  0  0  0  0
   -3.6996    4.0564   -1.3106 C   0  0  0  0  0  0  0  0  0  0  0  0
   -4.0191    5.5984   -0.9712 S   0  0  0  0  0  0  0  0  0  0  0  0
   -1.5105    1.6518   -2.6343 C   0  0  0  0  0  0  0  0  0  0  0  0
   -0.8217    0.2235   -2.5042 C   0  0  0  0  0  0  0  0  0  0  0  0
   -0.0593    0.1526   -1.1689 C   0  0  0  0  0  0  0  0  0  0  0  0
    0.8555   -1.0167   -0.7254 C   0  0  0  0  0  0  0  0  0  0  0  0
    0.0896   -2.2680   -0.1603 C   0  0  0  0  0  0  0  0  0  0  0  0
    1.8035   -0.4923    0.3127 N   0  0  0  0  0  0  0  0  0  0  0  0
    2.9719    0.2081   -0.2693 C   0  0  0  0  0  0  0  0  0  0  0  0
    4.2171   -0.0783    0.5812 C   0  0  0  0  0  0  0  0  0  0  0  0
    5.5386   -0.1295   -0.1720 C   0  0  0  0  0  0  0  0  0  0  0  0
    4.8850   -1.4169    0.3076 C   0  0  0  0  0  0  0  0  0  0  0  0
    1.1828    0.3032    1.4295 C   0  0  0  0  0  0  0  0  0  0  0  0
   -0.0052    1.2390    1.0163 C   0  0  0  0  0  0  0  0  0  0  0  0
   -0.9341    0.4851    0.0333 C   0  0  0  0  0  0  0  0  0  0  0  0
   -5.0824   -1.3587    3.4077 H   0  0  0  0  0  0  0  0  0  0  0  0
   -3.3965   -3.1565    2.9461 H   0  0  0  0  0  0  0  0  0  0  0  0
   -1.3925   -3.8795    1.6536 H   0  0  0  0  0  0  0  0  0  0  0  0
   -2.8567    0.3524   -1.0056 H   0  0  0  0  0  0  0  0  0  0  0  0
   -1.4488    2.9965   -0.8555 H   0  0  0  0  0  0  0  0  0  0  0  0
   -0.7572    2.3762   -3.0121 H   0  0  0  0  0  0  0  0  0  0  0  0
   -2.2946    1.5735   -3.4181 H   0  0  0  0  0  0  0  0  0  0  0  0
   -0.1146    0.0782   -3.3497 H   0  0  0  0  0  0  0  0  0  0  0  0
   -1.5732   -0.5932   -2.5615 H   0  0  0  0  0  0  0  0  0  0  0  0
    0.6500    0.9968   -1.3382 H   0  0  0  0  0  0  0  0  0  0  0  0
    1.4172   -1.3798   -1.6145 H   0  0  0  0  0  0  0  0  0  0  0  0
    0.8137   -2.9504    0.3330 H   0  0  0  0  0  0  0  0  0  0  0  0
   -0.3657   -2.8173   -1.0117 H   0  0  0  0  0  0  0  0  0  0  0  0
    2.8046    1.3077   -0.2960 H   0  0  0  0  0  0  0  0  0  0  0  0
    3.1524   -0.1009   -1.3227 H   0  0  0  0  0  0  0  0  0  0  0  0
    4.2780    0.2761    1.6319 H   0  0  0  0  0  0  0  0  0  0  0  0
    6.4263    0.1688    0.4257 H   0  0  0  0  0  0  0  0  0  0  0  0
    5.4909    0.0138   -1.2726 H   0  0  0  0  0  0  0  0  0  0  0  0
    5.3785   -1.8728    1.1919 H   0  0  0  0  0  0  0  0  0  0  0  0
    4.4356   -2.0296   -0.5037 H   0  0  0  0  0  0  0  0  0  0  0  0
    0.8240   -0.4097    2.2020 H   0  0  0  0  0  0  0  0  0  0  0  0
    1.9451    0.9201    1.9540 H   0  0  0  0  0  0  0  0  0  0  0  0
   -0.5566    1.5580    1.9285 H   0  0  0  0  0  0  0  0  0  0  0  0
    0.3943    2.1678    0.5533 H   0  0  0  0  0  0  0  0  0  0  0  0
  1  2  1  0
  2  3  2  0
  3  4  1  0
  4  5  2  0
  5  6  1  0
  6  7  2  0
  7  8  1  0
  8  9  1  0
  9 10  1  0
 10 11  1  0
 11 12  2  0
 12 13  2  0
 10 14  1  0
 14 15  1  0
 15 16  1  0
 16 17  1  0
 17 18  1  0
 17 19  1  0
 19 20  1  0
 20 21  1  0
 21 22  1  0
 22 23  1  0
 19 24  1  0
 24 25  1  0
 25 26  1  0
  7  2  1  0
 26  9  1  0
 18  5  1  0
 23 21  1  0
 26  6  1  0
 26 16  1  0
  1 27  1  0
  3 28  1  0
  4 29  1  0
  9 30  1  6
 10 31  1  1
 14 32  1  0
 14 33  1  0
 15 34  1  0
 15 35  1  0
 16 36  1  0
 17 37  1  0
 18 38  1  0
 18 39  1  0
 20 40  1  0
 20 41  1  0
 21 42  1  0
 22 43  1  0
 22 44  1  0
 23 45  1  0
 23 46  1  0
 24 47  1  0
 24 48  1  0
 25 49  1  0
 25 50  1  0
M  END
$$$$
