
     RDKit          3D

 54 58  0  0  0  0  0  0  0  0999 V2000
   -1.9728   -4.2157    0.3828 C   0  0  0  0  0  0  0  0  0  0  0  0
   -1.1856   -3.0108    0.8838 C   0  0  0  0  0  0  0  0  0  0  0  0
   -2.0288   -1.7704    0.8375 C   0  0  0  0  0  0  0  0  0  0  0  0
   -2.8040   -1.3850    1.8888 N   0  0  0  0  0  0  0  0  0  0  0  0
   -3.4138   -0.2769    1.4272 C   0  0  0  0  0  0  0  0  0  0  0  0
   -4.3179    0.5575    2.0845 C   0  0  0  0  0  0  0  0  0  0  0  0
   -4.7242    0.3060    3.5055 C   0  0  0  0  0  0  0  0  0  0  0  0
   -4.7833    1.6833    1.3708 C   0  0  0  0  0  0  0  0  0  0  0  0
   -4.3478    1.9092    0.0395 C   0  0  0  0  0  0  0  0  0  0  0  0
   -4.8362    3.1028   -0.7169 C   0  0  0  0  0  0  0  0  0  0  0  0
   -3.4665    1.0460   -0.5524 N   0  0  0  0  0  0  0  0  0  0  0  0
   -3.0221   -0.0235    0.1526 C   0  0  0  0  0  0  0  0  0  0  0  0
   -2.1525   -0.9595   -0.2515 N   0  0  0  0  0  0  0  0  0  0  0  0
   -1.4516   -1.0260   -1.5366 C   0  0  0  0  0  0  0  0  0  0  0  0
   -0.0646   -0.4530   -1.4103 C   0  0  0  0  0  0  0  0  0  0  0  0
    0.1131    0.9037   -1.0943 C   0  0  0  0  0  0  0  0  0  0  0  0
    1.3982    1.4316   -0.9433 C   0  0  0  0  0  0  0  0  0  0  0  0
    2.5233    0.6091   -1.1022 C   0  0  0  0  0  0  0  0  0  0  0  0
    3.8829    1.1635   -0.9259 C   0  0  0  0  0  0  0  0  0  0  0  0
    4.2996    2.1842   -1.7979 C   0  0  0  0  0  0  0  0  0  0  0  0
    5.5994    2.6867   -1.7346 C   0  0  0  0  0  0  0  0  0  0  0  0
    6.5004    2.1761   -0.8025 C   0  0  0  0  0  0  0  0  0  0  0  0
    6.1005    1.1732    0.0827 C   0  0  0  0  0  0  0  0  0  0  0  0
    4.7892    0.6630    0.0485 C   0  0  0  0  0  0  0  0  0  0  0  0
    4.3972   -0.3473    1.0636 C   0  0  0  0  0  0  0  0  0  0  0  0
    5.2729   -1.1188    1.7407 N   0  0  0  0  0  0  0  0  0  0  0  0
    4.5295   -1.8458    2.5586 N   0  0  0  0  0  0  0  0  0  0  0  0
    3.2595   -1.5233    2.3897 N   0  0  0  0  0  0  0  0  0  0  0  0
    3.1334   -0.5854    1.4681 N   0  0  0  0  0  0  0  0  0  0  0  0
    2.3485   -0.7385   -1.4531 C   0  0  0  0  0  0  0  0  0  0  0  0
    1.0638   -1.2664   -1.6038 C   0  0  0  0  0  0  0  0  0  0  0  0
   -2.2960   -4.0598   -0.6682 H   0  0  0  0  0  0  0  0  0  0  0  0
   -2.8682   -4.3816    1.0193 H   0  0  0  0  0  0  0  0  0  0  0  0
   -1.3325   -5.1219    0.4263 H   0  0  0  0  0  0  0  0  0  0  0  0
   -0.2711   -2.8812    0.2718 H   0  0  0  0  0  0  0  0  0  0  0  0
   -0.8636   -3.1962    1.9310 H   0  0  0  0  0  0  0  0  0  0  0  0
   -4.9426   -0.7729    3.6549 H   0  0  0  0  0  0  0  0  0  0  0  0
   -5.6353    0.8850    3.7668 H   0  0  0  0  0  0  0  0  0  0  0  0
   -3.8992    0.6076    4.1844 H   0  0  0  0  0  0  0  0  0  0  0  0
   -5.4713    2.3775    1.8385 H   0  0  0  0  0  0  0  0  0  0  0  0
   -4.5104    4.0308   -0.2016 H   0  0  0  0  0  0  0  0  0  0  0  0
   -4.4265    3.1049   -1.7490 H   0  0  0  0  0  0  0  0  0  0  0  0
   -5.9450    3.0843   -0.7732 H   0  0  0  0  0  0  0  0  0  0  0  0
   -2.0124   -0.4521   -2.3059 H   0  0  0  0  0  0  0  0  0  0  0  0
   -1.4197   -2.0795   -1.8876 H   0  0  0  0  0  0  0  0  0  0  0  0
   -0.7426    1.5523   -0.9577 H   0  0  0  0  0  0  0  0  0  0  0  0
    1.5162    2.4777   -0.6872 H   0  0  0  0  0  0  0  0  0  0  0  0
    3.6210    2.5762   -2.5461 H   0  0  0  0  0  0  0  0  0  0  0  0
    5.9116    3.4668   -2.4172 H   0  0  0  0  0  0  0  0  0  0  0  0
    7.5098    2.5644   -0.7589 H   0  0  0  0  0  0  0  0  0  0  0  0
    6.8149    0.8111    0.8118 H   0  0  0  0  0  0  0  0  0  0  0  0
    2.4641   -1.9494    2.9137 H   0  0  0  0  0  0  0  0  0  0  0  0
    3.2078   -1.3816   -1.5998 H   0  0  0  0  0  0  0  0  0  0  0  0
    0.9514   -2.3116   -1.8641 H   0  0  0  0  0  0  0  0  0  0  0  0
  1  2  1  0
  2  3  1  0
  3  4  2  0
  4  5  1  0
  5  6  2  0
  6  7  1  0
  6  8  1  0
  8  9  2  0
  9 10  1  0
  9 11  1  0
 11 12  2  0
 12 13  1  0
 13 14  1  0
 14 15  1  0
 15 16  2  0
 16 17  1  0
 17 18  2  0
 18 19  1  0
 19 20  2  0
 20 21  1  0
 21 22  2  0
 22 23  1  0
 23 24  2  0
 24 25  1  0
 25 26  1  0
 26 27  2  0
 27 28  1  0
 28 29  1  0
 18 30  1  0
 30 31  2  0
 13  3  1  0
 31 15  1  0
 12  5  1  0
 24 19  1  0
 29 25  2  0
  1 32  1  0
  1 33  1  0
  1 34  1  0
  2 35  1  0
  2 36  1  0
  7 37  1  0
  7 38  1  0
  7 39  1  0
  8 40  1  0
 10 41  1  0
 10 42  1  0
 10 43  1  0
 14 44  1  0
 14 45  1  0
 16 46  1  0
 17 47  1  0
 20 48  1  0
 21 49  1  0
 22 50  1  0
 23 51  1  0
 28 52  1  0
 30 53  1  0
 31 54  1  0
M  END
$$$$
