
     RDKit          3D

 39 41  0  0  0  0  0  0  0  0999 V2000
   -5.7818    1.6119   -0.8546 C   0  0  0  0  0  0  0  0  0  0  0  0
   -4.8391    0.4612   -0.6627 C   0  0  0  0  0  0  0  0  0  0  0  0
   -5.1816   -0.5993    0.1910 C   0  0  0  0  0  0  0  0  0  0  0  0
   -4.2864   -1.6530    0.3989 C   0  0  0  0  0  0  0  0  0  0  0  0
   -3.0357   -1.6473   -0.2296 C   0  0  0  0  0  0  0  0  0  0  0  0
   -1.8865   -2.9964    0.0484 S   0  0  0  0  0  0  0  0  0  0  0  0
   -1.1523   -2.2039    1.4845 C   0  0  0  0  0  0  0  0  0  0  0  0
   -1.7167   -2.3951    2.7593 C   0  0  0  0  0  0  0  0  0  0  0  0
   -1.1767   -1.7850    3.8568 N   0  0  0  0  0  0  0  0  0  0  0  0
   -0.0811   -0.9797    3.7675 C   0  0  0  0  0  0  0  0  0  0  0  0
    0.4979   -0.7836    2.5193 C   0  0  0  0  0  0  0  0  0  0  0  0
    1.8431    0.1392    2.1247 S   0  0  0  0  0  0  0  0  0  0  0  0
    1.7813   -0.2301    0.4732 C   0  0  0  0  0  0  0  0  0  0  0  0
    2.7151    0.2614   -0.5446 C   0  0  0  0  0  0  0  0  0  0  0  0
    3.6886    1.0470   -0.2172 N   0  0  0  0  0  0  0  0  0  0  0  0
    4.5658    1.5086   -1.1718 O   0  0  0  0  0  0  0  0  0  0  0  0
    5.6338    2.3679   -0.8082 C   0  0  0  0  0  0  0  0  0  0  0  0
    6.4310    2.7098   -2.0249 C   0  0  0  0  0  0  0  0  0  0  0  0
    7.3682    1.7747   -2.5578 N   0  0  0  0  0  0  0  0  0  0  0  0
    6.2481    3.8126   -2.6059 O   0  0  0  0  0  0  0  0  0  0  0  0
    0.7055   -1.0805    0.2219 C   0  0  0  0  0  0  0  0  0  0  0  0
   -0.0182   -1.3857    1.3834 C   0  0  0  0  0  0  0  0  0  0  0  0
   -2.6863   -0.5869   -1.0742 C   0  0  0  0  0  0  0  0  0  0  0  0
   -3.5800    0.4677   -1.2832 C   0  0  0  0  0  0  0  0  0  0  0  0
   -6.8362    1.2753   -0.7589 H   0  0  0  0  0  0  0  0  0  0  0  0
   -5.5782    2.3876   -0.0872 H   0  0  0  0  0  0  0  0  0  0  0  0
   -5.6544    2.0581   -1.8639 H   0  0  0  0  0  0  0  0  0  0  0  0
   -6.1403   -0.6107    0.6946 H   0  0  0  0  0  0  0  0  0  0  0  0
   -4.5625   -2.4684    1.0554 H   0  0  0  0  0  0  0  0  0  0  0  0
   -2.5893   -3.0237    2.8771 H   0  0  0  0  0  0  0  0  0  0  0  0
    0.3263   -0.5088    4.6520 H   0  0  0  0  0  0  0  0  0  0  0  0
    2.5849   -0.0384   -1.5777 H   0  0  0  0  0  0  0  0  0  0  0  0
    5.2259    3.2933   -0.3465 H   0  0  0  0  0  0  0  0  0  0  0  0
    6.2857    1.8591   -0.0662 H   0  0  0  0  0  0  0  0  0  0  0  0
    7.5130    0.8473   -2.1001 H   0  0  0  0  0  0  0  0  0  0  0  0
    7.9161    2.0078   -3.4156 H   0  0  0  0  0  0  0  0  0  0  0  0
    0.4669   -1.4628   -0.7619 H   0  0  0  0  0  0  0  0  0  0  0  0
   -1.7228   -0.5748   -1.5663 H   0  0  0  0  0  0  0  0  0  0  0  0
   -3.2911    1.2877   -1.9291 H   0  0  0  0  0  0  0  0  0  0  0  0
  1  2  1  0
  2  3  2  0
  3  4  1  0
  4  5  2  0
  5  6  1  0
  6  7  1  0
  7  8  2  0
  8  9  1  0
  9 10  2  0
 10 11  1  0
 11 12  1  0
 12 13  1  0
 13 14  1  0
 14 15  2  0
 15 16  1  0
 16 17  1  0
 17 18  1  0
 18 19  1  0
 18 20  2  0
 13 21  2  0
 21 22  1  0
  5 23  1  0
 23 24  2  0
 24  2  1  0
 22  7  1  0
 22 11  2  0
  1 25  1  0
  1 26  1  0
  1 27  1  0
  3 28  1  0
  4 29  1  0
  8 30  1  0
 10 31  1  0
 14 32  1  0
 17 33  1  0
 17 34  1  0
 19 35  1  0
 19 36  1  0
 21 37  1  0
 23 38  1  0
 24 39  1  0
M  END
$$$$
