
     RDKit          3D

 51 54  0  0  0  0  0  0  0  0999 V2000
   -6.0820    0.5874   -1.9428 C   0  0  0  0  0  0  0  0  0  0  0  0
   -4.7362    0.4424   -1.2327 C   0  0  0  0  0  0  0  0  0  0  0  0
   -3.7521   -0.3812   -2.0801 C   0  0  0  0  0  0  0  0  0  0  0  0
   -2.3695   -0.4942   -1.4193 C   0  0  0  0  0  0  0  0  0  0  0  0
   -2.4217   -1.3012   -0.1503 C   0  0  0  0  0  0  0  0  0  0  0  0
   -2.8493   -2.5925   -0.1377 N   0  0  0  0  0  0  0  0  0  0  0  0
   -2.7113   -2.9411    1.1533 C   0  0  0  0  0  0  0  0  0  0  0  0
   -2.9824   -4.1662    1.7441 C   0  0  0  0  0  0  0  0  0  0  0  0
   -2.7263   -4.2933    3.0809 N   0  0  0  0  0  0  0  0  0  0  0  0
   -2.2299   -3.2769    3.8047 N   0  0  0  0  0  0  0  0  0  0  0  0
   -1.9565   -2.0627    3.2429 C   0  0  0  0  0  0  0  0  0  0  0  0
   -2.2158   -1.9111    1.8823 C   0  0  0  0  0  0  0  0  0  0  0  0
   -2.0255   -0.8516    1.0761 N   0  0  0  0  0  0  0  0  0  0  0  0
   -1.4358    0.4470    1.4224 C   0  0  0  0  0  0  0  0  0  0  0  0
   -0.0002    0.5122    0.9675 C   0  0  0  0  0  0  0  0  0  0  0  0
    0.4246    1.5159    0.0823 C   0  0  0  0  0  0  0  0  0  0  0  0
    1.7573    1.5707   -0.3374 C   0  0  0  0  0  0  0  0  0  0  0  0
    2.6885    0.6328    0.1354 C   0  0  0  0  0  0  0  0  0  0  0  0
    4.0969    0.6744   -0.3205 C   0  0  0  0  0  0  0  0  0  0  0  0
    4.6060   -0.4517   -0.9913 C   0  0  0  0  0  0  0  0  0  0  0  0
    5.9012   -0.4486   -1.5077 C   0  0  0  0  0  0  0  0  0  0  0  0
    6.7052    0.6799   -1.3665 C   0  0  0  0  0  0  0  0  0  0  0  0
    6.2233    1.8038   -0.6926 C   0  0  0  0  0  0  0  0  0  0  0  0
    4.9262    1.8166   -0.1466 C   0  0  0  0  0  0  0  0  0  0  0  0
    4.5048    3.0055    0.6345 C   0  0  0  0  0  0  0  0  0  0  0  0
    3.6364    2.9078    1.5418 O   0  0  0  0  0  0  0  0  0  0  0  0
    5.1020    4.2402    0.3975 O   0  0  0  0  0  0  0  0  0  0  0  0
    2.2632   -0.3730    1.0154 C   0  0  0  0  0  0  0  0  0  0  0  0
    0.9321   -0.4266    1.4365 C   0  0  0  0  0  0  0  0  0  0  0  0
   -6.4941   -0.4161   -2.1983 H   0  0  0  0  0  0  0  0  0  0  0  0
   -5.9581    1.1788   -2.8768 H   0  0  0  0  0  0  0  0  0  0  0  0
   -6.8061    1.1139   -1.2808 H   0  0  0  0  0  0  0  0  0  0  0  0
   -4.3170    1.4554   -1.0413 H   0  0  0  0  0  0  0  0  0  0  0  0
   -4.9020   -0.0579   -0.2545 H   0  0  0  0  0  0  0  0  0  0  0  0
   -3.6273    0.1055   -3.0712 H   0  0  0  0  0  0  0  0  0  0  0  0
   -4.1681   -1.3981   -2.2583 H   0  0  0  0  0  0  0  0  0  0  0  0
   -1.6760   -1.0057   -2.1233 H   0  0  0  0  0  0  0  0  0  0  0  0
   -1.9624    0.5224   -1.2431 H   0  0  0  0  0  0  0  0  0  0  0  0
   -3.3755   -4.9969    1.1731 H   0  0  0  0  0  0  0  0  0  0  0  0
   -1.5486   -1.2629    3.8447 H   0  0  0  0  0  0  0  0  0  0  0  0
   -2.0432    1.2596    0.9673 H   0  0  0  0  0  0  0  0  0  0  0  0
   -1.4736    0.6146    2.5185 H   0  0  0  0  0  0  0  0  0  0  0  0
   -0.2750    2.2538   -0.2888 H   0  0  0  0  0  0  0  0  0  0  0  0
    2.0649    2.3441   -1.0297 H   0  0  0  0  0  0  0  0  0  0  0  0
    3.9883   -1.3300   -1.1337 H   0  0  0  0  0  0  0  0  0  0  0  0
    6.2776   -1.3211   -2.0269 H   0  0  0  0  0  0  0  0  0  0  0  0
    7.7097    0.6803   -1.7702 H   0  0  0  0  0  0  0  0  0  0  0  0
    6.8806    2.6551   -0.5716 H   0  0  0  0  0  0  0  0  0  0  0  0
    4.8385    5.0565    0.9347 H   0  0  0  0  0  0  0  0  0  0  0  0
    2.9656   -1.1107    1.3830 H   0  0  0  0  0  0  0  0  0  0  0  0
    0.6286   -1.2054    2.1231 H   0  0  0  0  0  0  0  0  0  0  0  0
  1  2  1  0
  2  3  1  0
  3  4  1  0
  4  5  1  0
  5  6  2  0
  6  7  1  0
  7  8  2  0
  8  9  1  0
  9 10  2  0
 10 11  1  0
 11 12  2  0
 12 13  1  0
 13 14  1  0
 14 15  1  0
 15 16  2  0
 16 17  1  0
 17 18  2  0
 18 19  1  0
 19 20  2  0
 20 21  1  0
 21 22  2  0
 22 23  1  0
 23 24  2  0
 24 25  1  0
 25 26  2  0
 25 27  1  0
 18 28  1  0
 28 29  2  0
 13  5  1  0
 29 15  1  0
 12  7  1  0
 24 19  1  0
  1 30  1  0
  1 31  1  0
  1 32  1  0
  2 33  1  0
  2 34  1  0
  3 35  1  0
  3 36  1  0
  4 37  1  0
  4 38  1  0
  8 39  1  0
 11 40  1  0
 14 41  1  0
 14 42  1  0
 16 43  1  0
 17 44  1  0
 20 45  1  0
 21 46  1  0
 22 47  1  0
 23 48  1  0
 27 49  1  0
 28 50  1  0
 29 51  1  0
M  END
$$$$
