
     RDKit          3D

 49 50  0  0  0  0  0  0  0  0999 V2000
    5.0818   -2.9404   -0.5127 C   0  0  0  0  0  0  0  0  0  0  0  0
    3.9348   -3.2861   -1.1050 C   0  0  0  0  0  0  0  0  0  0  0  0
    2.7001   -2.4342   -0.9990 C   0  0  0  0  0  0  0  0  0  0  0  0
    2.8533   -1.1307   -1.7882 C   0  0  0  0  0  0  0  0  0  0  0  0
    1.5899   -0.3345   -1.7240 C   0  0  0  0  0  0  0  0  0  0  0  0
    0.7746   -0.3730   -2.6854 O   0  0  0  0  0  0  0  0  0  0  0  0
    1.3062    0.4097   -0.5737 O   0  0  0  0  0  0  0  0  0  0  0  0
    0.0851    1.1270   -0.3851 C   0  0  2  0  0  0  0  0  0  0  0  0
    0.2086    2.0375    0.8454 C   0  0  0  0  0  0  0  0  0  0  0  0
    1.2815    3.0807    0.6454 C   0  0  0  0  0  0  0  0  0  0  0  0
    1.0761    4.2844    0.0636 C   0  0  0  0  0  0  0  0  0  0  0  0
   -0.2926    4.7372   -0.3828 C   0  0  0  0  0  0  0  0  0  0  0  0
    2.2289    5.2394   -0.1078 C   0  0  0  0  0  0  0  0  0  0  0  0
   -1.0733    0.1606   -0.2052 C   0  0  0  0  0  0  0  0  0  0  0  0
   -2.1584    0.2704   -0.9822 C   0  0  0  0  0  0  0  0  0  0  0  0
   -3.2797   -0.6721   -0.8650 C   0  0  0  0  0  0  0  0  0  0  0  0
   -4.1116   -0.7260   -1.8079 O   0  0  0  0  0  0  0  0  0  0  0  0
   -3.3735   -1.5790    0.3143 C   0  0  0  0  0  0  0  0  0  0  0  0
   -4.5360   -2.3458    0.6011 C   0  0  0  0  0  0  0  0  0  0  0  0
   -5.7424   -2.2000   -0.0880 O   0  0  0  0  0  0  0  0  0  0  0  0
   -4.5106   -3.2785    1.6373 C   0  0  0  0  0  0  0  0  0  0  0  0
   -3.4019   -3.3877    2.4668 C   0  0  0  0  0  0  0  0  0  0  0  0
   -2.2883   -2.5702    2.2789 C   0  0  0  0  0  0  0  0  0  0  0  0
   -1.2817   -2.6397    3.2449 O   0  0  0  0  0  0  0  0  0  0  0  0
   -2.2354   -1.6967    1.1588 C   0  0  0  0  0  0  0  0  0  0  0  0
   -1.0070   -0.9262    0.8040 C   0  0  0  0  0  0  0  0  0  0  0  0
    0.1100   -1.2313    1.2994 O   0  0  0  0  0  0  0  0  0  0  0  0
    5.9500   -3.5865   -0.5933 H   0  0  0  0  0  0  0  0  0  0  0  0
    5.1644   -2.0155    0.0526 H   0  0  0  0  0  0  0  0  0  0  0  0
    3.8821   -4.2245   -1.6499 H   0  0  0  0  0  0  0  0  0  0  0  0
    1.8382   -3.0083   -1.4032 H   0  0  0  0  0  0  0  0  0  0  0  0
    2.4946   -2.2129    0.0710 H   0  0  0  0  0  0  0  0  0  0  0  0
    3.6797   -0.5233   -1.3625 H   0  0  0  0  0  0  0  0  0  0  0  0
    3.0985   -1.3573   -2.8479 H   0  0  0  0  0  0  0  0  0  0  0  0
   -0.0817    1.7710   -1.2774 H   0  0  0  0  0  0  0  0  0  0  0  0
    0.4854    1.4244    1.7304 H   0  0  0  0  0  0  0  0  0  0  0  0
   -0.7684    2.5122    1.0773 H   0  0  0  0  0  0  0  0  0  0  0  0
    2.2817    2.8154    0.9783 H   0  0  0  0  0  0  0  0  0  0  0  0
   -0.9807    4.7850    0.4868 H   0  0  0  0  0  0  0  0  0  0  0  0
   -0.7013    4.0431   -1.1447 H   0  0  0  0  0  0  0  0  0  0  0  0
   -0.2448    5.7511   -0.8338 H   0  0  0  0  0  0  0  0  0  0  0  0
    2.0680    6.1315    0.5331 H   0  0  0  0  0  0  0  0  0  0  0  0
    2.2885    5.5626   -1.1685 H   0  0  0  0  0  0  0  0  0  0  0  0
    3.2014    4.7770    0.1664 H   0  0  0  0  0  0  0  0  0  0  0  0
   -2.2061    1.0325   -1.7514 H   0  0  0  0  0  0  0  0  0  0  0  0
   -5.9839   -1.3890   -0.6389 H   0  0  0  0  0  0  0  0  0  0  0  0
   -5.3845   -3.8860    1.8376 H   0  0  0  0  0  0  0  0  0  0  0  0
   -3.4303   -4.0778    3.3008 H   0  0  0  0  0  0  0  0  0  0  0  0
   -0.5892   -1.9195    3.3895 H   0  0  0  0  0  0  0  0  0  0  0  0
  1  2  2  0
  2  3  1  0
  3  4  1  0
  4  5  1  0
  5  6  2  0
  5  7  1  0
  7  8  1  0
  8  9  1  0
  9 10  1  0
 10 11  2  3
 11 12  1  0
 11 13  1  0
  8 14  1  0
 14 15  2  0
 15 16  1  0
 16 17  2  0
 16 18  1  0
 18 19  2  0
 19 20  1  0
 19 21  1  0
 21 22  2  0
 22 23  1  0
 23 24  1  0
 23 25  2  0
 25 26  1  0
 26 27  2  0
 26 14  1  0
 25 18  1  0
  1 28  1  0
  1 29  1  0
  2 30  1  0
  3 31  1  0
  3 32  1  0
  4 33  1  0
  4 34  1  0
  8 35  1  6
  9 36  1  0
  9 37  1  0
 10 38  1  0
 12 39  1  0
 12 40  1  0
 12 41  1  0
 13 42  1  0
 13 43  1  0
 13 44  1  0
 15 45  1  0
 20 46  1  0
 21 47  1  0
 22 48  1  0
 24 49  1  0
M  END
$$$$
