
     RDKit          3D

 48 52  0  0  0  0  0  0  0  0999 V2000
    2.8616    1.6307   -0.1396 C   0  0  0  0  0  0  0  0  0  0  0  0
    2.2327    0.4509   -0.9062 C   0  0  0  0  0  0  0  0  0  0  0  0
    1.1223    0.9562   -1.8458 C   0  0  0  0  0  0  0  0  0  0  0  0
    0.0233    1.6131   -1.0606 C   0  0  0  0  0  0  0  0  0  0  0  0
   -0.1443    3.0157   -1.1090 C   0  0  0  0  0  0  0  0  0  0  0  0
   -1.1309    3.5838   -0.3115 C   0  0  0  0  0  0  0  0  0  0  0  0
   -1.9164    2.8360    0.5006 C   0  0  0  0  0  0  0  0  0  0  0  0
   -1.7852    1.4546    0.5847 C   0  0  0  0  0  0  0  0  0  0  0  0
   -0.7962    0.8281   -0.2088 C   0  0  0  0  0  0  0  0  0  0  0  0
   -0.6572   -0.6480   -0.1855 C   0  0  0  0  0  0  0  0  0  0  0  0
   -1.8656   -1.5100   -0.2674 C   0  0  0  0  0  0  0  0  0  0  0  0
   -1.8759   -2.7796    0.3398 C   0  0  0  0  0  0  0  0  0  0  0  0
   -3.0072   -3.5966    0.2584 C   0  0  0  0  0  0  0  0  0  0  0  0
   -4.1435   -3.1630   -0.4363 C   0  0  0  0  0  0  0  0  0  0  0  0
   -5.3001   -4.0000   -0.5190 N   0  0  0  0  0  0  0  0  0  0  0  0
   -4.1376   -1.9053   -1.0525 C   0  0  0  0  0  0  0  0  0  0  0  0
   -3.0079   -1.0860   -0.9725 C   0  0  0  0  0  0  0  0  0  0  0  0
    0.5066   -1.2277   -0.0772 N   0  0  0  0  0  0  0  0  0  0  0  0
    1.7685   -0.6012    0.0347 N   0  0  0  0  0  0  0  0  0  0  0  0
    2.7038   -1.2770    0.9003 C   0  0  0  0  0  0  0  0  0  0  0  0
    2.2601   -1.8725    1.9208 O   0  0  0  0  0  0  0  0  0  0  0  0
    4.1839   -1.3333    0.5863 C   0  0  0  0  0  0  0  0  0  0  0  0
    5.0426   -2.2155    1.4878 C   0  0  0  0  0  0  0  0  0  0  0  0
    5.0808   -0.7052    1.6430 C   0  0  0  0  0  0  0  0  0  0  0  0
   -2.7992    3.6585    1.1732 O   0  0  0  0  0  0  0  0  0  0  0  0
   -2.5510    5.0086    0.7571 C   0  0  0  0  0  0  0  0  0  0  0  0
   -1.4780    4.9154   -0.1903 O   0  0  0  0  0  0  0  0  0  0  0  0
    2.1771    1.9867    0.6596 H   0  0  0  0  0  0  0  0  0  0  0  0
    3.0783    2.4736   -0.8301 H   0  0  0  0  0  0  0  0  0  0  0  0
    3.8208    1.3374    0.3264 H   0  0  0  0  0  0  0  0  0  0  0  0
    3.0123    0.0178   -1.5682 H   0  0  0  0  0  0  0  0  0  0  0  0
    1.5552    1.6668   -2.5844 H   0  0  0  0  0  0  0  0  0  0  0  0
    0.7110    0.1097   -2.4377 H   0  0  0  0  0  0  0  0  0  0  0  0
    0.4791    3.6409   -1.7354 H   0  0  0  0  0  0  0  0  0  0  0  0
   -2.4276    0.8848    1.2442 H   0  0  0  0  0  0  0  0  0  0  0  0
   -1.0129   -3.1359    0.8887 H   0  0  0  0  0  0  0  0  0  0  0  0
   -2.9982   -4.5676    0.7376 H   0  0  0  0  0  0  0  0  0  0  0  0
   -5.3135   -4.9399   -0.0638 H   0  0  0  0  0  0  0  0  0  0  0  0
   -6.1516   -3.6857   -1.0357 H   0  0  0  0  0  0  0  0  0  0  0  0
   -5.0068   -1.5612   -1.5989 H   0  0  0  0  0  0  0  0  0  0  0  0
   -3.0241   -0.1268   -1.4744 H   0  0  0  0  0  0  0  0  0  0  0  0
    4.5445   -1.2699   -0.4612 H   0  0  0  0  0  0  0  0  0  0  0  0
    4.5451   -2.7317    2.3356 H   0  0  0  0  0  0  0  0  0  0  0  0
    5.9518   -2.6300    1.0032 H   0  0  0  0  0  0  0  0  0  0  0  0
    4.5674   -0.3287    2.5541 H   0  0  0  0  0  0  0  0  0  0  0  0
    5.9993   -0.2300    1.2384 H   0  0  0  0  0  0  0  0  0  0  0  0
   -2.2422    5.6267    1.6261 H   0  0  0  0  0  0  0  0  0  0  0  0
   -3.4551    5.4322    0.2715 H   0  0  0  0  0  0  0  0  0  0  0  0
  1  2  1  0
  2  3  1  0
  3  4  1  0
  4  5  2  0
  5  6  1  0
  6  7  2  0
  7  8  1  0
  8  9  2  0
  9 10  1  0
 10 11  1  0
 11 12  2  0
 12 13  1  0
 13 14  2  0
 14 15  1  0
 14 16  1  0
 16 17  2  0
 10 18  2  0
 18 19  1  0
 19 20  1  0
 20 21  2  0
 20 22  1  0
 22 23  1  0
 23 24  1  0
  7 25  1  0
 25 26  1  0
 26 27  1  0
 19  2  1  0
 24 22  1  0
  9  4  1  0
 17 11  1  0
 27  6  1  0
  1 28  1  0
  1 29  1  0
  1 30  1  0
  2 31  1  0
  3 32  1  0
  3 33  1  0
  5 34  1  0
  8 35  1  0
 12 36  1  0
 13 37  1  0
 15 38  1  0
 15 39  1  0
 16 40  1  0
 17 41  1  0
 22 42  1  0
 23 43  1  0
 23 44  1  0
 24 45  1  0
 24 46  1  0
 26 47  1  0
 26 48  1  0
M  END
$$$$
