
     RDKit          3D

 38 41  0  0  0  0  0  0  0  0999 V2000
    0.9455    4.1547   -0.6549 O   0  0  0  0  0  0  0  0  0  0  0  0
    0.7357    2.9264   -0.4640 C   0  0  0  0  0  0  0  0  0  0  0  0
    1.8213    2.0870   -0.2166 C   0  0  0  0  0  0  0  0  0  0  0  0
    1.5981    0.7206   -0.0116 C   0  0  0  0  0  0  0  0  0  0  0  0
    2.7122   -0.2093    0.2680 C   0  0  0  0  0  0  0  0  0  0  0  0
    2.5914   -1.0866    1.3593 C   0  0  0  0  0  0  0  0  0  0  0  0
    3.6187   -1.9812    1.6681 C   0  0  0  0  0  0  0  0  0  0  0  0
    4.7720   -2.0194    0.8838 C   0  0  0  0  0  0  0  0  0  0  0  0
    4.8958   -1.1718   -0.2190 C   0  0  0  0  0  0  0  0  0  0  0  0
    3.8723   -0.2706   -0.5397 C   0  0  0  0  0  0  0  0  0  0  0  0
    4.0488    0.6895   -2.0058 Cl  0  0  0  0  0  0  0  0  0  0  0  0
    0.3579    0.2446   -0.0273 O   0  0  0  0  0  0  0  0  0  0  0  0
   -0.7156    1.0002   -0.2490 C   0  0  0  0  0  0  0  0  0  0  0  0
   -1.9939    0.4062   -0.2508 C   0  0  0  0  0  0  0  0  0  0  0  0
   -2.1433   -1.0461    0.0132 C   0  0  0  0  0  0  0  0  0  0  0  0
   -1.6145   -1.6153    1.1825 C   0  0  0  0  0  0  0  0  0  0  0  0
   -1.7546   -2.9869    1.4058 C   0  0  0  0  0  0  0  0  0  0  0  0
   -2.4003   -3.7637    0.4962 N   0  0  0  0  0  0  0  0  0  0  0  0
   -2.9231   -3.2404   -0.6444 C   0  0  0  0  0  0  0  0  0  0  0  0
   -2.8041   -1.8736   -0.9077 C   0  0  0  0  0  0  0  0  0  0  0  0
   -3.1267    1.2019   -0.5024 C   0  0  0  0  0  0  0  0  0  0  0  0
   -4.4010    0.6335   -0.4880 O   0  0  0  0  0  0  0  0  0  0  0  0
   -2.9806    2.5707   -0.7516 C   0  0  0  0  0  0  0  0  0  0  0  0
   -1.7166    3.1721   -0.7456 C   0  0  0  0  0  0  0  0  0  0  0  0
   -1.6109    4.5416   -0.9926 O   0  0  0  0  0  0  0  0  0  0  0  0
   -0.5687    2.3890   -0.4910 C   0  0  0  0  0  0  0  0  0  0  0  0
    2.8228    2.4976   -0.1658 H   0  0  0  0  0  0  0  0  0  0  0  0
    1.7049   -1.0684    1.9821 H   0  0  0  0  0  0  0  0  0  0  0  0
    3.5200   -2.6456    2.5168 H   0  0  0  0  0  0  0  0  0  0  0  0
    5.5660   -2.7149    1.1233 H   0  0  0  0  0  0  0  0  0  0  0  0
    5.7845   -1.2268   -0.8350 H   0  0  0  0  0  0  0  0  0  0  0  0
   -1.1056   -1.0028    1.9167 H   0  0  0  0  0  0  0  0  0  0  0  0
   -1.3506   -3.4339    2.3043 H   0  0  0  0  0  0  0  0  0  0  0  0
   -3.4287   -3.8863   -1.3496 H   0  0  0  0  0  0  0  0  0  0  0  0
   -3.2119   -1.4675   -1.8252 H   0  0  0  0  0  0  0  0  0  0  0  0
   -5.2325    1.1860   -0.6618 H   0  0  0  0  0  0  0  0  0  0  0  0
   -3.8588    3.1745   -0.9439 H   0  0  0  0  0  0  0  0  0  0  0  0
   -2.4259    5.1150   -1.1768 H   0  0  0  0  0  0  0  0  0  0  0  0
  1  2  2  0
  2  3  1  0
  3  4  2  0
  4  5  1  0
  5  6  2  0
  6  7  1  0
  7  8  2  0
  8  9  1  0
  9 10  2  0
 10 11  1  0
  4 12  1  0
 12 13  1  0
 13 14  2  0
 14 15  1  0
 15 16  2  0
 16 17  1  0
 17 18  2  0
 18 19  1  0
 19 20  2  0
 14 21  1  0
 21 22  1  0
 21 23  2  0
 23 24  1  0
 24 25  1  0
 24 26  2  0
 26  2  1  0
 10  5  1  0
 26 13  1  0
 20 15  1  0
  3 27  1  0
  6 28  1  0
  7 29  1  0
  8 30  1  0
  9 31  1  0
 16 32  1  0
 17 33  1  0
 19 34  1  0
 20 35  1  0
 22 36  1  0
 23 37  1  0
 25 38  1  0
M  END
$$$$
