
     RDKit          3D

 52 55  0  0  0  0  0  0  0  0999 V2000
   -4.9604    3.5337    1.7787 C   0  0  0  0  0  0  0  0  0  0  0  0
   -4.4750    3.1652    0.3772 C   0  0  0  0  0  0  0  0  0  0  0  0
   -4.3237    1.6494    0.1805 C   0  0  0  0  0  0  0  0  0  0  0  0
   -3.1536    1.0659    0.9835 C   0  0  0  0  0  0  0  0  0  0  0  0
   -2.9483   -0.3812    0.6363 C   0  0  0  0  0  0  0  0  0  0  0  0
   -3.5245   -1.3795    1.3570 N   0  0  0  0  0  0  0  0  0  0  0  0
   -3.1335   -2.4859    0.7024 C   0  0  0  0  0  0  0  0  0  0  0  0
   -3.4272   -3.8066    1.0079 C   0  0  0  0  0  0  0  0  0  0  0  0
   -2.9146   -4.7731    0.1918 N   0  0  0  0  0  0  0  0  0  0  0  0
   -2.1545   -4.4678   -0.8716 N   0  0  0  0  0  0  0  0  0  0  0  0
   -1.8532   -3.1743   -1.1934 C   0  0  0  0  0  0  0  0  0  0  0  0
   -1.0679   -2.8896   -2.3046 O   0  0  0  0  0  0  0  0  0  0  0  0
   -2.3647   -2.1694   -0.3708 C   0  0  0  0  0  0  0  0  0  0  0  0
   -2.2377   -0.8300   -0.4390 N   0  0  0  0  0  0  0  0  0  0  0  0
   -1.4732   -0.0436   -1.4154 C   0  0  0  0  0  0  0  0  0  0  0  0
    0.0088   -0.1518   -1.1561 C   0  0  0  0  0  0  0  0  0  0  0  0
    0.5284    0.0752    0.1294 C   0  0  0  0  0  0  0  0  0  0  0  0
    1.9041   -0.0050    0.3604 C   0  0  0  0  0  0  0  0  0  0  0  0
    2.7845   -0.2905   -0.6946 C   0  0  0  0  0  0  0  0  0  0  0  0
    4.2401   -0.3980   -0.4469 C   0  0  0  0  0  0  0  0  0  0  0  0
    4.8650   -1.6298   -0.7099 C   0  0  0  0  0  0  0  0  0  0  0  0
    6.2156   -1.8195   -0.4179 C   0  0  0  0  0  0  0  0  0  0  0  0
    6.9605   -0.7843    0.1429 C   0  0  0  0  0  0  0  0  0  0  0  0
    6.3624    0.4506    0.3990 C   0  0  0  0  0  0  0  0  0  0  0  0
    5.0056    0.6710    0.0966 C   0  0  0  0  0  0  0  0  0  0  0  0
    4.4485    2.0289    0.3178 C   0  0  0  0  0  0  0  0  0  0  0  0
    3.4616    2.4396   -0.3500 O   0  0  0  0  0  0  0  0  0  0  0  0
    5.0432    2.8816    1.2443 O   0  0  0  0  0  0  0  0  0  0  0  0
    2.2683   -0.5120   -1.9801 C   0  0  0  0  0  0  0  0  0  0  0  0
    0.8923   -0.4318   -2.2113 C   0  0  0  0  0  0  0  0  0  0  0  0
   -4.1874    3.2940    2.5379 H   0  0  0  0  0  0  0  0  0  0  0  0
   -5.8988    2.9908    2.0206 H   0  0  0  0  0  0  0  0  0  0  0  0
   -5.1620    4.6247    1.8240 H   0  0  0  0  0  0  0  0  0  0  0  0
   -3.5091    3.6756    0.1709 H   0  0  0  0  0  0  0  0  0  0  0  0
   -5.2178    3.5422   -0.3589 H   0  0  0  0  0  0  0  0  0  0  0  0
   -4.1539    1.4604   -0.9020 H   0  0  0  0  0  0  0  0  0  0  0  0
   -5.2688    1.1360    0.4647 H   0  0  0  0  0  0  0  0  0  0  0  0
   -3.3707    1.1395    2.0700 H   0  0  0  0  0  0  0  0  0  0  0  0
   -2.2235    1.6402    0.7912 H   0  0  0  0  0  0  0  0  0  0  0  0
   -4.0388   -4.0681    1.8611 H   0  0  0  0  0  0  0  0  0  0  0  0
   -0.7038   -3.6330   -2.8881 H   0  0  0  0  0  0  0  0  0  0  0  0
   -1.7630    1.0259   -1.3776 H   0  0  0  0  0  0  0  0  0  0  0  0
   -1.7273   -0.3928   -2.4392 H   0  0  0  0  0  0  0  0  0  0  0  0
   -0.1290    0.3070    0.9566 H   0  0  0  0  0  0  0  0  0  0  0  0
    2.2843    0.1557    1.3619 H   0  0  0  0  0  0  0  0  0  0  0  0
    4.2967   -2.4555   -1.1214 H   0  0  0  0  0  0  0  0  0  0  0  0
    6.6831   -2.7750   -0.6176 H   0  0  0  0  0  0  0  0  0  0  0  0
    8.0074   -0.9357    0.3723 H   0  0  0  0  0  0  0  0  0  0  0  0
    6.9721    1.2442    0.8129 H   0  0  0  0  0  0  0  0  0  0  0  0
    4.6834    3.8162    1.3971 H   0  0  0  0  0  0  0  0  0  0  0  0
    2.9329   -0.7365   -2.8054 H   0  0  0  0  0  0  0  0  0  0  0  0
    0.5172   -0.5933   -3.2143 H   0  0  0  0  0  0  0  0  0  0  0  0
  1  2  1  0
  2  3  1  0
  3  4  1  0
  4  5  1  0
  5  6  2  0
  6  7  1  0
  7  8  2  0
  8  9  1  0
  9 10  2  0
 10 11  1  0
 11 12  1  0
 11 13  2  0
 13 14  1  0
 14 15  1  0
 15 16  1  0
 16 17  2  0
 17 18  1  0
 18 19  2  0
 19 20  1  0
 20 21  2  0
 21 22  1  0
 22 23  2  0
 23 24  1  0
 24 25  2  0
 25 26  1  0
 26 27  2  0
 26 28  1  0
 19 29  1  0
 29 30  2  0
 14  5  1  0
 30 16  1  0
 13  7  1  0
 25 20  1  0
  1 31  1  0
  1 32  1  0
  1 33  1  0
  2 34  1  0
  2 35  1  0
  3 36  1  0
  3 37  1  0
  4 38  1  0
  4 39  1  0
  8 40  1  0
 12 41  1  0
 15 42  1  0
 15 43  1  0
 17 44  1  0
 18 45  1  0
 21 46  1  0
 22 47  1  0
 23 48  1  0
 24 49  1  0
 28 50  1  0
 29 51  1  0
 30 52  1  0
M  END
$$$$
