
     RDKit          3D

 54 57  0  0  0  0  0  0  0  0999 V2000
    5.0011   -0.3377   -2.9282 C   0  0  0  0  0  0  0  0  0  0  0  0
    5.8935   -0.3160   -1.6909 C   0  0  0  0  0  0  0  0  0  0  0  0
    5.0774   -0.3701   -0.4700 N   0  0  0  0  0  0  0  0  0  0  0  0
    4.6833    0.9757   -0.0171 C   0  0  0  0  0  0  0  0  0  0  0  0
    3.3866    0.9374    0.8146 C   0  0  0  0  0  0  0  0  0  0  0  0
    3.4962    0.1454    2.1265 C   0  0  0  0  0  0  0  0  0  0  0  0
    2.1096   -0.4427    2.3619 C   0  0  0  0  0  0  0  0  0  0  0  0
    1.4378   -0.3772    1.0761 N   0  0  0  0  0  0  0  0  0  0  0  0
    0.1562   -0.9688    0.8261 C   0  0  0  0  0  0  0  0  0  0  0  0
    0.0148   -2.3584    0.8422 C   0  0  0  0  0  0  0  0  0  0  0  0
    1.0895   -3.1552    1.0679 F   0  0  0  0  0  0  0  0  0  0  0  0
   -1.2277   -2.9392    0.6075 C   0  0  0  0  0  0  0  0  0  0  0  0
   -2.3568   -2.1416    0.3421 C   0  0  0  0  0  0  0  0  0  0  0  0
   -3.6135   -2.7343    0.1159 C   0  0  0  0  0  0  0  0  0  0  0  0
   -3.7304   -3.9908    0.1499 O   0  0  0  0  0  0  0  0  0  0  0  0
   -4.7356   -1.9283   -0.1450 C   0  0  0  0  0  0  0  0  0  0  0  0
   -6.0859   -2.5085   -0.3844 C   0  0  0  0  0  0  0  0  0  0  0  0
   -7.0683   -1.7543   -0.6220 O   0  0  0  0  0  0  0  0  0  0  0  0
   -6.2895   -3.8857   -0.3501 O   0  0  0  0  0  0  0  0  0  0  0  0
   -4.5637   -0.5378   -0.1841 C   0  0  0  0  0  0  0  0  0  0  0  0
   -3.3447    0.0403    0.0266 N   0  0  0  0  0  0  0  0  0  0  0  0
   -3.2909    1.4722   -0.0874 C   0  0  0  0  0  0  0  0  0  0  0  0
   -3.6912    2.2807    0.9871 C   0  0  0  0  0  0  0  0  0  0  0  0
   -3.6477    3.6735    0.8704 C   0  0  0  0  0  0  0  0  0  0  0  0
   -3.2112    4.2634   -0.3200 C   0  0  0  0  0  0  0  0  0  0  0  0
   -2.8201    3.4613   -1.3967 C   0  0  0  0  0  0  0  0  0  0  0  0
   -2.8626    2.0682   -1.2837 C   0  0  0  0  0  0  0  0  0  0  0  0
   -2.2312   -0.7267    0.3043 C   0  0  0  0  0  0  0  0  0  0  0  0
   -0.9555   -0.1535    0.5667 C   0  0  0  0  0  0  0  0  0  0  0  0
   -0.7751    1.1905    0.6219 F   0  0  0  0  0  0  0  0  0  0  0  0
    2.1951    0.3364    0.0645 C   0  0  0  0  0  0  0  0  0  0  0  0
    4.3578   -1.2431   -2.9168 H   0  0  0  0  0  0  0  0  0  0  0  0
    4.3561    0.5645   -2.9644 H   0  0  0  0  0  0  0  0  0  0  0  0
    5.6318   -0.3584   -3.8418 H   0  0  0  0  0  0  0  0  0  0  0  0
    6.5536   -1.2110   -1.7323 H   0  0  0  0  0  0  0  0  0  0  0  0
    6.5526    0.5818   -1.7056 H   0  0  0  0  0  0  0  0  0  0  0  0
    5.6684   -0.8004    0.2793 H   0  0  0  0  0  0  0  0  0  0  0  0
    4.5017    1.6528   -0.8814 H   0  0  0  0  0  0  0  0  0  0  0  0
    5.4991    1.4285    0.5906 H   0  0  0  0  0  0  0  0  0  0  0  0
    3.1242    1.9866    1.0816 H   0  0  0  0  0  0  0  0  0  0  0  0
    4.2265   -0.6859    2.0421 H   0  0  0  0  0  0  0  0  0  0  0  0
    3.8014    0.8036    2.9688 H   0  0  0  0  0  0  0  0  0  0  0  0
    2.1848   -1.4926    2.7171 H   0  0  0  0  0  0  0  0  0  0  0  0
    1.5478    0.1649    3.1038 H   0  0  0  0  0  0  0  0  0  0  0  0
   -1.3014   -4.0197    0.6310 H   0  0  0  0  0  0  0  0  0  0  0  0
   -7.2081   -4.2807   -0.5126 H   0  0  0  0  0  0  0  0  0  0  0  0
   -5.4198    0.0946   -0.3972 H   0  0  0  0  0  0  0  0  0  0  0  0
   -4.0303    1.8288    1.9106 H   0  0  0  0  0  0  0  0  0  0  0  0
   -3.9526    4.2955    1.7021 H   0  0  0  0  0  0  0  0  0  0  0  0
   -3.1779    5.3415   -0.4088 H   0  0  0  0  0  0  0  0  0  0  0  0
   -2.4849    3.9189   -2.3184 H   0  0  0  0  0  0  0  0  0  0  0  0
   -2.5597    1.4512   -2.1202 H   0  0  0  0  0  0  0  0  0  0  0  0
    1.5812    1.1404   -0.3949 H   0  0  0  0  0  0  0  0  0  0  0  0
    2.5082   -0.3797   -0.7251 H   0  0  0  0  0  0  0  0  0  0  0  0
  1  2  1  0
  2  3  1  0
  3  4  1  0
  4  5  1  0
  5  6  1  0
  6  7  1  0
  7  8  1  0
  8  9  1  0
  9 10  2  0
 10 11  1  0
 10 12  1  0
 12 13  2  0
 13 14  1  0
 14 15  2  0
 14 16  1  0
 16 17  1  0
 17 18  2  0
 17 19  1  0
 16 20  2  0
 20 21  1  0
 21 22  1  0
 22 23  2  0
 23 24  1  0
 24 25  2  0
 25 26  1  0
 26 27  2  0
 21 28  1  0
 28 29  2  0
 29 30  1  0
  8 31  1  0
 31  5  1  0
 29  9  1  0
 28 13  1  0
 27 22  1  0
  1 32  1  0
  1 33  1  0
  1 34  1  0
  2 35  1  0
  2 36  1  0
  3 37  1  0
  4 38  1  0
  4 39  1  0
  5 40  1  0
  6 41  1  0
  6 42  1  0
  7 43  1  0
  7 44  1  0
 12 45  1  0
 19 46  1  0
 20 47  1  0
 23 48  1  0
 24 49  1  0
 25 50  1  0
 26 51  1  0
 27 52  1  0
 31 53  1  0
 31 54  1  0
M  END
$$$$
