
     RDKit          3D

 57 60  0  0  0  0  0  0  0  0999 V2000
    7.6193    0.8636    0.3950 C   0  0  0  0  0  0  0  0  0  0  0  0
    7.4202   -0.5728   -0.0981 C   0  0  0  0  0  0  0  0  0  0  0  0
    6.1765   -1.1761    0.4067 N   0  0  0  0  0  0  0  0  0  0  0  0
    4.9765   -0.5610   -0.1830 C   0  0  0  0  0  0  0  0  0  0  0  0
    3.7593   -1.4984   -0.0309 C   0  0  0  0  0  0  0  0  0  0  0  0
    3.2484   -1.5594    1.4214 C   0  0  0  0  0  0  0  0  0  0  0  0
    2.0623   -0.6072    1.4927 C   0  0  0  0  0  0  0  0  0  0  0  0
    1.6544   -0.4021    0.1173 N   0  0  0  0  0  0  0  0  0  0  0  0
    0.5237    0.3957   -0.2532 C   0  0  0  0  0  0  0  0  0  0  0  0
    0.7197    1.6701   -0.7849 C   0  0  0  0  0  0  0  0  0  0  0  0
    1.9752    2.1535   -0.9626 F   0  0  0  0  0  0  0  0  0  0  0  0
   -0.3718    2.4821   -1.0687 C   0  0  0  0  0  0  0  0  0  0  0  0
   -1.6859    2.0187   -0.8676 C   0  0  0  0  0  0  0  0  0  0  0  0
   -2.7775    2.8790   -1.0721 C   0  0  0  0  0  0  0  0  0  0  0  0
   -2.5826    4.0608   -1.4715 O   0  0  0  0  0  0  0  0  0  0  0  0
   -4.0793    2.4300   -0.8094 C   0  0  0  0  0  0  0  0  0  0  0  0
   -5.2623    3.3267   -0.9352 C   0  0  0  0  0  0  0  0  0  0  0  0
   -6.4260    2.8723   -0.7621 O   0  0  0  0  0  0  0  0  0  0  0  0
   -5.1074    4.6768   -1.2390 O   0  0  0  0  0  0  0  0  0  0  0  0
   -4.2610    1.0915   -0.4378 C   0  0  0  0  0  0  0  0  0  0  0  0
   -3.2145    0.2056   -0.3535 N   0  0  0  0  0  0  0  0  0  0  0  0
   -3.5154   -1.2457   -0.1761 C   0  0  0  0  0  0  0  0  0  0  0  0
   -3.7531   -1.5792    1.2946 C   0  0  0  0  0  0  0  0  0  0  0  0
   -5.2602   -1.5839    1.4871 C   0  0  0  0  0  0  0  0  0  0  0  0
   -5.8696   -1.9265    0.1321 C   0  0  0  0  0  0  0  0  0  0  0  0
   -4.7758   -1.7315   -0.9177 C   0  0  0  0  0  0  0  0  0  0  0  0
   -1.9135    0.6839   -0.4274 C   0  0  0  0  0  0  0  0  0  0  0  0
   -0.7760   -0.0916   -0.0518 C   0  0  0  0  0  0  0  0  0  0  0  0
   -0.8908   -1.2780    0.5954 F   0  0  0  0  0  0  0  0  0  0  0  0
    2.5611   -0.9937   -0.8480 C   0  0  0  0  0  0  0  0  0  0  0  0
    8.6201    1.2265    0.0794 H   0  0  0  0  0  0  0  0  0  0  0  0
    7.5613    0.9055    1.5032 H   0  0  0  0  0  0  0  0  0  0  0  0
    6.8534    1.5377   -0.0413 H   0  0  0  0  0  0  0  0  0  0  0  0
    7.4452   -0.5988   -1.2096 H   0  0  0  0  0  0  0  0  0  0  0  0
    8.2759   -1.1860    0.2576 H   0  0  0  0  0  0  0  0  0  0  0  0
    6.1511   -1.0654    1.4468 H   0  0  0  0  0  0  0  0  0  0  0  0
    5.1427   -0.3820   -1.2692 H   0  0  0  0  0  0  0  0  0  0  0  0
    4.7622    0.4186    0.3009 H   0  0  0  0  0  0  0  0  0  0  0  0
    4.0463   -2.5159   -0.3798 H   0  0  0  0  0  0  0  0  0  0  0  0
    2.8972   -2.5927    1.6370 H   0  0  0  0  0  0  0  0  0  0  0  0
    4.0148   -1.2900    2.1774 H   0  0  0  0  0  0  0  0  0  0  0  0
    2.3684    0.3645    1.9374 H   0  0  0  0  0  0  0  0  0  0  0  0
    1.2362   -1.0514    2.0881 H   0  0  0  0  0  0  0  0  0  0  0  0
   -0.1824    3.4861   -1.4290 H   0  0  0  0  0  0  0  0  0  0  0  0
   -5.9114    5.2876   -1.3230 H   0  0  0  0  0  0  0  0  0  0  0  0
   -5.2701    0.7543   -0.2499 H   0  0  0  0  0  0  0  0  0  0  0  0
   -2.6921   -1.8601   -0.5950 H   0  0  0  0  0  0  0  0  0  0  0  0
   -3.2631   -0.8500    1.9763 H   0  0  0  0  0  0  0  0  0  0  0  0
   -3.3532   -2.5946    1.5110 H   0  0  0  0  0  0  0  0  0  0  0  0
   -5.5606   -2.3215    2.2627 H   0  0  0  0  0  0  0  0  0  0  0  0
   -5.5972   -0.5734    1.8071 H   0  0  0  0  0  0  0  0  0  0  0  0
   -6.7419   -1.2706   -0.0798 H   0  0  0  0  0  0  0  0  0  0  0  0
   -6.2148   -2.9841    0.1298 H   0  0  0  0  0  0  0  0  0  0  0  0
   -4.5689   -2.7131   -1.4010 H   0  0  0  0  0  0  0  0  0  0  0  0
   -5.0958   -1.0412   -1.7274 H   0  0  0  0  0  0  0  0  0  0  0  0
    2.8517   -0.2483   -1.6196 H   0  0  0  0  0  0  0  0  0  0  0  0
    2.0512   -1.8446   -1.3495 H   0  0  0  0  0  0  0  0  0  0  0  0
  1  2  1  0
  2  3  1  0
  3  4  1  0
  4  5  1  0
  5  6  1  0
  6  7  1  0
  7  8  1  0
  8  9  1  0
  9 10  2  0
 10 11  1  0
 10 12  1  0
 12 13  2  0
 13 14  1  0
 14 15  2  0
 14 16  1  0
 16 17  1  0
 17 18  2  0
 17 19  1  0
 16 20  2  0
 20 21  1  0
 21 22  1  0
 22 23  1  0
 23 24  1  0
 24 25  1  0
 25 26  1  0
 21 27  1  0
 27 28  2  0
 28 29  1  0
  8 30  1  0
 30  5  1  0
 28  9  1  0
 27 13  1  0
 26 22  1  0
  1 31  1  0
  1 32  1  0
  1 33  1  0
  2 34  1  0
  2 35  1  0
  3 36  1  0
  4 37  1  0
  4 38  1  0
  5 39  1  0
  6 40  1  0
  6 41  1  0
  7 42  1  0
  7 43  1  0
 12 44  1  0
 19 45  1  0
 20 46  1  0
 22 47  1  0
 23 48  1  0
 23 49  1  0
 24 50  1  0
 24 51  1  0
 25 52  1  0
 25 53  1  0
 26 54  1  0
 26 55  1  0
 30 56  1  0
 30 57  1  0
M  END
$$$$
