
     RDKit          3D

 54 56  0  0  0  0  0  0  0  0999 V2000
   -3.1949    3.3381   -0.3574 C   0  0  0  0  0  0  0  0  0  0  0  0
   -3.4252    1.8314   -0.2507 C   0  0  0  0  0  0  0  0  0  0  0  0
   -3.0220    1.2765    1.1263 C   0  0  0  0  0  0  0  0  0  0  0  0
   -1.5164    1.2661    1.3252 C   0  0  0  0  0  0  0  0  0  0  0  0
   -0.9760    2.3133    2.0858 C   0  0  0  0  0  0  0  0  0  0  0  0
    0.3935    2.3710    2.3092 C   0  0  0  0  0  0  0  0  0  0  0  0
    0.8807    3.3046    2.9988 O   0  0  0  0  0  0  0  0  0  0  0  0
    1.1924    1.4489    1.7997 O   0  0  0  0  0  0  0  0  0  0  0  0
    0.7594    0.4365    1.0531 C   0  0  0  0  0  0  0  0  0  0  0  0
    1.6971   -0.4900    0.5602 C   0  0  0  0  0  0  0  0  0  0  0  0
    3.1417   -0.3199    0.8493 C   0  0  0  0  0  0  0  0  0  0  0  0
    3.7768   -1.2742    1.3761 O   0  0  0  0  0  0  0  0  0  0  0  0
    3.8714    0.9588    0.4861 C   0  0  1  0  0  0  0  0  0  0  0  0
    4.6483    1.4919    1.6973 C   0  0  0  0  0  0  0  0  0  0  0  0
    4.8022    0.7876   -0.7430 C   0  0  2  0  0  0  0  0  0  0  0  0
    4.0228    0.4644   -2.0281 C   0  0  0  0  0  0  0  0  0  0  0  0
    5.8133   -0.1626   -0.5053 O   0  0  0  0  0  0  0  0  0  0  0  0
    1.2678   -1.5997   -0.1857 C   0  0  0  0  0  0  0  0  0  0  0  0
    2.2259   -2.5322   -0.6007 O   0  0  0  0  0  0  0  0  0  0  0  0
   -0.1000   -1.7477   -0.4979 C   0  0  0  0  0  0  0  0  0  0  0  0
   -1.0415   -0.8235   -0.0033 C   0  0  0  0  0  0  0  0  0  0  0  0
   -0.6277    0.2869    0.7790 C   0  0  0  0  0  0  0  0  0  0  0  0
   -2.3883   -1.0208   -0.3281 O   0  0  0  0  0  0  0  0  0  0  0  0
   -2.9239   -2.2666   -0.7823 C   0  0  0  0  0  0  0  0  0  0  0  0
   -4.1452   -1.9709   -1.6596 C   0  0  0  0  0  0  0  0  0  0  0  0
   -3.3416   -3.1010    0.4356 C   0  0  0  0  0  0  0  0  0  0  0  0
   -1.8942   -3.0279   -1.5810 C   0  0  0  0  0  0  0  0  0  0  0  0
   -0.5886   -2.8162   -1.4045 C   0  0  0  0  0  0  0  0  0  0  0  0
   -2.1124    3.5725   -0.2797 H   0  0  0  0  0  0  0  0  0  0  0  0
   -3.7467    3.8732    0.4445 H   0  0  0  0  0  0  0  0  0  0  0  0
   -3.5614    3.6998   -1.3411 H   0  0  0  0  0  0  0  0  0  0  0  0
   -4.5057    1.6272   -0.4123 H   0  0  0  0  0  0  0  0  0  0  0  0
   -2.8614    1.3257   -1.0624 H   0  0  0  0  0  0  0  0  0  0  0  0
   -3.4471    0.2665    1.2882 H   0  0  0  0  0  0  0  0  0  0  0  0
   -3.5149    1.8904    1.9127 H   0  0  0  0  0  0  0  0  0  0  0  0
   -1.6145    3.0826    2.5054 H   0  0  0  0  0  0  0  0  0  0  0  0
    3.1269    1.7399    0.2179 H   0  0  0  0  0  0  0  0  0  0  0  0
    5.1170    2.4688    1.4521 H   0  0  0  0  0  0  0  0  0  0  0  0
    3.9593    1.6464    2.5553 H   0  0  0  0  0  0  0  0  0  0  0  0
    5.4453    0.7807    2.0027 H   0  0  0  0  0  0  0  0  0  0  0  0
    5.3045    1.7640   -0.9211 H   0  0  0  0  0  0  0  0  0  0  0  0
    3.2651    1.2521   -2.2262 H   0  0  0  0  0  0  0  0  0  0  0  0
    3.5089   -0.5154   -1.9479 H   0  0  0  0  0  0  0  0  0  0  0  0
    4.7225    0.4251   -2.8896 H   0  0  0  0  0  0  0  0  0  0  0  0
    5.4134   -1.0669   -0.5878 H   0  0  0  0  0  0  0  0  0  0  0  0
    2.0069   -3.4197   -1.0299 H   0  0  0  0  0  0  0  0  0  0  0  0
   -4.6155   -2.9132   -2.0155 H   0  0  0  0  0  0  0  0  0  0  0  0
   -3.8439   -1.3667   -2.5424 H   0  0  0  0  0  0  0  0  0  0  0  0
   -4.8996   -1.3912   -1.0851 H   0  0  0  0  0  0  0  0  0  0  0  0
   -4.0920   -2.5484    1.0409 H   0  0  0  0  0  0  0  0  0  0  0  0
   -3.7834   -4.0699    0.1167 H   0  0  0  0  0  0  0  0  0  0  0  0
   -2.4611   -3.3078    1.0814 H   0  0  0  0  0  0  0  0  0  0  0  0
   -2.2140   -3.8213   -2.2469 H   0  0  0  0  0  0  0  0  0  0  0  0
    0.0956   -3.4170   -1.9844 H   0  0  0  0  0  0  0  0  0  0  0  0
  1  2  1  0
  2  3  1  0
  3  4  1  0
  4  5  2  0
  5  6  1  0
  6  7  2  0
  6  8  1  0
  8  9  1  0
  9 10  2  0
 10 11  1  0
 11 12  2  0
 11 13  1  0
 13 14  1  0
 13 15  1  0
 15 16  1  0
 15 17  1  0
 10 18  1  0
 18 19  1  0
 18 20  2  0
 20 21  1  0
 21 22  2  0
 21 23  1  0
 23 24  1  0
 24 25  1  0
 24 26  1  0
 24 27  1  0
 27 28  2  0
 22  4  1  0
 22  9  1  0
 28 20  1  0
  1 29  1  0
  1 30  1  0
  1 31  1  0
  2 32  1  0
  2 33  1  0
  3 34  1  0
  3 35  1  0
  5 36  1  0
 13 37  1  6
 14 38  1  0
 14 39  1  0
 14 40  1  0
 15 41  1  6
 16 42  1  0
 16 43  1  0
 16 44  1  0
 17 45  1  0
 19 46  1  0
 25 47  1  0
 25 48  1  0
 25 49  1  0
 26 50  1  0
 26 51  1  0
 26 52  1  0
 27 53  1  0
 28 54  1  0
M  END
$$$$
