
     RDKit          3D

 58 61  0  0  0  0  0  0  0  0999 V2000
   -4.6902   -3.4748    2.3133 C   0  0  0  0  0  0  0  0  0  0  0  0
   -3.9858   -2.8915    3.5383 C   0  0  0  0  0  0  0  0  0  0  0  0
   -2.4595   -2.9986    3.4386 C   0  0  0  0  0  0  0  0  0  0  0  0
   -1.9288   -2.1204    2.3882 C   0  0  0  0  0  0  0  0  0  0  0  0
   -1.4969   -1.3973    1.5263 C   0  0  0  0  0  0  0  0  0  0  0  0
   -0.9741   -0.5113    0.4777 C   0  0  0  0  0  0  0  0  0  0  0  0
   -0.3604    0.6976    1.0768 N   0  0  0  0  0  0  0  0  0  0  0  0
    0.8840    0.3629    1.8122 C   0  0  0  0  0  0  0  0  0  0  0  0
    2.0812    0.9715    1.0574 C   0  0  1  0  0  0  0  0  0  0  0  0
    3.2563    0.0202    0.9047 C   0  0  0  0  0  0  0  0  0  0  0  0
    4.5443    0.4165    1.3551 C   0  0  0  0  0  0  0  0  0  0  0  0
    5.6502   -0.4415    1.2148 C   0  0  0  0  0  0  0  0  0  0  0  0
    5.4404   -1.6807    0.6202 C   0  0  0  0  0  0  0  0  0  0  0  0
    4.2178   -2.0682    0.1809 C   0  0  0  0  0  0  0  0  0  0  0  0
    3.0976   -1.2517    0.2995 C   0  0  0  0  0  0  0  0  0  0  0  0
    4.3046   -3.3347   -0.3642 O   0  0  0  0  0  0  0  0  0  0  0  0
    5.6676   -3.7697   -0.2601 C   0  0  0  0  0  0  0  0  0  0  0  0
    6.3578   -2.6843    0.3745 O   0  0  0  0  0  0  0  0  0  0  0  0
    1.5010    1.4221   -0.2801 C   0  0  2  0  0  0  0  0  0  0  0  0
    2.2168    2.6152   -0.8564 C   0  0  0  0  0  0  0  0  0  0  0  0
    2.7372    2.5398   -2.0012 O   0  0  0  0  0  0  0  0  0  0  0  0
    2.3034    3.8028   -0.1349 O   0  0  0  0  0  0  0  0  0  0  0  0
    0.0465    1.7203    0.0866 C   0  0  1  0  0  0  0  0  0  0  0  0
   -0.9225    1.9207   -1.0796 C   0  0  0  0  0  0  0  0  0  0  0  0
   -0.8175    1.2065   -2.2912 C   0  0  0  0  0  0  0  0  0  0  0  0
   -1.7499    1.4022   -3.3137 C   0  0  0  0  0  0  0  0  0  0  0  0
   -2.8121    2.2958   -3.1497 C   0  0  0  0  0  0  0  0  0  0  0  0
   -3.7204    2.4532   -4.2073 O   0  0  0  0  0  0  0  0  0  0  0  0
   -4.8497    3.3200   -4.1750 C   0  0  0  0  0  0  0  0  0  0  0  0
   -2.9355    2.9973   -1.9370 C   0  0  0  0  0  0  0  0  0  0  0  0
   -2.0036    2.8052   -0.9135 C   0  0  0  0  0  0  0  0  0  0  0  0
   -4.4048   -4.5390    2.1736 H   0  0  0  0  0  0  0  0  0  0  0  0
   -4.4270   -2.8999    1.4008 H   0  0  0  0  0  0  0  0  0  0  0  0
   -5.7900   -3.4193    2.4576 H   0  0  0  0  0  0  0  0  0  0  0  0
   -4.3233   -3.4503    4.4384 H   0  0  0  0  0  0  0  0  0  0  0  0
   -4.2854   -1.8285    3.6685 H   0  0  0  0  0  0  0  0  0  0  0  0
   -2.1581   -4.0476    3.2300 H   0  0  0  0  0  0  0  0  0  0  0  0
   -2.0105   -2.6952    4.4082 H   0  0  0  0  0  0  0  0  0  0  0  0
   -1.8513   -0.2397   -0.1436 H   0  0  0  0  0  0  0  0  0  0  0  0
   -0.2464   -1.0650   -0.1539 H   0  0  0  0  0  0  0  0  0  0  0  0
    0.8226    0.8103    2.8278 H   0  0  0  0  0  0  0  0  0  0  0  0
    1.0125   -0.7317    1.9684 H   0  0  0  0  0  0  0  0  0  0  0  0
    2.4039    1.8695    1.6341 H   0  0  0  0  0  0  0  0  0  0  0  0
    4.6909    1.3870    1.8122 H   0  0  0  0  0  0  0  0  0  0  0  0
    6.6335   -0.1468    1.5570 H   0  0  0  0  0  0  0  0  0  0  0  0
    2.1385   -1.5937   -0.0655 H   0  0  0  0  0  0  0  0  0  0  0  0
    6.0894   -3.9534   -1.2702 H   0  0  0  0  0  0  0  0  0  0  0  0
    5.7312   -4.6833    0.3672 H   0  0  0  0  0  0  0  0  0  0  0  0
    1.5512    0.5781   -0.9968 H   0  0  0  0  0  0  0  0  0  0  0  0
    2.7794    4.6102   -0.5183 H   0  0  0  0  0  0  0  0  0  0  0  0
    0.0580    2.6889    0.6407 H   0  0  0  0  0  0  0  0  0  0  0  0
   -0.0350    0.4813   -2.4557 H   0  0  0  0  0  0  0  0  0  0  0  0
   -1.6510    0.8481   -4.2387 H   0  0  0  0  0  0  0  0  0  0  0  0
   -5.3891    3.2483   -5.1418 H   0  0  0  0  0  0  0  0  0  0  0  0
   -5.5399    3.0167   -3.3592 H   0  0  0  0  0  0  0  0  0  0  0  0
   -4.5211    4.3706   -4.0276 H   0  0  0  0  0  0  0  0  0  0  0  0
   -3.7497    3.6903   -1.7733 H   0  0  0  0  0  0  0  0  0  0  0  0
   -2.1281    3.3490    0.0149 H   0  0  0  0  0  0  0  0  0  0  0  0
  1  2  1  0
  2  3  1  0
  3  4  1  0
  4  5  3  0
  5  6  1  0
  6  7  1  0
  7  8  1  0
  8  9  1  0
  9 10  1  0
 10 11  2  0
 11 12  1  0
 12 13  2  0
 13 14  1  0
 14 15  2  0
 14 16  1  0
 16 17  1  0
 17 18  1  0
  9 19  1  0
 19 20  1  0
 20 21  2  0
 20 22  1  0
 19 23  1  0
 23 24  1  0
 24 25  2  0
 25 26  1  0
 26 27  2  0
 27 28  1  0
 28 29  1  0
 27 30  1  0
 30 31  2  0
 23  7  1  0
 31 24  1  0
 15 10  1  0
 18 13  1  0
  1 32  1  0
  1 33  1  0
  1 34  1  0
  2 35  1  0
  2 36  1  0
  3 37  1  0
  3 38  1  0
  6 39  1  0
  6 40  1  0
  8 41  1  0
  8 42  1  0
  9 43  1  1
 11 44  1  0
 12 45  1  0
 15 46  1  0
 17 47  1  0
 17 48  1  0
 19 49  1  6
 22 50  1  0
 23 51  1  1
 25 52  1  0
 26 53  1  0
 29 54  1  0
 29 55  1  0
 29 56  1  0
 30 57  1  0
 31 58  1  0
M  END
$$$$
