
     RDKit          3D

 58 62  0  0  0  0  0  0  0  0999 V2000
    6.3611   -1.5810   -0.9661 C   0  0  0  0  0  0  0  0  0  0  0  0
    5.8955   -0.2212   -1.2912 N   0  0  0  0  0  0  0  0  0  0  0  0
    6.9612    0.5032   -2.0023 C   0  0  0  0  0  0  0  0  0  0  0  0
    5.5059    0.5166   -0.0683 C   0  0  0  0  0  0  0  0  0  0  0  0
    4.0853    0.1494    0.3851 C   0  0  0  0  0  0  0  0  0  0  0  0
    3.0410    0.4506   -0.6956 C   0  0  0  0  0  0  0  0  0  0  0  0
    1.6998    0.1409   -0.2001 N   0  0  0  0  0  0  0  0  0  0  0  0
    1.0549   -1.0397   -0.3526 C   0  0  0  0  0  0  0  0  0  0  0  0
   -0.1736   -1.0046    0.2969 C   0  0  0  0  0  0  0  0  0  0  0  0
   -1.1581   -2.1016    0.3426 C   0  0  0  0  0  0  0  0  0  0  0  0
   -2.4819   -2.0093    0.1588 C   0  0  0  0  0  0  0  0  0  0  0  0
   -3.2327   -0.8081   -0.2547 C   0  0  0  0  0  0  0  0  0  0  0  0
   -2.8288    0.1409   -1.1904 C   0  0  0  0  0  0  0  0  0  0  0  0
   -3.7593    1.1175   -1.2967 N   0  0  0  0  0  0  0  0  0  0  0  0
   -3.6607    2.3144   -2.1260 C   0  0  0  0  0  0  0  0  0  0  0  0
   -4.7415    0.8058   -0.4277 C   0  0  0  0  0  0  0  0  0  0  0  0
   -5.8959    1.5383   -0.1385 C   0  0  0  0  0  0  0  0  0  0  0  0
   -6.7648    1.0376    0.8471 C   0  0  0  0  0  0  0  0  0  0  0  0
   -6.4613   -0.1622    1.5258 C   0  0  0  0  0  0  0  0  0  0  0  0
   -5.2889   -0.8763    1.2219 C   0  0  0  0  0  0  0  0  0  0  0  0
   -4.4549   -0.3697    0.2235 C   0  0  0  0  0  0  0  0  0  0  0  0
   -3.0365   -3.3618    0.2724 C   0  0  0  0  0  0  0  0  0  0  0  0
   -4.2417   -3.6770    0.0899 O   0  0  0  0  0  0  0  0  0  0  0  0
   -2.0138   -4.3066    0.5453 N   0  0  0  0  0  0  0  0  0  0  0  0
   -0.8394   -3.5116    0.5741 C   0  0  0  0  0  0  0  0  0  0  0  0
    0.3123   -3.9770    0.7800 O   0  0  0  0  0  0  0  0  0  0  0  0
   -0.2494    0.2421    0.8961 C   0  0  0  0  0  0  0  0  0  0  0  0
   -1.2089    0.8026    1.7423 C   0  0  0  0  0  0  0  0  0  0  0  0
   -0.9838    2.1032    2.2244 C   0  0  0  0  0  0  0  0  0  0  0  0
    0.1917    2.8014    1.8759 C   0  0  0  0  0  0  0  0  0  0  0  0
    1.1568    2.2034    1.0466 C   0  0  0  0  0  0  0  0  0  0  0  0
    0.9046    0.9132    0.5703 C   0  0  0  0  0  0  0  0  0  0  0  0
    5.5519   -2.1666   -0.4843 H   0  0  0  0  0  0  0  0  0  0  0  0
    6.6351   -2.1242   -1.8963 H   0  0  0  0  0  0  0  0  0  0  0  0
    7.2456   -1.5570   -0.2910 H   0  0  0  0  0  0  0  0  0  0  0  0
    6.5914    1.4976   -2.3330 H   0  0  0  0  0  0  0  0  0  0  0  0
    7.2605   -0.0504   -2.9185 H   0  0  0  0  0  0  0  0  0  0  0  0
    7.8546    0.6437   -1.3532 H   0  0  0  0  0  0  0  0  0  0  0  0
    5.5180    1.6157   -0.2504 H   0  0  0  0  0  0  0  0  0  0  0  0
    6.2217    0.3236    0.7629 H   0  0  0  0  0  0  0  0  0  0  0  0
    4.0320   -0.9226    0.6676 H   0  0  0  0  0  0  0  0  0  0  0  0
    3.8456    0.7412    1.2952 H   0  0  0  0  0  0  0  0  0  0  0  0
    3.0945    1.5196   -0.9945 H   0  0  0  0  0  0  0  0  0  0  0  0
    3.2489   -0.1596   -1.6017 H   0  0  0  0  0  0  0  0  0  0  0  0
    1.4497   -1.8805   -0.9090 H   0  0  0  0  0  0  0  0  0  0  0  0
   -1.9044    0.1186   -1.7538 H   0  0  0  0  0  0  0  0  0  0  0  0
   -4.5956    2.4464   -2.7101 H   0  0  0  0  0  0  0  0  0  0  0  0
   -2.8104    2.2269   -2.8357 H   0  0  0  0  0  0  0  0  0  0  0  0
   -3.5007    3.2026   -1.4796 H   0  0  0  0  0  0  0  0  0  0  0  0
   -6.1170    2.4672   -0.6476 H   0  0  0  0  0  0  0  0  0  0  0  0
   -7.6670    1.5817    1.0944 H   0  0  0  0  0  0  0  0  0  0  0  0
   -7.1303   -0.5298    2.2930 H   0  0  0  0  0  0  0  0  0  0  0  0
   -5.0397   -1.7790    1.7626 H   0  0  0  0  0  0  0  0  0  0  0  0
   -2.0977   -5.3426    0.6438 H   0  0  0  0  0  0  0  0  0  0  0  0
   -2.0936    0.2549    2.0365 H   0  0  0  0  0  0  0  0  0  0  0  0
   -1.7120    2.5676    2.8764 H   0  0  0  0  0  0  0  0  0  0  0  0
    0.3574    3.7997    2.2594 H   0  0  0  0  0  0  0  0  0  0  0  0
    2.0670    2.7319    0.7971 H   0  0  0  0  0  0  0  0  0  0  0  0
  1  2  1  0
  2  3  1  0
  2  4  1  0
  4  5  1  0
  5  6  1  0
  6  7  1  0
  7  8  1  0
  8  9  2  0
  9 10  1  0
 10 11  2  0
 11 12  1  0
 12 13  2  0
 13 14  1  0
 14 15  1  0
 14 16  1  0
 16 17  2  0
 17 18  1  0
 18 19  2  0
 19 20  1  0
 20 21  2  0
 11 22  1  0
 22 23  2  0
 22 24  1  0
 24 25  1  0
 25 26  2  0
  9 27  1  0
 27 28  2  0
 28 29  1  0
 29 30  2  0
 30 31  1  0
 31 32  2  0
 32  7  1  0
 25 10  1  0
 32 27  1  0
 21 12  1  0
 21 16  1  0
  1 33  1  0
  1 34  1  0
  1 35  1  0
  3 36  1  0
  3 37  1  0
  3 38  1  0
  4 39  1  0
  4 40  1  0
  5 41  1  0
  5 42  1  0
  6 43  1  0
  6 44  1  0
  8 45  1  0
 13 46  1  0
 15 47  1  0
 15 48  1  0
 15 49  1  0
 17 50  1  0
 18 51  1  0
 19 52  1  0
 20 53  1  0
 24 54  1  0
 28 55  1  0
 29 56  1  0
 30 57  1  0
 31 58  1  0
M  END
$$$$
