
     RDKit          3D

 50 51  0  0  0  0  0  0  0  0999 V2000
    6.7404    4.5718    0.4260 C   0  0  0  0  0  0  0  0  0  0  0  0
    5.7365    3.5744    0.9071 C   0  0  0  0  0  0  0  0  0  0  0  0
    4.9455    2.9279    0.0490 C   0  0  0  0  0  0  0  0  0  0  0  0
    3.9560    1.9454    0.5213 C   0  0  0  0  0  0  0  0  0  0  0  0
    3.1644    1.3004   -0.3410 C   0  0  0  0  0  0  0  0  0  0  0  0
    2.1625    0.3140    0.0926 C   0  0  0  0  0  0  0  0  0  0  0  0
    2.0193    0.0351    1.3155 O   0  0  0  0  0  0  0  0  0  0  0  0
    1.3688   -0.3108   -0.8756 O   0  0  0  0  0  0  0  0  0  0  0  0
    0.3410   -1.2512   -0.5612 C   0  0  2  0  0  0  0  0  0  0  0  0
   -0.1276   -1.9320   -1.8576 C   0  0  0  0  0  0  0  0  0  0  0  0
   -1.1645   -2.9979   -1.5889 C   0  0  0  0  0  0  0  0  0  0  0  0
   -0.8823   -4.2844   -1.2876 C   0  0  0  0  0  0  0  0  0  0  0  0
   -2.0268   -5.2191   -0.9922 C   0  0  0  0  0  0  0  0  0  0  0  0
    0.5340   -4.8091   -1.2581 C   0  0  0  0  0  0  0  0  0  0  0  0
   -0.8166   -0.5562    0.1410 C   0  0  0  0  0  0  0  0  0  0  0  0
   -1.2926   -1.0611    1.2876 C   0  0  0  0  0  0  0  0  0  0  0  0
   -2.4106   -0.4283    2.0011 C   0  0  0  0  0  0  0  0  0  0  0  0
   -2.7549   -0.8976    3.1187 O   0  0  0  0  0  0  0  0  0  0  0  0
   -3.1262    0.7270    1.3971 C   0  0  0  0  0  0  0  0  0  0  0  0
   -4.2292    1.3286    2.0447 C   0  0  0  0  0  0  0  0  0  0  0  0
   -4.6643    0.8726    3.2894 O   0  0  0  0  0  0  0  0  0  0  0  0
   -4.8959    2.3964    1.4386 C   0  0  0  0  0  0  0  0  0  0  0  0
   -4.5075    2.8474    0.1820 C   0  0  0  0  0  0  0  0  0  0  0  0
   -3.4400    2.2518   -0.4925 C   0  0  0  0  0  0  0  0  0  0  0  0
   -3.1872    2.6925   -1.7938 O   0  0  0  0  0  0  0  0  0  0  0  0
   -2.6924    1.2208    0.1401 C   0  0  0  0  0  0  0  0  0  0  0  0
   -1.4330    0.6659   -0.4378 C   0  0  0  0  0  0  0  0  0  0  0  0
   -0.8368    1.2649   -1.3717 O   0  0  0  0  0  0  0  0  0  0  0  0
    7.4649    4.0811   -0.2579 H   0  0  0  0  0  0  0  0  0  0  0  0
    7.2935    4.9943    1.2909 H   0  0  0  0  0  0  0  0  0  0  0  0
    6.2273    5.3982   -0.1099 H   0  0  0  0  0  0  0  0  0  0  0  0
    5.6610    3.3837    1.9716 H   0  0  0  0  0  0  0  0  0  0  0  0
    5.0321    3.1290   -1.0135 H   0  0  0  0  0  0  0  0  0  0  0  0
    3.8751    1.7495    1.5847 H   0  0  0  0  0  0  0  0  0  0  0  0
    3.2487    1.5012   -1.4027 H   0  0  0  0  0  0  0  0  0  0  0  0
    0.7848   -2.0322    0.0952 H   0  0  0  0  0  0  0  0  0  0  0  0
   -0.5728   -1.1721   -2.5351 H   0  0  0  0  0  0  0  0  0  0  0  0
    0.7446   -2.3573   -2.3972 H   0  0  0  0  0  0  0  0  0  0  0  0
   -2.2045   -2.6808   -1.6121 H   0  0  0  0  0  0  0  0  0  0  0  0
   -1.6723   -6.2462   -0.7663 H   0  0  0  0  0  0  0  0  0  0  0  0
   -2.7056   -5.2710   -1.8697 H   0  0  0  0  0  0  0  0  0  0  0  0
   -2.5964   -4.8472   -0.1141 H   0  0  0  0  0  0  0  0  0  0  0  0
    1.1370   -4.2536   -0.5120 H   0  0  0  0  0  0  0  0  0  0  0  0
    0.9973   -4.7064   -2.2615 H   0  0  0  0  0  0  0  0  0  0  0  0
    0.5633   -5.8834   -0.9815 H   0  0  0  0  0  0  0  0  0  0  0  0
   -0.8477   -1.9502    1.7192 H   0  0  0  0  0  0  0  0  0  0  0  0
   -5.4528    1.2941    3.7666 H   0  0  0  0  0  0  0  0  0  0  0  0
   -5.7370    2.8651    1.9338 H   0  0  0  0  0  0  0  0  0  0  0  0
   -5.0627    3.6492   -0.2887 H   0  0  0  0  0  0  0  0  0  0  0  0
   -2.6581    2.1656   -2.4738 H   0  0  0  0  0  0  0  0  0  0  0  0
  1  2  1  0
  2  3  2  0
  3  4  1  0
  4  5  2  0
  5  6  1  0
  6  7  2  0
  6  8  1  0
  8  9  1  0
  9 10  1  0
 10 11  1  0
 11 12  2  3
 12 13  1  0
 12 14  1  0
  9 15  1  0
 15 16  2  0
 16 17  1  0
 17 18  2  0
 17 19  1  0
 19 20  2  0
 20 21  1  0
 20 22  1  0
 22 23  2  0
 23 24  1  0
 24 25  1  0
 24 26  2  0
 26 27  1  0
 27 28  2  0
 27 15  1  0
 26 19  1  0
  1 29  1  0
  1 30  1  0
  1 31  1  0
  2 32  1  0
  3 33  1  0
  4 34  1  0
  5 35  1  0
  9 36  1  1
 10 37  1  0
 10 38  1  0
 11 39  1  0
 13 40  1  0
 13 41  1  0
 13 42  1  0
 14 43  1  0
 14 44  1  0
 14 45  1  0
 16 46  1  0
 21 47  1  0
 22 48  1  0
 23 49  1  0
 25 50  1  0
M  END
$$$$
