
     RDKit          3D

 45 48  0  0  0  0  0  0  0  0999 V2000
    4.3463    2.0665   -0.6087 C   0  0  0  0  0  0  0  0  0  0  0  0
    3.0799    2.4189    0.0570 N   0  0  0  0  0  0  0  0  0  0  0  0
    1.9263    2.2958   -0.8562 C   0  0  0  0  0  0  0  0  0  0  0  0
    1.4592    0.8738   -1.0357 C   0  0  0  0  0  0  0  0  0  0  0  0
    1.7188   -0.0886   -0.1367 C   0  0  0  0  0  0  0  0  0  0  0  0
    1.1054   -1.4281   -0.3017 C   0  0  0  0  0  0  0  0  0  0  0  0
    1.9086   -2.5573   -0.5196 C   0  0  0  0  0  0  0  0  0  0  0  0
    3.2942   -2.4273   -0.6141 O   0  0  0  0  0  0  0  0  0  0  0  0
    1.3177   -3.8142   -0.6687 C   0  0  0  0  0  0  0  0  0  0  0  0
   -0.0699   -3.9761   -0.6188 C   0  0  0  0  0  0  0  0  0  0  0  0
   -0.5578   -5.2604   -0.8773 O   0  0  0  0  0  0  0  0  0  0  0  0
   -0.8994   -2.8515   -0.3428 C   0  0  0  0  0  0  0  0  0  0  0  0
   -2.2998   -2.9191   -0.1430 C   0  0  0  0  0  0  0  0  0  0  0  0
   -2.9188   -4.0145   -0.1246 O   0  0  0  0  0  0  0  0  0  0  0  0
   -3.0260   -1.7495    0.0832 C   0  0  0  0  0  0  0  0  0  0  0  0
   -2.3564   -0.5226    0.1406 C   0  0  0  0  0  0  0  0  0  0  0  0
   -3.0727    0.7521    0.3813 C   0  0  0  0  0  0  0  0  0  0  0  0
   -2.4437    1.7530    1.1441 C   0  0  0  0  0  0  0  0  0  0  0  0
   -3.0851    2.9711    1.3846 C   0  0  0  0  0  0  0  0  0  0  0  0
   -4.3552    3.2095    0.8574 C   0  0  0  0  0  0  0  0  0  0  0  0
   -4.9827    2.2339    0.0799 C   0  0  0  0  0  0  0  0  0  0  0  0
   -4.3481    1.0114   -0.1663 C   0  0  0  0  0  0  0  0  0  0  0  0
   -4.9593    0.1142   -0.9803 F   0  0  0  0  0  0  0  0  0  0  0  0
   -1.0360   -0.4939    0.0124 O   0  0  0  0  0  0  0  0  0  0  0  0
   -0.2918   -1.5736   -0.2127 C   0  0  0  0  0  0  0  0  0  0  0  0
    2.6534    0.1547    1.0231 C   0  0  0  0  0  0  0  0  0  0  0  0
    2.8606    1.6513    1.2981 C   0  0  0  0  0  0  0  0  0  0  0  0
    4.3038    1.0526   -1.0623 H   0  0  0  0  0  0  0  0  0  0  0  0
    5.1892    2.1074    0.1141 H   0  0  0  0  0  0  0  0  0  0  0  0
    4.5637    2.8032   -1.4109 H   0  0  0  0  0  0  0  0  0  0  0  0
    1.0801    2.8881   -0.4467 H   0  0  0  0  0  0  0  0  0  0  0  0
    2.1672    2.7313   -1.8508 H   0  0  0  0  0  0  0  0  0  0  0  0
    0.7916    0.6673   -1.8644 H   0  0  0  0  0  0  0  0  0  0  0  0
    3.8943   -3.2272   -0.7781 H   0  0  0  0  0  0  0  0  0  0  0  0
    1.9437   -4.6767   -0.8625 H   0  0  0  0  0  0  0  0  0  0  0  0
   -1.5049   -5.4707   -1.1535 H   0  0  0  0  0  0  0  0  0  0  0  0
   -4.0931   -1.8089    0.2582 H   0  0  0  0  0  0  0  0  0  0  0  0
   -1.4588    1.5875    1.5644 H   0  0  0  0  0  0  0  0  0  0  0  0
   -2.5959    3.7311    1.9800 H   0  0  0  0  0  0  0  0  0  0  0  0
   -4.8495    4.1544    1.0428 H   0  0  0  0  0  0  0  0  0  0  0  0
   -5.9592    2.4310   -0.3437 H   0  0  0  0  0  0  0  0  0  0  0  0
    2.2423   -0.3256    1.9372 H   0  0  0  0  0  0  0  0  0  0  0  0
    3.6361   -0.3151    0.8103 H   0  0  0  0  0  0  0  0  0  0  0  0
    3.7188    1.7890    1.9917 H   0  0  0  0  0  0  0  0  0  0  0  0
    1.9630    2.0520    1.8197 H   0  0  0  0  0  0  0  0  0  0  0  0
  1  2  1  0
  2  3  1  0
  3  4  1  0
  4  5  2  0
  5  6  1  0
  6  7  2  0
  7  8  1  0
  7  9  1  0
  9 10  2  0
 10 11  1  0
 10 12  1  0
 12 13  1  0
 13 14  2  0
 13 15  1  0
 15 16  2  0
 16 17  1  0
 17 18  2  0
 18 19  1  0
 19 20  2  0
 20 21  1  0
 21 22  2  0
 22 23  1  0
 16 24  1  0
 24 25  1  0
  5 26  1  0
 26 27  1  0
 27  2  1  0
 25  6  1  0
 25 12  2  0
 22 17  1  0
  1 28  1  0
  1 29  1  0
  1 30  1  0
  3 31  1  0
  3 32  1  0
  4 33  1  0
  8 34  1  0
  9 35  1  0
 11 36  1  0
 15 37  1  0
 18 38  1  0
 19 39  1  0
 20 40  1  0
 21 41  1  0
 26 42  1  0
 26 43  1  0
 27 44  1  0
 27 45  1  0
M  END
$$$$
