
     RDKit          3D

 43 45  0  0  0  0  0  0  0  0999 V2000
    4.4802    0.4172   -2.5765 C   0  0  0  0  0  0  0  0  0  0  0  0
    3.6063   -0.3288   -1.6221 C   0  0  0  0  0  0  0  0  0  0  0  0
    2.6040   -1.1479   -2.0031 N   0  0  0  0  0  0  0  0  0  0  0  0
    2.0777   -1.6378   -0.9169 O   0  0  0  0  0  0  0  0  0  0  0  0
    2.6904   -1.1776    0.1487 C   0  0  0  0  0  0  0  0  0  0  0  0
    2.3570   -1.5339    1.4923 N   0  0  0  0  0  0  0  0  0  0  0  0
    0.9834   -2.5293    1.8365 S   0  0  0  0  0  6  0  0  0  0  0  0
    1.3008   -3.9433    1.4370 O   0  0  0  0  0  0  0  0  0  0  0  0
    0.6942   -2.4995    3.3110 O   0  0  0  0  0  0  0  0  0  0  0  0
   -0.4331   -1.9254    0.9553 C   0  0  0  0  0  0  0  0  0  0  0  0
   -1.0877   -2.7997    0.0755 C   0  0  0  0  0  0  0  0  0  0  0  0
   -2.1854   -2.3749   -0.6674 C   0  0  0  0  0  0  0  0  0  0  0  0
   -2.6477   -1.0673   -0.5545 C   0  0  0  0  0  0  0  0  0  0  0  0
   -2.0153   -0.1574    0.3119 C   0  0  0  0  0  0  0  0  0  0  0  0
   -2.4800    1.1745    0.4278 C   0  0  0  0  0  0  0  0  0  0  0  0
   -3.5785    1.6522   -0.3640 N   0  0  0  0  0  0  0  0  0  0  0  0
   -3.3679    2.0167   -1.7644 C   0  0  0  0  0  0  0  0  0  0  0  0
   -4.8683    1.9043    0.2752 C   0  0  0  0  0  0  0  0  0  0  0  0
   -1.8540    2.0545    1.3169 C   0  0  0  0  0  0  0  0  0  0  0  0
   -0.7729    1.6323    2.0847 C   0  0  0  0  0  0  0  0  0  0  0  0
   -0.2974    0.3265    1.9752 C   0  0  0  0  0  0  0  0  0  0  0  0
   -0.9018   -0.5901    1.0891 C   0  0  0  0  0  0  0  0  0  0  0  0
    3.6888   -0.3124   -0.2417 C   0  0  0  0  0  0  0  0  0  0  0  0
    4.6741    0.4054    0.6258 C   0  0  0  0  0  0  0  0  0  0  0  0
    4.1683    0.2133   -3.6225 H   0  0  0  0  0  0  0  0  0  0  0  0
    5.5348    0.0965   -2.4453 H   0  0  0  0  0  0  0  0  0  0  0  0
    4.3998    1.5075   -2.3842 H   0  0  0  0  0  0  0  0  0  0  0  0
    2.9223   -1.1647    2.2883 H   0  0  0  0  0  0  0  0  0  0  0  0
   -0.7482   -3.8202   -0.0430 H   0  0  0  0  0  0  0  0  0  0  0  0
   -2.6805   -3.0646   -1.3388 H   0  0  0  0  0  0  0  0  0  0  0  0
   -3.5068   -0.7769   -1.1451 H   0  0  0  0  0  0  0  0  0  0  0  0
   -2.3665    1.6844   -2.1143 H   0  0  0  0  0  0  0  0  0  0  0  0
   -3.4380    3.1192   -1.8766 H   0  0  0  0  0  0  0  0  0  0  0  0
   -4.1406    1.5334   -2.3991 H   0  0  0  0  0  0  0  0  0  0  0  0
   -4.7476    2.6428    1.0954 H   0  0  0  0  0  0  0  0  0  0  0  0
   -5.6022    2.3055   -0.4564 H   0  0  0  0  0  0  0  0  0  0  0  0
   -5.2677    0.9563    0.6927 H   0  0  0  0  0  0  0  0  0  0  0  0
   -2.2034    3.0755    1.4069 H   0  0  0  0  0  0  0  0  0  0  0  0
   -0.2974    2.3233    2.7690 H   0  0  0  0  0  0  0  0  0  0  0  0
    0.5397    0.0502    2.5983 H   0  0  0  0  0  0  0  0  0  0  0  0
    4.1469    0.8806    1.4791 H   0  0  0  0  0  0  0  0  0  0  0  0
    5.1984    1.1972    0.0519 H   0  0  0  0  0  0  0  0  0  0  0  0
    5.4217   -0.3174    1.0131 H   0  0  0  0  0  0  0  0  0  0  0  0
  1  2  1  0
  2  3  2  0
  3  4  1  0
  4  5  1  0
  5  6  1  0
  6  7  1  0
  7  8  2  0
  7  9  2  0
  7 10  1  0
 10 11  2  0
 11 12  1  0
 12 13  2  0
 13 14  1  0
 14 15  2  0
 15 16  1  0
 16 17  1  0
 16 18  1  0
 15 19  1  0
 19 20  2  0
 20 21  1  0
 21 22  2  0
  5 23  2  0
 23 24  1  0
 23  2  1  0
 22 10  1  0
 22 14  1  0
  1 25  1  0
  1 26  1  0
  1 27  1  0
  6 28  1  0
 11 29  1  0
 12 30  1  0
 13 31  1  0
 17 32  1  0
 17 33  1  0
 17 34  1  0
 18 35  1  0
 18 36  1  0
 18 37  1  0
 19 38  1  0
 20 39  1  0
 21 40  1  0
 24 41  1  0
 24 42  1  0
 24 43  1  0
M  END
$$$$
