
     RDKit          3D

 54 57  0  0  0  0  0  0  0  0999 V2000
    7.5586   -0.3234    2.0385 C   0  0  0  0  0  0  0  0  0  0  0  0
    6.5981    0.4538    1.1884 C   0  0  0  0  0  0  0  0  0  0  0  0
    5.2176    0.3849    1.4357 C   0  0  0  0  0  0  0  0  0  0  0  0
    4.3208    1.0786    0.6176 C   0  0  0  0  0  0  0  0  0  0  0  0
    4.7935    1.8322   -0.4636 C   0  0  0  0  0  0  0  0  0  0  0  0
    3.6423    2.7213   -1.5132 S   0  0  0  0  0  0  0  0  0  0  0  0
    3.4970    1.3612   -2.6788 C   0  0  0  0  0  0  0  0  0  0  0  0
    4.3923    1.2633   -3.7600 C   0  0  0  0  0  0  0  0  0  0  0  0
    4.2945    0.2317   -4.6517 N   0  0  0  0  0  0  0  0  0  0  0  0
    3.3395   -0.7331   -4.5355 C   0  0  0  0  0  0  0  0  0  0  0  0
    2.4428   -0.6535   -3.4770 C   0  0  0  0  0  0  0  0  0  0  0  0
    1.1735   -1.6830   -3.1022 S   0  0  0  0  0  0  0  0  0  0  0  0
    0.6835   -0.8181   -1.7310 C   0  0  0  0  0  0  0  0  0  0  0  0
   -0.4592   -1.1919   -0.8775 C   0  0  0  0  0  0  0  0  0  0  0  0
   -1.2384   -2.1051   -1.2638 O   0  0  0  0  0  0  0  0  0  0  0  0
   -0.6850   -0.5454    0.3856 N   0  0  0  0  0  0  0  0  0  0  0  0
   -1.8609   -0.8250    1.2080 C   0  0  0  0  0  0  0  0  0  0  0  0
   -3.0984   -0.1370    0.6218 C   0  0  0  0  0  0  0  0  0  0  0  0
   -4.3397   -0.3984    1.4818 C   0  0  0  0  0  0  0  0  0  0  0  0
   -5.4976    0.3490    0.9386 N   0  0  0  0  0  0  0  0  0  0  0  0
   -6.2378   -0.4102   -0.0938 C   0  0  0  0  0  0  0  0  0  0  0  0
   -7.1784   -1.4639    0.5232 C   0  0  0  0  0  0  0  0  0  0  0  0
   -8.0500   -0.8805    1.4703 O   0  0  0  0  0  0  0  0  0  0  0  0
   -7.2956   -0.3136    2.5217 C   0  0  0  0  0  0  0  0  0  0  0  0
   -6.4153    0.8262    1.9923 C   0  0  0  0  0  0  0  0  0  0  0  0
    1.5136    0.2952   -1.5676 C   0  0  0  0  0  0  0  0  0  0  0  0
    2.5070    0.3762   -2.5537 C   0  0  0  0  0  0  0  0  0  0  0  0
    6.1683    1.8958   -0.7190 C   0  0  0  0  0  0  0  0  0  0  0  0
    7.0670    1.2026    0.0975 C   0  0  0  0  0  0  0  0  0  0  0  0
    7.7222   -1.3246    1.5884 H   0  0  0  0  0  0  0  0  0  0  0  0
    8.5330    0.2049    2.1095 H   0  0  0  0  0  0  0  0  0  0  0  0
    7.1606   -0.4495    3.0681 H   0  0  0  0  0  0  0  0  0  0  0  0
    4.8360   -0.2030    2.2615 H   0  0  0  0  0  0  0  0  0  0  0  0
    3.2605    1.0282    0.8271 H   0  0  0  0  0  0  0  0  0  0  0  0
    5.1684    2.0058   -3.8901 H   0  0  0  0  0  0  0  0  0  0  0  0
    3.2832   -1.5386   -5.2560 H   0  0  0  0  0  0  0  0  0  0  0  0
    0.0464    0.0846    0.7836 H   0  0  0  0  0  0  0  0  0  0  0  0
   -1.6816   -0.4405    2.2363 H   0  0  0  0  0  0  0  0  0  0  0  0
   -2.0206   -1.9234    1.2778 H   0  0  0  0  0  0  0  0  0  0  0  0
   -2.9148    0.9589    0.5701 H   0  0  0  0  0  0  0  0  0  0  0  0
   -3.2726   -0.5091   -0.4095 H   0  0  0  0  0  0  0  0  0  0  0  0
   -4.1052   -0.0690    2.5189 H   0  0  0  0  0  0  0  0  0  0  0  0
   -4.5404   -1.4906    1.5275 H   0  0  0  0  0  0  0  0  0  0  0  0
   -5.5394   -0.9066   -0.8011 H   0  0  0  0  0  0  0  0  0  0  0  0
   -6.8456    0.3029   -0.6927 H   0  0  0  0  0  0  0  0  0  0  0  0
   -7.7929   -1.9031   -0.2909 H   0  0  0  0  0  0  0  0  0  0  0  0
   -6.6068   -2.3044    0.9758 H   0  0  0  0  0  0  0  0  0  0  0  0
   -7.9986    0.1016    3.2743 H   0  0  0  0  0  0  0  0  0  0  0  0
   -6.6802   -1.0850    3.0382 H   0  0  0  0  0  0  0  0  0  0  0  0
   -7.0706    1.6176    1.5669 H   0  0  0  0  0  0  0  0  0  0  0  0
   -5.8552    1.2983    2.8293 H   0  0  0  0  0  0  0  0  0  0  0  0
    1.3924    1.0286   -0.7836 H   0  0  0  0  0  0  0  0  0  0  0  0
    6.5411    2.4748   -1.5541 H   0  0  0  0  0  0  0  0  0  0  0  0
    8.1272    1.2516   -0.1198 H   0  0  0  0  0  0  0  0  0  0  0  0
  1  2  1  0
  2  3  2  0
  3  4  1  0
  4  5  2  0
  5  6  1  0
  6  7  1  0
  7  8  2  0
  8  9  1  0
  9 10  2  0
 10 11  1  0
 11 12  1  0
 12 13  1  0
 13 14  1  0
 14 15  2  0
 14 16  1  0
 16 17  1  0
 17 18  1  0
 18 19  1  0
 19 20  1  0
 20 21  1  0
 21 22  1  0
 22 23  1  0
 23 24  1  0
 24 25  1  0
 13 26  2  0
 26 27  1  0
  5 28  1  0
 28 29  2  0
 29  2  1  0
 27  7  1  0
 27 11  2  0
 25 20  1  0
  1 30  1  0
  1 31  1  0
  1 32  1  0
  3 33  1  0
  4 34  1  0
  8 35  1  0
 10 36  1  0
 16 37  1  0
 17 38  1  0
 17 39  1  0
 18 40  1  0
 18 41  1  0
 19 42  1  0
 19 43  1  0
 21 44  1  0
 21 45  1  0
 22 46  1  0
 22 47  1  0
 24 48  1  0
 24 49  1  0
 25 50  1  0
 25 51  1  0
 26 52  1  0
 28 53  1  0
 29 54  1  0
M  END
$$$$
