
     RDKit          3D

 45 47  0  0  0  0  0  0  0  0999 V2000
   -6.1725    0.4690   -1.3892 C   0  0  0  0  0  0  0  0  0  0  0  0
   -5.2402   -0.7160   -1.6239 C   0  0  0  0  0  0  0  0  0  0  0  0
   -4.4678   -1.0511   -0.3758 C   0  0  0  0  0  0  0  0  0  0  0  0
   -4.9229   -2.0668    0.4084 N   0  0  0  0  0  0  0  0  0  0  0  0
   -4.2946   -2.4240    1.5568 C   0  0  0  0  0  0  0  0  0  0  0  0
   -4.9772   -3.8604    2.6093 Br  0  0  0  0  0  0  0  0  0  0  0  0
   -3.1531   -1.7325    1.9543 C   0  0  0  0  0  0  0  0  0  0  0  0
   -2.6948   -0.7108    1.1885 N   0  0  0  0  0  0  0  0  0  0  0  0
   -3.3154   -0.3378    0.0346 C   0  0  0  0  0  0  0  0  0  0  0  0
   -2.7805    0.7541   -0.7336 N   0  0  0  0  0  0  0  0  0  0  0  0
   -1.3680    1.6239   -0.2248 S   0  0  0  0  0  6  0  0  0  0  0  0
   -1.5496    2.0335    1.2105 O   0  0  0  0  0  0  0  0  0  0  0  0
   -1.2320    2.8549   -1.0760 O   0  0  0  0  0  0  0  0  0  0  0  0
    0.0941    0.6324   -0.4007 C   0  0  0  0  0  0  0  0  0  0  0  0
   -0.0200   -0.6163   -1.0302 C   0  0  0  0  0  0  0  0  0  0  0  0
    1.0868   -1.4472   -1.1754 C   0  0  0  0  0  0  0  0  0  0  0  0
    2.3319   -1.0506   -0.6980 C   0  0  0  0  0  0  0  0  0  0  0  0
    2.4924    0.1974   -0.0698 C   0  0  0  0  0  0  0  0  0  0  0  0
    3.7602    0.6089    0.4066 C   0  0  0  0  0  0  0  0  0  0  0  0
    4.9050   -0.2560    0.3137 N   0  0  0  0  0  0  0  0  0  0  0  0
    5.0714   -1.3119    1.3112 C   0  0  0  0  0  0  0  0  0  0  0  0
    6.0778    0.1890   -0.4370 C   0  0  0  0  0  0  0  0  0  0  0  0
    3.9057    1.8733    0.9898 C   0  0  0  0  0  0  0  0  0  0  0  0
    2.8127    2.7259    1.1098 C   0  0  0  0  0  0  0  0  0  0  0  0
    1.5555    2.3295    0.6566 C   0  0  0  0  0  0  0  0  0  0  0  0
    1.3668    1.0615    0.0674 C   0  0  0  0  0  0  0  0  0  0  0  0
   -6.7351    0.6887   -2.3209 H   0  0  0  0  0  0  0  0  0  0  0  0
   -6.8992    0.2308   -0.5832 H   0  0  0  0  0  0  0  0  0  0  0  0
   -5.5960    1.3733   -1.1021 H   0  0  0  0  0  0  0  0  0  0  0  0
   -4.5544   -0.5093   -2.4717 H   0  0  0  0  0  0  0  0  0  0  0  0
   -5.8542   -1.5933   -1.9232 H   0  0  0  0  0  0  0  0  0  0  0  0
   -2.6341   -1.9999    2.8649 H   0  0  0  0  0  0  0  0  0  0  0  0
   -3.2300    1.0672   -1.6201 H   0  0  0  0  0  0  0  0  0  0  0  0
   -0.9693   -0.9567   -1.4193 H   0  0  0  0  0  0  0  0  0  0  0  0
    0.9784   -2.4072   -1.6638 H   0  0  0  0  0  0  0  0  0  0  0  0
    3.1693   -1.7225   -0.8360 H   0  0  0  0  0  0  0  0  0  0  0  0
    4.0837   -1.6732    1.6698 H   0  0  0  0  0  0  0  0  0  0  0  0
    5.6153   -2.1724    0.8676 H   0  0  0  0  0  0  0  0  0  0  0  0
    5.6470   -0.9208    2.1764 H   0  0  0  0  0  0  0  0  0  0  0  0
    6.6238   -0.6876   -0.8452 H   0  0  0  0  0  0  0  0  0  0  0  0
    6.7554    0.7637    0.2290 H   0  0  0  0  0  0  0  0  0  0  0  0
    5.7704    0.8327   -1.2891 H   0  0  0  0  0  0  0  0  0  0  0  0
    4.8715    2.1945    1.3591 H   0  0  0  0  0  0  0  0  0  0  0  0
    2.9399    3.7023    1.5598 H   0  0  0  0  0  0  0  0  0  0  0  0
    0.7457    3.0350    0.7648 H   0  0  0  0  0  0  0  0  0  0  0  0
  1  2  1  0
  2  3  1  0
  3  4  2  0
  4  5  1  0
  5  6  1  0
  5  7  2  0
  7  8  1  0
  8  9  2  0
  9 10  1  0
 10 11  1  0
 11 12  2  0
 11 13  2  0
 11 14  1  0
 14 15  2  0
 15 16  1  0
 16 17  2  0
 17 18  1  0
 18 19  2  0
 19 20  1  0
 20 21  1  0
 20 22  1  0
 19 23  1  0
 23 24  2  0
 24 25  1  0
 25 26  2  0
  9  3  1  0
 26 14  1  0
 26 18  1  0
  1 27  1  0
  1 28  1  0
  1 29  1  0
  2 30  1  0
  2 31  1  0
  7 32  1  0
 10 33  1  0
 15 34  1  0
 16 35  1  0
 17 36  1  0
 21 37  1  0
 21 38  1  0
 21 39  1  0
 22 40  1  0
 22 41  1  0
 22 42  1  0
 23 43  1  0
 24 44  1  0
 25 45  1  0
M  END
$$$$
