
     RDKit          3D

 53 56  0  0  0  0  0  0  0  0999 V2000
    2.9140    2.4362    1.1956 C   0  0  0  0  0  0  0  0  0  0  0  0
    1.7710    2.2117    0.2006 C   0  0  0  0  0  0  0  0  0  0  0  0
    0.4508    2.7552    0.7783 C   0  0  0  0  0  0  0  0  0  0  0  0
   -0.7159    2.3568   -0.0845 C   0  0  0  0  0  0  0  0  0  0  0  0
   -1.3897    3.3235   -0.8637 C   0  0  0  0  0  0  0  0  0  0  0  0
   -2.4643    2.9032   -1.6396 C   0  0  0  0  0  0  0  0  0  0  0  0
   -2.8686    1.6095   -1.6687 C   0  0  0  0  0  0  0  0  0  0  0  0
   -2.2329    0.6207   -0.9258 C   0  0  0  0  0  0  0  0  0  0  0  0
   -1.1349    0.9968   -0.1196 C   0  0  0  0  0  0  0  0  0  0  0  0
   -0.4042   -0.0317    0.6649 C   0  0  0  0  0  0  0  0  0  0  0  0
   -1.1440   -1.0111    1.5044 C   0  0  0  0  0  0  0  0  0  0  0  0
   -0.5836   -2.2679    1.8001 C   0  0  0  0  0  0  0  0  0  0  0  0
   -1.2733   -3.1838    2.5994 C   0  0  0  0  0  0  0  0  0  0  0  0
   -2.5304   -2.8579    3.1235 C   0  0  0  0  0  0  0  0  0  0  0  0
   -3.2333   -3.7950    3.9438 N   0  0  0  0  0  0  0  0  0  0  0  0
   -3.0917   -1.6062    2.8424 C   0  0  0  0  0  0  0  0  0  0  0  0
   -2.4047   -0.6889    2.0422 C   0  0  0  0  0  0  0  0  0  0  0  0
    0.8972   -0.0991    0.6090 N   0  0  0  0  0  0  0  0  0  0  0  0
    1.6948    0.7764   -0.1562 N   0  0  0  0  0  0  0  0  0  0  0  0
    2.6388    0.2416   -1.1191 C   0  0  0  0  0  0  0  0  0  0  0  0
    3.3259    1.0531   -1.8029 O   0  0  0  0  0  0  0  0  0  0  0  0
    2.8438   -1.2637   -1.3440 C   0  0  0  0  0  0  0  0  0  0  0  0
    3.9082   -1.5010   -2.4442 C   0  0  0  0  0  0  0  0  0  0  0  0
    1.5324   -1.9294   -1.8143 C   0  0  0  0  0  0  0  0  0  0  0  0
    3.3549   -1.9304   -0.0499 C   0  0  0  0  0  0  0  0  0  0  0  0
   -3.9489    1.4835   -2.5208 O   0  0  0  0  0  0  0  0  0  0  0  0
   -4.2429    2.7808   -3.0583 C   0  0  0  0  0  0  0  0  0  0  0  0
   -3.2706    3.6567   -2.4711 O   0  0  0  0  0  0  0  0  0  0  0  0
    3.8786    2.1138    0.7505 H   0  0  0  0  0  0  0  0  0  0  0  0
    2.7392    1.8521    2.1243 H   0  0  0  0  0  0  0  0  0  0  0  0
    2.9940    3.5137    1.4550 H   0  0  0  0  0  0  0  0  0  0  0  0
    1.9858    2.8092   -0.7135 H   0  0  0  0  0  0  0  0  0  0  0  0
    0.2890    2.3687    1.8089 H   0  0  0  0  0  0  0  0  0  0  0  0
    0.5141    3.8628    0.8609 H   0  0  0  0  0  0  0  0  0  0  0  0
   -1.0896    4.3636   -0.8628 H   0  0  0  0  0  0  0  0  0  0  0  0
   -2.5688   -0.4072   -0.9815 H   0  0  0  0  0  0  0  0  0  0  0  0
    0.3829   -2.5500    1.4055 H   0  0  0  0  0  0  0  0  0  0  0  0
   -0.8273   -4.1477    2.8103 H   0  0  0  0  0  0  0  0  0  0  0  0
   -2.8192   -4.7275    4.1653 H   0  0  0  0  0  0  0  0  0  0  0  0
   -4.1714   -3.5618    4.3389 H   0  0  0  0  0  0  0  0  0  0  0  0
   -4.0597   -1.3391    3.2475 H   0  0  0  0  0  0  0  0  0  0  0  0
   -2.8545    0.2787    1.8587 H   0  0  0  0  0  0  0  0  0  0  0  0
    4.0756   -2.5886   -2.6095 H   0  0  0  0  0  0  0  0  0  0  0  0
    3.5819   -1.0541   -3.4093 H   0  0  0  0  0  0  0  0  0  0  0  0
    4.8822   -1.0475   -2.1558 H   0  0  0  0  0  0  0  0  0  0  0  0
    1.7173   -2.9805   -2.1270 H   0  0  0  0  0  0  0  0  0  0  0  0
    0.7698   -1.9682   -1.0149 H   0  0  0  0  0  0  0  0  0  0  0  0
    1.1059   -1.3781   -2.6802 H   0  0  0  0  0  0  0  0  0  0  0  0
    2.6120   -1.8792    0.7685 H   0  0  0  0  0  0  0  0  0  0  0  0
    4.2861   -1.4325    0.3004 H   0  0  0  0  0  0  0  0  0  0  0  0
    3.5785   -3.0062   -0.2250 H   0  0  0  0  0  0  0  0  0  0  0  0
   -4.1334    2.7719   -4.1633 H   0  0  0  0  0  0  0  0  0  0  0  0
   -5.2670    3.0940   -2.7645 H   0  0  0  0  0  0  0  0  0  0  0  0
  1  2  1  0
  2  3  1  0
  3  4  1  0
  4  5  2  0
  5  6  1  0
  6  7  2  0
  7  8  1  0
  8  9  2  0
  9 10  1  0
 10 11  1  0
 11 12  2  0
 12 13  1  0
 13 14  2  0
 14 15  1  0
 14 16  1  0
 16 17  2  0
 10 18  2  0
 18 19  1  0
 19 20  1  0
 20 21  2  0
 20 22  1  0
 22 23  1  0
 22 24  1  0
 22 25  1  0
  7 26  1  0
 26 27  1  0
 27 28  1  0
 19  2  1  0
  9  4  1  0
 17 11  1  0
 28  6  1  0
  1 29  1  0
  1 30  1  0
  1 31  1  0
  2 32  1  0
  3 33  1  0
  3 34  1  0
  5 35  1  0
  8 36  1  0
 12 37  1  0
 13 38  1  0
 15 39  1  0
 15 40  1  0
 16 41  1  0
 17 42  1  0
 23 43  1  0
 23 44  1  0
 23 45  1  0
 24 46  1  0
 24 47  1  0
 24 48  1  0
 25 49  1  0
 25 50  1  0
 25 51  1  0
 27 52  1  0
 27 53  1  0
M  END
$$$$
