
     RDKit          3D

 45 48  0  0  0  0  0  0  0  0999 V2000
   -4.7699    1.4490    0.7757 C   0  0  0  0  0  0  0  0  0  0  0  0
   -3.4920    2.1195    0.4786 N   0  0  0  0  0  0  0  0  0  0  0  0
   -3.0556    1.8380   -0.9070 C   0  0  0  0  0  0  0  0  0  0  0  0
   -2.4779    0.4579   -1.0147 C   0  0  0  0  0  0  0  0  0  0  0  0
   -1.6254    0.0461   -0.0733 C   0  0  0  0  0  0  0  0  0  0  0  0
   -1.0290   -1.3120   -0.1218 C   0  0  0  0  0  0  0  0  0  0  0  0
   -1.8566   -2.4494   -0.1665 C   0  0  0  0  0  0  0  0  0  0  0  0
   -3.2449   -2.3084   -0.1515 O   0  0  0  0  0  0  0  0  0  0  0  0
   -1.2896   -3.7274   -0.2083 C   0  0  0  0  0  0  0  0  0  0  0  0
    0.0996   -3.8983   -0.1960 C   0  0  0  0  0  0  0  0  0  0  0  0
    0.6289   -5.1890   -0.2354 O   0  0  0  0  0  0  0  0  0  0  0  0
    0.9448   -2.7673   -0.1436 C   0  0  0  0  0  0  0  0  0  0  0  0
    2.3518   -2.8617   -0.1355 C   0  0  0  0  0  0  0  0  0  0  0  0
    2.9360   -3.9784   -0.1732 O   0  0  0  0  0  0  0  0  0  0  0  0
    3.1213   -1.6994   -0.0903 C   0  0  0  0  0  0  0  0  0  0  0  0
    2.4821   -0.4511   -0.0526 C   0  0  0  0  0  0  0  0  0  0  0  0
    3.2439    0.8222   -0.0071 C   0  0  0  0  0  0  0  0  0  0  0  0
    2.6542    1.9988   -0.5063 C   0  0  0  0  0  0  0  0  0  0  0  0
    3.3450    3.2134   -0.4629 C   0  0  0  0  0  0  0  0  0  0  0  0
    4.6276    3.2706    0.0855 C   0  0  0  0  0  0  0  0  0  0  0  0
    5.2200    2.1140    0.5965 C   0  0  0  0  0  0  0  0  0  0  0  0
    4.5342    0.8960    0.5557 C   0  0  0  0  0  0  0  0  0  0  0  0
    1.1537   -0.3973   -0.0708 O   0  0  0  0  0  0  0  0  0  0  0  0
    0.3708   -1.4728   -0.1075 C   0  0  0  0  0  0  0  0  0  0  0  0
   -1.2344    1.0255    1.0019 C   0  0  0  0  0  0  0  0  0  0  0  0
   -2.4612    1.8163    1.5157 C   0  0  0  0  0  0  0  0  0  0  0  0
   -4.6521    0.3429    0.7685 H   0  0  0  0  0  0  0  0  0  0  0  0
   -5.5428    1.7392    0.0320 H   0  0  0  0  0  0  0  0  0  0  0  0
   -5.1431    1.7678    1.7726 H   0  0  0  0  0  0  0  0  0  0  0  0
   -2.2770    2.5767   -1.1963 H   0  0  0  0  0  0  0  0  0  0  0  0
   -3.8953    1.9572   -1.6264 H   0  0  0  0  0  0  0  0  0  0  0  0
   -2.7861   -0.1966   -1.8212 H   0  0  0  0  0  0  0  0  0  0  0  0
   -3.8622   -3.1116   -0.1776 H   0  0  0  0  0  0  0  0  0  0  0  0
   -1.9349   -4.5964   -0.2432 H   0  0  0  0  0  0  0  0  0  0  0  0
    0.0342   -6.0087   -0.2730 H   0  0  0  0  0  0  0  0  0  0  0  0
    4.2006   -1.7776   -0.1133 H   0  0  0  0  0  0  0  0  0  0  0  0
    1.6624    1.9777   -0.9411 H   0  0  0  0  0  0  0  0  0  0  0  0
    2.8849    4.1111   -0.8553 H   0  0  0  0  0  0  0  0  0  0  0  0
    5.1604    4.2122    0.1195 H   0  0  0  0  0  0  0  0  0  0  0  0
    6.2097    2.1624    1.0321 H   0  0  0  0  0  0  0  0  0  0  0  0
    5.0075    0.0251    0.9882 H   0  0  0  0  0  0  0  0  0  0  0  0
   -0.7538    0.4974    1.8542 H   0  0  0  0  0  0  0  0  0  0  0  0
   -0.4911    1.7364    0.5800 H   0  0  0  0  0  0  0  0  0  0  0  0
   -2.8965    1.2521    2.3723 H   0  0  0  0  0  0  0  0  0  0  0  0
   -2.1019    2.7781    1.9392 H   0  0  0  0  0  0  0  0  0  0  0  0
  1  2  1  0
  2  3  1  0
  3  4  1  0
  4  5  2  0
  5  6  1  0
  6  7  2  0
  7  8  1  0
  7  9  1  0
  9 10  2  0
 10 11  1  0
 10 12  1  0
 12 13  1  0
 13 14  2  0
 13 15  1  0
 15 16  2  0
 16 17  1  0
 17 18  2  0
 18 19  1  0
 19 20  2  0
 20 21  1  0
 21 22  2  0
 16 23  1  0
 23 24  1  0
  5 25  1  0
 25 26  1  0
 26  2  1  0
 24  6  1  0
 24 12  2  0
 22 17  1  0
  1 27  1  0
  1 28  1  0
  1 29  1  0
  3 30  1  0
  3 31  1  0
  4 32  1  0
  8 33  1  0
  9 34  1  0
 11 35  1  0
 15 36  1  0
 18 37  1  0
 19 38  1  0
 20 39  1  0
 21 40  1  0
 22 41  1  0
 25 42  1  0
 25 43  1  0
 26 44  1  0
 26 45  1  0
M  END
$$$$
