
     RDKit          3D

 56 60  0  0  0  0  0  0  0  0999 V2000
   -2.3301   -0.2383   -2.9188 C   0  0  0  0  0  0  0  0  0  0  0  0
   -1.0956   -0.7645   -2.9418 C   0  0  0  0  0  0  0  0  0  0  0  0
   -0.5257   -1.2892   -4.2332 C   0  0  0  0  0  0  0  0  0  0  0  0
    0.1020   -2.6583   -3.9760 C   0  0  0  0  0  0  0  0  0  0  0  0
    1.2459   -2.5714   -2.9527 C   0  0  0  0  0  0  0  0  0  0  0  0
    1.0531   -1.4900   -1.9731 N   0  0  0  0  0  0  0  0  0  0  0  0
    2.1600   -1.0875   -1.1443 C   0  0  0  0  0  0  0  0  0  0  0  0
    2.0413   -1.0879    0.2518 C   0  0  0  0  0  0  0  0  0  0  0  0
    3.0935   -0.6417    1.0574 C   0  0  0  0  0  0  0  0  0  0  0  0
    4.2921   -0.1937    0.4811 C   0  0  0  0  0  0  0  0  0  0  0  0
    5.4095    0.3111    1.3198 C   0  0  0  0  0  0  0  0  0  0  0  0
    6.5543    0.6313    0.8259 N   0  0  0  0  0  0  0  0  0  0  0  0
    7.4336    1.1333    1.8752 C   0  0  0  0  0  0  0  0  0  0  0  0
    6.5825    1.1145    3.1512 C   0  0  0  0  0  0  0  0  0  0  0  0
    5.3152    0.5606    2.7152 N   0  0  0  0  0  0  0  0  0  0  0  0
    4.4110   -0.2050   -0.9210 C   0  0  0  0  0  0  0  0  0  0  0  0
    3.3560   -0.6458   -1.7250 C   0  0  0  0  0  0  0  0  0  0  0  0
   -0.2873   -0.9544   -1.6799 C   0  0  0  0  0  0  0  0  0  0  0  0
   -3.0120    0.1874   -1.6807 C   0  0  0  0  0  0  0  0  0  0  0  0
   -4.1560   -0.4987   -1.2560 C   0  0  0  0  0  0  0  0  0  0  0  0
   -4.7969   -0.1357   -0.0675 C   0  0  0  0  0  0  0  0  0  0  0  0
   -4.3128    0.9323    0.7067 C   0  0  0  0  0  0  0  0  0  0  0  0
   -4.9608    1.2940    1.9885 C   0  0  0  0  0  0  0  0  0  0  0  0
   -4.7593    2.4270    2.5731 N   0  0  0  0  0  0  0  0  0  0  0  0
   -5.4956    2.4716    3.8301 C   0  0  0  0  0  0  0  0  0  0  0  0
   -6.1731    1.0981    3.9452 C   0  0  0  0  0  0  0  0  0  0  0  0
   -5.8085    0.4212    2.7198 N   0  0  0  0  0  0  0  0  0  0  0  0
   -3.1927    1.6500    0.2494 C   0  0  0  0  0  0  0  0  0  0  0  0
   -2.5506    1.2832   -0.9372 C   0  0  0  0  0  0  0  0  0  0  0  0
   -2.9100   -0.2149   -3.8304 H   0  0  0  0  0  0  0  0  0  0  0  0
    0.2478   -0.5837   -4.6092 H   0  0  0  0  0  0  0  0  0  0  0  0
   -1.3104   -1.3933   -5.0160 H   0  0  0  0  0  0  0  0  0  0  0  0
   -0.6779   -3.3515   -3.5982 H   0  0  0  0  0  0  0  0  0  0  0  0
    0.4845   -3.0784   -4.9287 H   0  0  0  0  0  0  0  0  0  0  0  0
    1.3292   -3.5367   -2.4139 H   0  0  0  0  0  0  0  0  0  0  0  0
    2.1940   -2.4140   -3.5060 H   0  0  0  0  0  0  0  0  0  0  0  0
    1.1291   -1.4360    0.7205 H   0  0  0  0  0  0  0  0  0  0  0  0
    2.9635   -0.6663    2.1277 H   0  0  0  0  0  0  0  0  0  0  0  0
    8.3150    0.4611    1.9785 H   0  0  0  0  0  0  0  0  0  0  0  0
    7.7665    2.1635    1.6289 H   0  0  0  0  0  0  0  0  0  0  0  0
    6.4287    2.1397    3.5451 H   0  0  0  0  0  0  0  0  0  0  0  0
    7.0366    0.4654    3.9287 H   0  0  0  0  0  0  0  0  0  0  0  0
    4.4754    0.4506    3.3221 H   0  0  0  0  0  0  0  0  0  0  0  0
    5.3118    0.1472   -1.3993 H   0  0  0  0  0  0  0  0  0  0  0  0
    3.4588   -0.6014   -2.7978 H   0  0  0  0  0  0  0  0  0  0  0  0
   -0.8207   -1.6554   -1.0044 H   0  0  0  0  0  0  0  0  0  0  0  0
   -0.1837    0.0228   -1.1671 H   0  0  0  0  0  0  0  0  0  0  0  0
   -4.5399   -1.3311   -1.8342 H   0  0  0  0  0  0  0  0  0  0  0  0
   -5.6731   -0.6901    0.2368 H   0  0  0  0  0  0  0  0  0  0  0  0
   -4.7930    2.6400    4.6718 H   0  0  0  0  0  0  0  0  0  0  0  0
   -6.2522    3.2841    3.7963 H   0  0  0  0  0  0  0  0  0  0  0  0
   -7.2754    1.1943    4.0126 H   0  0  0  0  0  0  0  0  0  0  0  0
   -5.7775    0.5347    4.8154 H   0  0  0  0  0  0  0  0  0  0  0  0
   -6.0259   -0.5713    2.4939 H   0  0  0  0  0  0  0  0  0  0  0  0
   -2.8011    2.4839    0.8178 H   0  0  0  0  0  0  0  0  0  0  0  0
   -1.6932    1.8522   -1.2739 H   0  0  0  0  0  0  0  0  0  0  0  0
  1  2  2  0
  2  3  1  0
  3  4  1  0
  4  5  1  0
  5  6  1  0
  6  7  1  0
  7  8  2  0
  8  9  1  0
  9 10  2  0
 10 11  1  0
 11 12  2  0
 12 13  1  0
 13 14  1  0
 14 15  1  0
 10 16  1  0
 16 17  2  0
  6 18  1  0
  1 19  1  0
 19 20  2  0
 20 21  1  0
 21 22  2  0
 22 23  1  0
 23 24  2  0
 24 25  1  0
 25 26  1  0
 26 27  1  0
 22 28  1  0
 28 29  2  0
 18  2  1  0
 29 19  1  0
 17  7  1  0
 27 23  1  0
 15 11  1  0
  1 30  1  0
  3 31  1  0
  3 32  1  0
  4 33  1  0
  4 34  1  0
  5 35  1  0
  5 36  1  0
  8 37  1  0
  9 38  1  0
 13 39  1  0
 13 40  1  0
 14 41  1  0
 14 42  1  0
 15 43  1  0
 16 44  1  0
 17 45  1  0
 18 46  1  0
 18 47  1  0
 20 48  1  0
 21 49  1  0
 25 50  1  0
 25 51  1  0
 26 52  1  0
 26 53  1  0
 27 54  1  0
 28 55  1  0
 29 56  1  0
M  END
$$$$
