
     RDKit          3D

 49 51  0  0  0  0  0  0  0  0999 V2000
    1.3022    0.7433    2.8744 C   0  0  0  0  0  0  0  0  0  0  0  0
   -0.2169    0.9645    2.8963 C   0  0  0  0  0  0  0  0  0  0  0  0
   -0.8395    0.9310    1.4892 C   0  0  0  0  0  0  0  0  0  0  0  0
   -0.9951   -0.5040    0.9473 C   0  0  0  0  0  0  0  0  0  0  0  0
   -1.3515   -0.5016   -0.5290 C   0  0  0  0  0  0  0  0  0  0  0  0
   -2.6287   -0.3401   -0.9442 C   0  0  0  0  0  0  0  0  0  0  0  0
   -3.8389   -0.3481   -0.0476 C   0  0  0  0  0  0  0  0  0  0  0  0
   -4.1533   -1.7120    0.3712 N   0  0  0  0  0  0  0  0  0  0  0  0
   -4.1069   -2.1547    1.5938 O   0  0  0  0  0  0  0  0  0  0  0  0
   -4.4507   -3.4237    1.5869 C   0  0  0  0  0  0  0  0  0  0  0  0
   -4.5003   -4.1472    2.6162 O   0  0  0  0  0  0  0  0  0  0  0  0
   -4.7405   -3.8616    0.3442 N   0  0  0  0  0  0  0  0  0  0  0  0
   -4.5431   -2.7521   -0.3926 C   0  0  0  0  0  0  0  0  0  0  0  0
   -4.7058   -2.6968   -1.6413 O   0  0  0  0  0  0  0  0  0  0  0  0
   -0.2523   -0.6210   -1.5428 C   0  0  0  0  0  0  0  0  0  0  0  0
   -0.4765   -1.2521   -2.7851 C   0  0  0  0  0  0  0  0  0  0  0  0
    0.5494   -1.3567   -3.7278 C   0  0  0  0  0  0  0  0  0  0  0  0
    1.8143   -0.8381   -3.4502 C   0  0  0  0  0  0  0  0  0  0  0  0
    2.0691   -0.2190   -2.2234 C   0  0  0  0  0  0  0  0  0  0  0  0
    3.3613    0.2664   -1.9684 O   0  0  0  0  0  0  0  0  0  0  0  0
    3.6792    1.3101   -1.0867 C   0  0  0  0  0  0  0  0  0  0  0  0
    4.9051    1.2724   -0.4107 C   0  0  0  0  0  0  0  0  0  0  0  0
    5.2581    2.2986    0.4715 C   0  0  0  0  0  0  0  0  0  0  0  0
    4.3924    3.3767    0.6735 C   0  0  0  0  0  0  0  0  0  0  0  0
    3.1763    3.4336   -0.0129 C   0  0  0  0  0  0  0  0  0  0  0  0
    2.8221    2.4103   -0.8971 C   0  0  0  0  0  0  0  0  0  0  0  0
    1.0437   -0.1396   -1.2644 C   0  0  0  0  0  0  0  0  0  0  0  0
    1.7958    1.4791    2.1966 H   0  0  0  0  0  0  0  0  0  0  0  0
    1.5523   -0.2856    2.5409 H   0  0  0  0  0  0  0  0  0  0  0  0
    1.7091    0.8781    3.9010 H   0  0  0  0  0  0  0  0  0  0  0  0
   -0.4139    1.9640    3.3412 H   0  0  0  0  0  0  0  0  0  0  0  0
   -0.7000    0.2028    3.5528 H   0  0  0  0  0  0  0  0  0  0  0  0
   -0.2358    1.5617    0.7988 H   0  0  0  0  0  0  0  0  0  0  0  0
   -1.8428    1.4050    1.5458 H   0  0  0  0  0  0  0  0  0  0  0  0
   -0.0578   -1.0803    1.0893 H   0  0  0  0  0  0  0  0  0  0  0  0
   -1.7594   -1.0427    1.5426 H   0  0  0  0  0  0  0  0  0  0  0  0
   -2.8367   -0.2306   -2.0016 H   0  0  0  0  0  0  0  0  0  0  0  0
   -3.6956    0.3017    0.8384 H   0  0  0  0  0  0  0  0  0  0  0  0
   -4.7060    0.0601   -0.6108 H   0  0  0  0  0  0  0  0  0  0  0  0
   -5.0400   -4.8133    0.0341 H   0  0  0  0  0  0  0  0  0  0  0  0
   -1.4369   -1.6910   -3.0230 H   0  0  0  0  0  0  0  0  0  0  0  0
    0.3636   -1.8465   -4.6753 H   0  0  0  0  0  0  0  0  0  0  0  0
    2.6020   -0.9228   -4.1886 H   0  0  0  0  0  0  0  0  0  0  0  0
    5.5810    0.4408   -0.5623 H   0  0  0  0  0  0  0  0  0  0  0  0
    6.2040    2.2594    0.9962 H   0  0  0  0  0  0  0  0  0  0  0  0
    4.6692    4.1744    1.3520 H   0  0  0  0  0  0  0  0  0  0  0  0
    2.5121    4.2761    0.1336 H   0  0  0  0  0  0  0  0  0  0  0  0
    1.8899    2.4847   -1.4412 H   0  0  0  0  0  0  0  0  0  0  0  0
    1.2726    0.2866   -0.3007 H   0  0  0  0  0  0  0  0  0  0  0  0
  1  2  1  0
  2  3  1  0
  3  4  1  0
  4  5  1  0
  5  6  2  0
  6  7  1  0
  7  8  1  0
  8  9  1  0
  9 10  1  0
 10 11  2  0
 10 12  1  0
 12 13  1  0
 13 14  2  0
  5 15  1  0
 15 16  2  0
 16 17  1  0
 17 18  2  0
 18 19  1  0
 19 20  1  0
 20 21  1  0
 21 22  2  0
 22 23  1  0
 23 24  2  0
 24 25  1  0
 25 26  2  0
 19 27  2  0
 13  8  1  0
 27 15  1  0
 26 21  1  0
  1 28  1  0
  1 29  1  0
  1 30  1  0
  2 31  1  0
  2 32  1  0
  3 33  1  0
  3 34  1  0
  4 35  1  0
  4 36  1  0
  6 37  1  0
  7 38  1  0
  7 39  1  0
 12 40  1  0
 16 41  1  0
 17 42  1  0
 18 43  1  0
 22 44  1  0
 23 45  1  0
 24 46  1  0
 25 47  1  0
 26 48  1  0
 27 49  1  0
M  END
$$$$
