
     RDKit          3D

 50 53  0  0  0  0  0  0  0  0999 V2000
   -3.4159    3.6641   -1.2097 C   0  0  0  0  0  0  0  0  0  0  0  0
   -3.5861    2.9499    0.1327 C   0  0  0  0  0  0  0  0  0  0  0  0
   -2.7046    1.6910    0.2521 C   0  0  0  0  0  0  0  0  0  0  0  0
   -1.1885    1.8865    0.3156 C   0  0  0  0  0  0  0  0  0  0  0  0
   -0.6473    3.1554    0.5996 C   0  0  0  0  0  0  0  0  0  0  0  0
    0.7296    3.3450    0.5829 C   0  0  0  0  0  0  0  0  0  0  0  0
    1.2105    4.4859    0.8115 O   0  0  0  0  0  0  0  0  0  0  0  0
    1.5416    2.3359    0.3212 O   0  0  0  0  0  0  0  0  0  0  0  0
    1.1162    1.0978    0.0939 C   0  0  0  0  0  0  0  0  0  0  0  0
    2.0686    0.0910   -0.1689 C   0  0  0  0  0  0  0  0  0  0  0  0
    1.6479   -1.2467   -0.2798 C   0  0  0  0  0  0  0  0  0  0  0  0
    0.2870   -1.5653   -0.2096 C   0  0  0  0  0  0  0  0  0  0  0  0
   -0.6708   -0.5618    0.0085 C   0  0  0  0  0  0  0  0  0  0  0  0
   -0.2756    0.7989    0.1283 C   0  0  0  0  0  0  0  0  0  0  0  0
   -2.0123   -0.9502    0.1164 O   0  0  0  0  0  0  0  0  0  0  0  0
   -2.4397   -2.2927    0.3749 C   0  0  0  0  0  0  0  0  0  0  0  0
   -2.5759   -2.4818    1.8911 C   0  0  0  0  0  0  0  0  0  0  0  0
   -3.7980   -2.5020   -0.3031 C   0  0  0  0  0  0  0  0  0  0  0  0
   -1.4439   -3.2953   -0.1636 C   0  0  0  0  0  0  0  0  0  0  0  0
   -0.1703   -2.9604   -0.3755 C   0  0  0  0  0  0  0  0  0  0  0  0
    2.5886   -2.2696   -0.4566 O   0  0  0  0  0  0  0  0  0  0  0  0
    3.9829   -2.0609   -0.2637 C   0  0  0  0  0  0  0  0  0  0  0  0
    4.3921   -0.7201   -0.8784 C   0  0  2  0  0  0  0  0  0  0  0  0
    5.8956   -0.4789   -0.6939 C   0  0  0  0  0  0  0  0  0  0  0  0
    3.5575    0.4242   -0.2482 C   0  0  1  0  0  0  0  0  0  0  0  0
    3.7728    1.6154   -0.9661 O   0  0  0  0  0  0  0  0  0  0  0  0
   -4.0915    4.5444   -1.2477 H   0  0  0  0  0  0  0  0  0  0  0  0
   -2.3742    4.0164   -1.3510 H   0  0  0  0  0  0  0  0  0  0  0  0
   -3.6810    2.9807   -2.0443 H   0  0  0  0  0  0  0  0  0  0  0  0
   -3.4155    3.6472    0.9786 H   0  0  0  0  0  0  0  0  0  0  0  0
   -4.6483    2.6305    0.2100 H   0  0  0  0  0  0  0  0  0  0  0  0
   -3.0197    1.1447    1.1672 H   0  0  0  0  0  0  0  0  0  0  0  0
   -2.9503    1.0682   -0.6339 H   0  0  0  0  0  0  0  0  0  0  0  0
   -1.2687    4.0104    0.8178 H   0  0  0  0  0  0  0  0  0  0  0  0
   -1.5950   -2.3207    2.3883 H   0  0  0  0  0  0  0  0  0  0  0  0
   -2.9314   -3.5075    2.1306 H   0  0  0  0  0  0  0  0  0  0  0  0
   -3.2989   -1.7473    2.3067 H   0  0  0  0  0  0  0  0  0  0  0  0
   -3.7010   -2.3664   -1.4018 H   0  0  0  0  0  0  0  0  0  0  0  0
   -4.5343   -1.7599    0.0740 H   0  0  0  0  0  0  0  0  0  0  0  0
   -4.1880   -3.5236   -0.1029 H   0  0  0  0  0  0  0  0  0  0  0  0
   -1.7396   -4.3319   -0.2762 H   0  0  0  0  0  0  0  0  0  0  0  0
    0.5263   -3.7303   -0.6838 H   0  0  0  0  0  0  0  0  0  0  0  0
    4.2041   -2.0676    0.8262 H   0  0  0  0  0  0  0  0  0  0  0  0
    4.5406   -2.8935   -0.7429 H   0  0  0  0  0  0  0  0  0  0  0  0
    4.1799   -0.7671   -1.9704 H   0  0  0  0  0  0  0  0  0  0  0  0
    6.4751   -1.2984   -1.1700 H   0  0  0  0  0  0  0  0  0  0  0  0
    6.1931    0.4770   -1.1746 H   0  0  0  0  0  0  0  0  0  0  0  0
    6.1575   -0.4352    0.3851 H   0  0  0  0  0  0  0  0  0  0  0  0
    3.9071    0.5856    0.7952 H   0  0  0  0  0  0  0  0  0  0  0  0
    3.3919    1.4892   -1.8749 H   0  0  0  0  0  0  0  0  0  0  0  0
  1  2  1  0
  2  3  1  0
  3  4  1  0
  4  5  2  0
  5  6  1  0
  6  7  2  0
  6  8  1  0
  8  9  1  0
  9 10  2  0
 10 11  1  0
 11 12  2  0
 12 13  1  0
 13 14  2  0
 13 15  1  0
 15 16  1  0
 16 17  1  0
 16 18  1  0
 16 19  1  0
 19 20  2  0
 11 21  1  0
 21 22  1  0
 22 23  1  0
 23 24  1  0
 23 25  1  0
 25 26  1  0
 14  4  1  0
 14  9  1  0
 25 10  1  0
 20 12  1  0
  1 27  1  0
  1 28  1  0
  1 29  1  0
  2 30  1  0
  2 31  1  0
  3 32  1  0
  3 33  1  0
  5 34  1  0
 17 35  1  0
 17 36  1  0
 17 37  1  0
 18 38  1  0
 18 39  1  0
 18 40  1  0
 19 41  1  0
 20 42  1  0
 22 43  1  0
 22 44  1  0
 23 45  1  6
 24 46  1  0
 24 47  1  0
 24 48  1  0
 25 49  1  1
 26 50  1  0
M  END
$$$$
