
     RDKit          3D

 45 48  0  0  0  0  0  0  0  0999 V2000
   -1.9802    2.7823    0.3218 C   0  0  0  0  0  0  0  0  0  0  0  0
   -3.1591    1.9963   -0.0840 N   0  0  0  0  0  0  0  0  0  0  0  0
   -3.5066    0.9693    0.9181 C   0  0  0  0  0  0  0  0  0  0  0  0
   -2.5997   -0.2328    0.8650 C   0  0  0  0  0  0  0  0  0  0  0  0
   -1.9196   -0.5661   -0.2412 C   0  0  0  0  0  0  0  0  0  0  0  0
   -1.0669   -1.7719   -0.2334 C   0  0  0  0  0  0  0  0  0  0  0  0
   -1.6492   -3.0426   -0.3610 C   0  0  0  0  0  0  0  0  0  0  0  0
   -3.0324   -3.1661   -0.4954 O   0  0  0  0  0  0  0  0  0  0  0  0
   -0.8412   -4.1846   -0.3593 C   0  0  0  0  0  0  0  0  0  0  0  0
    0.5497   -4.0796   -0.2300 C   0  0  0  0  0  0  0  0  0  0  0  0
    1.3253   -5.2398   -0.2349 O   0  0  0  0  0  0  0  0  0  0  0  0
    1.1478   -2.8059   -0.0941 C   0  0  0  0  0  0  0  0  0  0  0  0
    2.5387   -2.6220    0.0469 C   0  0  0  0  0  0  0  0  0  0  0  0
    3.3347   -3.5997    0.0432 O   0  0  0  0  0  0  0  0  0  0  0  0
    3.0530   -1.3336    0.1922 C   0  0  0  0  0  0  0  0  0  0  0  0
    2.1766   -0.2381    0.1983 C   0  0  0  0  0  0  0  0  0  0  0  0
    2.6650    1.1537    0.3598 C   0  0  0  0  0  0  0  0  0  0  0  0
    3.8306    1.4476    1.0949 C   0  0  0  0  0  0  0  0  0  0  0  0
    4.2526    2.7713    1.2524 C   0  0  0  0  0  0  0  0  0  0  0  0
    3.5165    3.8152    0.6881 C   0  0  0  0  0  0  0  0  0  0  0  0
    2.3533    3.5382   -0.0349 C   0  0  0  0  0  0  0  0  0  0  0  0
    1.4217    4.8487   -0.7363 Cl  0  0  0  0  0  0  0  0  0  0  0  0
    1.9295    2.2152   -0.1979 C   0  0  0  0  0  0  0  0  0  0  0  0
    0.8710   -0.4441    0.0482 O   0  0  0  0  0  0  0  0  0  0  0  0
    0.3278   -1.6511   -0.0946 C   0  0  0  0  0  0  0  0  0  0  0  0
   -1.9013    0.3256   -1.4575 C   0  0  0  0  0  0  0  0  0  0  0  0
   -3.0041    1.3954   -1.4228 C   0  0  0  0  0  0  0  0  0  0  0  0
   -1.6938    3.4965   -0.4797 H   0  0  0  0  0  0  0  0  0  0  0  0
   -1.1115    2.1298    0.5545 H   0  0  0  0  0  0  0  0  0  0  0  0
   -2.2235    3.3797    1.2258 H   0  0  0  0  0  0  0  0  0  0  0  0
   -3.4838    1.4022    1.9422 H   0  0  0  0  0  0  0  0  0  0  0  0
   -4.5488    0.6280    0.7393 H   0  0  0  0  0  0  0  0  0  0  0  0
   -2.5681   -0.8827    1.7319 H   0  0  0  0  0  0  0  0  0  0  0  0
   -3.4785   -4.0709   -0.5907 H   0  0  0  0  0  0  0  0  0  0  0  0
   -1.2974   -5.1614   -0.4610 H   0  0  0  0  0  0  0  0  0  0  0  0
    0.9095   -6.1590   -0.3307 H   0  0  0  0  0  0  0  0  0  0  0  0
    4.1235   -1.1952    0.2762 H   0  0  0  0  0  0  0  0  0  0  0  0
    4.4032    0.6636    1.5718 H   0  0  0  0  0  0  0  0  0  0  0  0
    5.1475    2.9886    1.8213 H   0  0  0  0  0  0  0  0  0  0  0  0
    3.8477    4.8377    0.8176 H   0  0  0  0  0  0  0  0  0  0  0  0
    1.0331    2.0183   -0.7702 H   0  0  0  0  0  0  0  0  0  0  0  0
   -2.0282   -0.2947   -2.3708 H   0  0  0  0  0  0  0  0  0  0  0  0
   -0.9126    0.8231   -1.5286 H   0  0  0  0  0  0  0  0  0  0  0  0
   -2.7833    2.1845   -2.1747 H   0  0  0  0  0  0  0  0  0  0  0  0
   -3.9687    0.9309   -1.7258 H   0  0  0  0  0  0  0  0  0  0  0  0
  1  2  1  0
  2  3  1  0
  3  4  1  0
  4  5  2  0
  5  6  1  0
  6  7  2  0
  7  8  1  0
  7  9  1  0
  9 10  2  0
 10 11  1  0
 10 12  1  0
 12 13  1  0
 13 14  2  0
 13 15  1  0
 15 16  2  0
 16 17  1  0
 17 18  2  0
 18 19  1  0
 19 20  2  0
 20 21  1  0
 21 22  1  0
 21 23  2  0
 16 24  1  0
 24 25  1  0
  5 26  1  0
 26 27  1  0
 27  2  1  0
 25  6  1  0
 25 12  2  0
 23 17  1  0
  1 28  1  0
  1 29  1  0
  1 30  1  0
  3 31  1  0
  3 32  1  0
  4 33  1  0
  8 34  1  0
  9 35  1  0
 11 36  1  0
 15 37  1  0
 18 38  1  0
 19 39  1  0
 20 40  1  0
 23 41  1  0
 26 42  1  0
 26 43  1  0
 27 44  1  0
 27 45  1  0
M  END
$$$$
