
     RDKit          3D

 42 44  0  0  0  0  0  0  0  0999 V2000
    4.4102    1.3733   -1.6185 C   0  0  0  0  0  0  0  0  0  0  0  0
    4.5741    0.0775   -0.8739 C   0  0  0  0  0  0  0  0  0  0  0  0
    3.5881   -0.3522    0.0224 C   0  0  0  0  0  0  0  0  0  0  0  0
    3.7525   -1.5661    0.7059 C   0  0  0  0  0  0  0  0  0  0  0  0
    2.7696   -2.0681    1.6257 N   0  0  0  0  0  0  0  0  0  0  0  0
    1.4038   -1.1552    2.1903 S   0  0  0  0  0  6  0  0  0  0  0  0
    0.7904   -1.8860    3.3513 O   0  0  0  0  0  0  0  0  0  0  0  0
    1.8863    0.1904    2.6568 O   0  0  0  0  0  0  0  0  0  0  0  0
    0.1794   -0.9696    0.9174 C   0  0  0  0  0  0  0  0  0  0  0  0
    0.3659   -1.6591   -0.2901 C   0  0  0  0  0  0  0  0  0  0  0  0
   -0.5390   -1.5224   -1.3384 C   0  0  0  0  0  0  0  0  0  0  0  0
   -1.6572   -0.7063   -1.2005 C   0  0  0  0  0  0  0  0  0  0  0  0
   -1.8995   -0.0234    0.0048 C   0  0  0  0  0  0  0  0  0  0  0  0
   -3.0448    0.7948    0.1541 C   0  0  0  0  0  0  0  0  0  0  0  0
   -4.0056    0.9280   -0.9069 N   0  0  0  0  0  0  0  0  0  0  0  0
   -5.0195   -0.1124   -1.0711 C   0  0  0  0  0  0  0  0  0  0  0  0
   -4.2591    2.2498   -1.4774 C   0  0  0  0  0  0  0  0  0  0  0  0
   -3.2601    1.4752    1.3584 C   0  0  0  0  0  0  0  0  0  0  0  0
   -2.3643    1.3418    2.4148 C   0  0  0  0  0  0  0  0  0  0  0  0
   -1.2356    0.5343    2.2850 C   0  0  0  0  0  0  0  0  0  0  0  0
   -0.9735   -0.1531    1.0811 C   0  0  0  0  0  0  0  0  0  0  0  0
    4.8703   -2.3026    0.4711 N   0  0  0  0  0  0  0  0  0  0  0  0
    5.8134   -1.8990   -0.3805 N   0  0  0  0  0  0  0  0  0  0  0  0
    5.7062   -0.7305   -1.0631 C   0  0  0  0  0  0  0  0  0  0  0  0
    6.9954   -0.2759   -2.1682 Cl  0  0  0  0  0  0  0  0  0  0  0  0
    3.4649    1.8875   -1.3428 H   0  0  0  0  0  0  0  0  0  0  0  0
    4.3936    1.1774   -2.7112 H   0  0  0  0  0  0  0  0  0  0  0  0
    5.2563    2.0518   -1.3809 H   0  0  0  0  0  0  0  0  0  0  0  0
    2.7033    0.2510    0.1682 H   0  0  0  0  0  0  0  0  0  0  0  0
    2.9110   -3.0195    2.0325 H   0  0  0  0  0  0  0  0  0  0  0  0
    1.2201   -2.3061   -0.4326 H   0  0  0  0  0  0  0  0  0  0  0  0
   -0.3704   -2.0521   -2.2673 H   0  0  0  0  0  0  0  0  0  0  0  0
   -2.3315   -0.6174   -2.0426 H   0  0  0  0  0  0  0  0  0  0  0  0
   -5.3229   -0.1835   -2.1370 H   0  0  0  0  0  0  0  0  0  0  0  0
   -5.9085    0.1316   -0.4522 H   0  0  0  0  0  0  0  0  0  0  0  0
   -4.6220   -1.1012   -0.7567 H   0  0  0  0  0  0  0  0  0  0  0  0
   -3.3325    2.8629   -1.4597 H   0  0  0  0  0  0  0  0  0  0  0  0
   -4.5890    2.1520   -2.5332 H   0  0  0  0  0  0  0  0  0  0  0  0
   -5.0500    2.7663   -0.8937 H   0  0  0  0  0  0  0  0  0  0  0  0
   -4.1366    2.0986    1.4819 H   0  0  0  0  0  0  0  0  0  0  0  0
   -2.5493    1.8637    3.3450 H   0  0  0  0  0  0  0  0  0  0  0  0
   -0.5839    0.4541    3.1417 H   0  0  0  0  0  0  0  0  0  0  0  0
  1  2  1  0
  2  3  2  0
  3  4  1  0
  4  5  1  0
  5  6  1  0
  6  7  2  0
  6  8  2  0
  6  9  1  0
  9 10  2  0
 10 11  1  0
 11 12  2  0
 12 13  1  0
 13 14  2  0
 14 15  1  0
 15 16  1  0
 15 17  1  0
 14 18  1  0
 18 19  2  0
 19 20  1  0
 20 21  2  0
  4 22  2  0
 22 23  1  0
 23 24  2  0
 24 25  1  0
 24  2  1  0
 21  9  1  0
 21 13  1  0
  1 26  1  0
  1 27  1  0
  1 28  1  0
  3 29  1  0
  5 30  1  0
 10 31  1  0
 11 32  1  0
 12 33  1  0
 16 34  1  0
 16 35  1  0
 16 36  1  0
 17 37  1  0
 17 38  1  0
 17 39  1  0
 18 40  1  0
 19 41  1  0
 20 42  1  0
M  END
$$$$
