
     RDKit          3D

 53 56  0  0  0  0  0  0  0  0999 V2000
    4.5816   -1.7612    2.2660 C   0  0  0  0  0  0  0  0  0  0  0  0
    4.5864   -1.3902    0.7795 C   0  0  0  0  0  0  0  0  0  0  0  0
    3.3174   -0.6240    0.3548 C   0  0  0  0  0  0  0  0  0  0  0  0
    1.9969   -1.3972    0.3008 C   0  0  0  0  0  0  0  0  0  0  0  0
    1.9892   -2.8038    0.3967 C   0  0  0  0  0  0  0  0  0  0  0  0
    0.7849   -3.4974    0.3950 C   0  0  0  0  0  0  0  0  0  0  0  0
    0.7803   -4.7527    0.5026 O   0  0  0  0  0  0  0  0  0  0  0  0
   -0.3604   -2.8488    0.2835 O   0  0  0  0  0  0  0  0  0  0  0  0
   -0.4415   -1.5291    0.1474 C   0  0  0  0  0  0  0  0  0  0  0  0
   -1.7165   -0.9412    0.0241 C   0  0  0  0  0  0  0  0  0  0  0  0
   -1.8285    0.4495   -0.1480 C   0  0  0  0  0  0  0  0  0  0  0  0
   -0.6766    1.2419   -0.2198 C   0  0  0  0  0  0  0  0  0  0  0  0
    0.5981    0.6635   -0.1053 C   0  0  0  0  0  0  0  0  0  0  0  0
    0.7393   -0.7340    0.1201 C   0  0  0  0  0  0  0  0  0  0  0  0
    1.7109    1.5075   -0.2161 O   0  0  0  0  0  0  0  0  0  0  0  0
    1.6669    2.8234   -0.7792 C   0  0  0  0  0  0  0  0  0  0  0  0
    2.7377    3.6748   -0.0887 C   0  0  0  0  0  0  0  0  0  0  0  0
    1.9635    2.7263   -2.2810 C   0  0  0  0  0  0  0  0  0  0  0  0
    0.3081    3.4545   -0.5796 C   0  0  0  0  0  0  0  0  0  0  0  0
   -0.7794    2.7074   -0.3810 C   0  0  0  0  0  0  0  0  0  0  0  0
   -3.0870    1.0511   -0.2928 O   0  0  0  0  0  0  0  0  0  0  0  0
   -4.3183    0.3623   -0.0798 C   0  0  2  0  0  0  0  0  0  0  0  0
   -4.7403    0.5164    1.3862 C   0  0  0  0  0  0  0  0  0  0  0  0
   -4.2010   -1.1172   -0.5264 C   0  0  1  0  0  0  0  0  0  0  0  0
   -4.1417   -1.2098   -2.0608 C   0  0  0  0  0  0  0  0  0  0  0  0
   -2.9692   -1.8055    0.1139 C   0  0  2  0  0  0  0  0  0  0  0  0
   -3.2567   -2.1130    1.4565 O   0  0  0  0  0  0  0  0  0  0  0  0
    4.5534   -0.8409    2.8917 H   0  0  0  0  0  0  0  0  0  0  0  0
    5.5083   -2.3268    2.5081 H   0  0  0  0  0  0  0  0  0  0  0  0
    3.7032   -2.3923    2.5233 H   0  0  0  0  0  0  0  0  0  0  0  0
    5.4626   -0.7260    0.6038 H   0  0  0  0  0  0  0  0  0  0  0  0
    4.7534   -2.2849    0.1427 H   0  0  0  0  0  0  0  0  0  0  0  0
    3.5082   -0.2061   -0.6582 H   0  0  0  0  0  0  0  0  0  0  0  0
    3.2116    0.2181    1.0719 H   0  0  0  0  0  0  0  0  0  0  0  0
    2.8960   -3.3814    0.4865 H   0  0  0  0  0  0  0  0  0  0  0  0
    2.7616    4.7027   -0.5113 H   0  0  0  0  0  0  0  0  0  0  0  0
    2.5274    3.7422    1.0005 H   0  0  0  0  0  0  0  0  0  0  0  0
    3.7402    3.2131   -0.2200 H   0  0  0  0  0  0  0  0  0  0  0  0
    2.9533    2.2495   -2.4482 H   0  0  0  0  0  0  0  0  0  0  0  0
    1.1912    2.1070   -2.7866 H   0  0  0  0  0  0  0  0  0  0  0  0
    1.9706    3.7355   -2.7471 H   0  0  0  0  0  0  0  0  0  0  0  0
    0.1932    4.5238   -0.7109 H   0  0  0  0  0  0  0  0  0  0  0  0
   -1.7438    3.1966   -0.3249 H   0  0  0  0  0  0  0  0  0  0  0  0
   -5.1042    0.8606   -0.6892 H   0  0  0  0  0  0  0  0  0  0  0  0
   -3.9224    0.2103    2.0722 H   0  0  0  0  0  0  0  0  0  0  0  0
   -4.9734    1.5831    1.5956 H   0  0  0  0  0  0  0  0  0  0  0  0
   -5.6488   -0.0878    1.5969 H   0  0  0  0  0  0  0  0  0  0  0  0
   -5.1179   -1.6633   -0.2097 H   0  0  0  0  0  0  0  0  0  0  0  0
   -5.0533   -0.7586   -2.5084 H   0  0  0  0  0  0  0  0  0  0  0  0
   -3.2502   -0.6807   -2.4603 H   0  0  0  0  0  0  0  0  0  0  0  0
   -4.0970   -2.2721   -2.3804 H   0  0  0  0  0  0  0  0  0  0  0  0
   -2.7942   -2.7645   -0.4285 H   0  0  0  0  0  0  0  0  0  0  0  0
   -2.4732   -2.6108    1.8216 H   0  0  0  0  0  0  0  0  0  0  0  0
  1  2  1  0
  2  3  1  0
  3  4  1  0
  4  5  2  0
  5  6  1  0
  6  7  2  0
  6  8  1  0
  8  9  1  0
  9 10  2  0
 10 11  1  0
 11 12  2  0
 12 13  1  0
 13 14  2  0
 13 15  1  0
 15 16  1  0
 16 17  1  0
 16 18  1  0
 16 19  1  0
 19 20  2  0
 11 21  1  0
 21 22  1  0
 22 23  1  0
 22 24  1  0
 24 25  1  0
 24 26  1  0
 26 27  1  0
 14  4  1  0
 14  9  1  0
 26 10  1  0
 20 12  1  0
  1 28  1  0
  1 29  1  0
  1 30  1  0
  2 31  1  0
  2 32  1  0
  3 33  1  0
  3 34  1  0
  5 35  1  0
 17 36  1  0
 17 37  1  0
 17 38  1  0
 18 39  1  0
 18 40  1  0
 18 41  1  0
 19 42  1  0
 20 43  1  0
 22 44  1  6
 23 45  1  0
 23 46  1  0
 23 47  1  0
 24 48  1  1
 25 49  1  0
 25 50  1  0
 25 51  1  0
 26 52  1  6
 27 53  1  0
M  END
$$$$
