
     RDKit          3D

 38 41  0  0  0  0  0  0  0  0999 V2000
   -6.0974    2.3424    1.7490 N   0  0  0  0  0  0  0  0  0  0  0  0
   -5.0562    1.6033    1.1151 C   0  0  0  0  0  0  0  0  0  0  0  0
   -4.8245    1.7598   -0.2142 N   0  0  0  0  0  0  0  0  0  0  0  0
   -3.8412    1.0722   -0.8515 C   0  0  0  0  0  0  0  0  0  0  0  0
   -3.6161    1.3527   -2.6101 S   0  0  0  0  0  0  0  0  0  0  0  0
   -3.0385    0.1721   -0.1223 C   0  0  0  0  0  0  0  0  0  0  0  0
   -2.0016   -0.5773   -0.7091 C   0  0  0  0  0  0  0  0  0  0  0  0
   -1.2386   -1.4589    0.0691 C   0  0  0  0  0  0  0  0  0  0  0  0
    0.0734   -2.3671   -0.6722 S   0  0  0  0  0  6  0  0  0  0  0  0
    0.4117   -3.5699    0.1642 O   0  0  0  0  0  0  0  0  0  0  0  0
   -0.3486   -2.8481   -2.0328 O   0  0  0  0  0  0  0  0  0  0  0  0
    1.4825   -1.3226   -0.8094 C   0  0  0  0  0  0  0  0  0  0  0  0
    1.6925   -0.5743   -1.9752 C   0  0  0  0  0  0  0  0  0  0  0  0
    2.7973    0.2749   -2.0803 C   0  0  0  0  0  0  0  0  0  0  0  0
    3.7021    0.3898   -1.0150 C   0  0  0  0  0  0  0  0  0  0  0  0
    4.8145    1.2406   -1.1086 C   0  0  0  0  0  0  0  0  0  0  0  0
    5.7065    1.3491   -0.0378 C   0  0  0  0  0  0  0  0  0  0  0  0
    5.4957    0.6126    1.1310 C   0  0  0  0  0  0  0  0  0  0  0  0
    4.3916   -0.2382    1.2373 C   0  0  0  0  0  0  0  0  0  0  0  0
    3.4888   -0.3575    0.1691 C   0  0  0  0  0  0  0  0  0  0  0  0
    2.3764   -1.2074    0.2637 C   0  0  0  0  0  0  0  0  0  0  0  0
   -1.5003   -1.5850    1.4397 C   0  0  0  0  0  0  0  0  0  0  0  0
   -2.5282   -0.8472    2.0309 C   0  0  0  0  0  0  0  0  0  0  0  0
   -3.2984    0.0283    1.2588 C   0  0  0  0  0  0  0  0  0  0  0  0
   -4.2955    0.7436    1.8401 N   0  0  0  0  0  0  0  0  0  0  0  0
   -6.6861    3.0055    1.1977 H   0  0  0  0  0  0  0  0  0  0  0  0
   -6.2809    2.2274    2.7705 H   0  0  0  0  0  0  0  0  0  0  0  0
   -4.5085    0.3165   -2.9427 H   0  0  0  0  0  0  0  0  0  0  0  0
   -1.7746   -0.4822   -1.7626 H   0  0  0  0  0  0  0  0  0  0  0  0
    0.9979   -0.6438   -2.8026 H   0  0  0  0  0  0  0  0  0  0  0  0
    2.9421    0.8432   -2.9914 H   0  0  0  0  0  0  0  0  0  0  0  0
    4.9931    1.8200   -2.0066 H   0  0  0  0  0  0  0  0  0  0  0  0
    6.5632    2.0063   -0.1137 H   0  0  0  0  0  0  0  0  0  0  0  0
    6.1897    0.7014    1.9568 H   0  0  0  0  0  0  0  0  0  0  0  0
    4.2440   -0.8013    2.1511 H   0  0  0  0  0  0  0  0  0  0  0  0
    2.2017   -1.7750    1.1702 H   0  0  0  0  0  0  0  0  0  0  0  0
   -0.9067   -2.2508    2.0529 H   0  0  0  0  0  0  0  0  0  0  0  0
   -2.7224   -0.9550    3.0909 H   0  0  0  0  0  0  0  0  0  0  0  0
  1  2  1  0
  2  3  2  0
  3  4  1  0
  4  5  1  0
  4  6  2  0
  6  7  1  0
  7  8  2  0
  8  9  1  0
  9 10  2  0
  9 11  2  0
  9 12  1  0
 12 13  2  0
 13 14  1  0
 14 15  2  0
 15 16  1  0
 16 17  2  0
 17 18  1  0
 18 19  2  0
 19 20  1  0
 20 21  2  0
  8 22  1  0
 22 23  2  0
 23 24  1  0
 24 25  2  0
 25  2  1  0
 24  6  1  0
 21 12  1  0
 20 15  1  0
  1 26  1  0
  1 27  1  0
  5 28  1  0
  7 29  1  0
 13 30  1  0
 14 31  1  0
 16 32  1  0
 17 33  1  0
 18 34  1  0
 19 35  1  0
 21 36  1  0
 22 37  1  0
 23 38  1  0
M  END
$$$$
