
     RDKit          3D

 46 49  0  0  0  0  0  0  0  0999 V2000
   -3.8660    0.3544   -2.8973 C   0  0  0  0  0  0  0  0  0  0  0  0
   -3.9206    0.8768   -1.5219 N   0  0  0  0  0  0  0  0  0  0  0  0
   -2.8078    1.8375   -1.2634 C   0  0  0  0  0  0  0  0  0  0  0  0
   -2.0235    1.5678    0.0347 C   0  0  0  0  0  0  0  0  0  0  0  0
   -1.5529    0.1057    0.0853 C   0  0  0  0  0  0  0  0  0  0  0  0
   -0.8655   -0.2033    1.4147 C   0  0  0  0  0  0  0  0  0  0  0  0
   -1.6078   -0.3100    2.6091 C   0  0  0  0  0  0  0  0  0  0  0  0
   -2.9942   -0.1565    2.5986 O   0  0  0  0  0  0  0  0  0  0  0  0
   -0.9592   -0.5608    3.8194 C   0  0  0  0  0  0  0  0  0  0  0  0
    0.4277   -0.6924    3.8891 C   0  0  0  0  0  0  0  0  0  0  0  0
    0.9758   -0.8444    5.1663 O   0  0  0  0  0  0  0  0  0  0  0  0
    1.1994   -0.6347    2.6956 C   0  0  0  0  0  0  0  0  0  0  0  0
    2.5948   -0.8733    2.6383 C   0  0  0  0  0  0  0  0  0  0  0  0
    3.2498   -1.2486    3.6450 O   0  0  0  0  0  0  0  0  0  0  0  0
    3.2730   -0.7320    1.4292 C   0  0  0  0  0  0  0  0  0  0  0  0
    2.5608   -0.3843    0.2801 C   0  0  0  0  0  0  0  0  0  0  0  0
    3.2331   -0.2326   -1.0274 C   0  0  0  0  0  0  0  0  0  0  0  0
    2.6824   -0.8878   -2.1420 C   0  0  0  0  0  0  0  0  0  0  0  0
    3.2845   -0.7804   -3.3979 C   0  0  0  0  0  0  0  0  0  0  0  0
    4.4351   -0.0076   -3.5580 C   0  0  0  0  0  0  0  0  0  0  0  0
    4.9797    0.6699   -2.4652 C   0  0  0  0  0  0  0  0  0  0  0  0
    4.3851    0.5706   -1.2007 C   0  0  0  0  0  0  0  0  0  0  0  0
    5.0627    1.5366    0.1071 Cl  0  0  0  0  0  0  0  0  0  0  0  0
    1.2444   -0.2343    0.3436 O   0  0  0  0  0  0  0  0  0  0  0  0
    0.5393   -0.3533    1.4665 C   0  0  0  0  0  0  0  0  0  0  0  0
   -2.7100   -0.8170   -0.1945 C   0  0  0  0  0  0  0  0  0  0  0  0
   -2.5606   -2.0291   -0.1557 O   0  0  0  0  0  0  0  0  0  0  0  0
   -4.0505   -0.2258   -0.5404 C   0  0  0  0  0  0  0  0  0  0  0  0
   -3.8405    1.1943   -3.6249 H   0  0  0  0  0  0  0  0  0  0  0  0
   -4.7770   -0.2413   -3.1205 H   0  0  0  0  0  0  0  0  0  0  0  0
   -2.9661   -0.2832   -3.0437 H   0  0  0  0  0  0  0  0  0  0  0  0
   -2.0720    1.8516   -2.1007 H   0  0  0  0  0  0  0  0  0  0  0  0
   -3.2372    2.8600   -1.2058 H   0  0  0  0  0  0  0  0  0  0  0  0
   -1.1418    2.2441    0.0779 H   0  0  0  0  0  0  0  0  0  0  0  0
   -2.6721    1.8056    0.9056 H   0  0  0  0  0  0  0  0  0  0  0  0
   -0.8460   -0.0419   -0.7595 H   0  0  0  0  0  0  0  0  0  0  0  0
   -3.5465   -0.2263    3.4453 H   0  0  0  0  0  0  0  0  0  0  0  0
   -1.5404   -0.6206    4.7316 H   0  0  0  0  0  0  0  0  0  0  0  0
    1.9373   -0.6544    5.4053 H   0  0  0  0  0  0  0  0  0  0  0  0
    4.3382   -0.9257    1.3797 H   0  0  0  0  0  0  0  0  0  0  0  0
    1.7918   -1.4959   -2.0359 H   0  0  0  0  0  0  0  0  0  0  0  0
    2.8582   -1.2974   -4.2479 H   0  0  0  0  0  0  0  0  0  0  0  0
    4.8989    0.0763   -4.5323 H   0  0  0  0  0  0  0  0  0  0  0  0
    5.8590    1.2859   -2.6056 H   0  0  0  0  0  0  0  0  0  0  0  0
   -4.7393   -1.0172   -0.9127 H   0  0  0  0  0  0  0  0  0  0  0  0
   -4.5134    0.1749    0.3858 H   0  0  0  0  0  0  0  0  0  0  0  0
  1  2  1  0
  2  3  1  0
  3  4  1  0
  4  5  1  0
  5  6  1  0
  6  7  2  0
  7  8  1  0
  7  9  1  0
  9 10  2  0
 10 11  1  0
 10 12  1  0
 12 13  1  0
 13 14  2  0
 13 15  1  0
 15 16  2  0
 16 17  1  0
 17 18  2  0
 18 19  1  0
 19 20  2  0
 20 21  1  0
 21 22  2  0
 22 23  1  0
 16 24  1  0
 24 25  1  0
  5 26  1  0
 26 27  2  0
 26 28  1  0
 28  2  1  0
 25  6  1  0
 25 12  2  0
 22 17  1  0
  1 29  1  0
  1 30  1  0
  1 31  1  0
  3 32  1  0
  3 33  1  0
  4 34  1  0
  4 35  1  0
  5 36  1  0
  8 37  1  0
  9 38  1  0
 11 39  1  0
 15 40  1  0
 18 41  1  0
 19 42  1  0
 20 43  1  0
 21 44  1  0
 28 45  1  0
 28 46  1  0
M  END
$$$$
