
     RDKit          3D

 56 59  0  0  0  0  0  0  0  0999 V2000
   -2.9765   -0.0983   -2.9810 C   0  0  0  0  0  0  0  0  0  0  0  0
   -2.6977    0.7788   -2.2026 C   0  0  0  0  0  0  0  0  0  0  0  0
   -2.3589    1.8392   -1.2490 C   0  0  0  0  0  0  0  0  0  0  0  0
   -1.4343    1.3173   -0.2364 N   0  0  0  0  0  0  0  0  0  0  0  0
   -1.8762    1.1222    1.1510 C   0  0  0  0  0  0  0  0  0  0  0  0
   -2.9756    0.0923    1.2267 C   0  0  0  0  0  0  0  0  0  0  0  0
   -2.6592   -1.2734    1.2486 C   0  0  0  0  0  0  0  0  0  0  0  0
   -3.6706   -2.2336    1.2669 C   0  0  0  0  0  0  0  0  0  0  0  0
   -5.0113   -1.8423    1.2628 C   0  0  0  0  0  0  0  0  0  0  0  0
   -5.9838   -2.7890    1.2740 N   0  0  0  0  0  0  0  0  0  0  0  0
   -7.2947   -2.4465    1.2669 C   0  0  0  0  0  0  0  0  0  0  0  0
   -8.3428   -3.5073    1.3204 C   0  0  0  0  0  0  0  0  0  0  0  0
   -7.6510   -1.1371    1.2748 N   0  0  0  0  0  0  0  0  0  0  0  0
   -6.7287   -0.1395    1.2640 C   0  0  0  0  0  0  0  0  0  0  0  0
   -7.1952    1.1773    1.2680 O   0  0  0  0  0  0  0  0  0  0  0  0
   -5.3539   -0.4702    1.2538 C   0  0  0  0  0  0  0  0  0  0  0  0
   -4.3228    0.4910    1.2343 C   0  0  0  0  0  0  0  0  0  0  0  0
   -0.0429    1.1679   -0.5629 C   0  0  0  0  0  0  0  0  0  0  0  0
    0.5431   -0.1042   -0.5915 C   0  0  0  0  0  0  0  0  0  0  0  0
    1.8985   -0.2493   -0.8993 C   0  0  0  0  0  0  0  0  0  0  0  0
    2.6936    0.8782   -1.1769 C   0  0  0  0  0  0  0  0  0  0  0  0
    4.1311    0.7081   -1.5001 C   0  0  0  0  0  0  0  0  0  0  0  0
    4.5341   -0.3989   -1.9550 O   0  0  0  0  0  0  0  0  0  0  0  0
    5.0735    1.7739   -1.2865 N   0  0  0  0  0  0  0  0  0  0  0  0
    6.4825    1.6547   -1.6517 C   0  0  0  0  0  0  0  0  0  0  0  0
    7.2097    0.8254   -0.6338 C   0  0  0  0  0  0  0  0  0  0  0  0
    7.6377   -0.4765   -0.9348 C   0  0  0  0  0  0  0  0  0  0  0  0
    8.2965   -1.2241    0.0445 C   0  0  0  0  0  0  0  0  0  0  0  0
    8.5166   -0.6743    1.3092 C   0  0  0  0  0  0  0  0  0  0  0  0
    8.0714    0.6221    1.5761 C   0  0  0  0  0  0  0  0  0  0  0  0
    7.4327    1.3361    0.6097 N   0  0  0  0  0  0  0  0  0  0  0  0
    2.0947    2.1523   -1.1619 C   0  0  0  0  0  0  0  0  0  0  0  0
    0.7387    2.2943   -0.8542 C   0  0  0  0  0  0  0  0  0  0  0  0
   -3.2216   -0.8705   -3.6625 H   0  0  0  0  0  0  0  0  0  0  0  0
   -3.2942    2.2085   -0.7803 H   0  0  0  0  0  0  0  0  0  0  0  0
   -1.9008    2.6920   -1.7922 H   0  0  0  0  0  0  0  0  0  0  0  0
   -2.2209    2.0941    1.5641 H   0  0  0  0  0  0  0  0  0  0  0  0
   -1.0250    0.7942    1.7880 H   0  0  0  0  0  0  0  0  0  0  0  0
   -1.6276   -1.5971    1.2587 H   0  0  0  0  0  0  0  0  0  0  0  0
   -3.4094   -3.2853    1.2823 H   0  0  0  0  0  0  0  0  0  0  0  0
   -8.5540   -3.7668    2.3780 H   0  0  0  0  0  0  0  0  0  0  0  0
   -7.9958   -4.4146    0.7858 H   0  0  0  0  0  0  0  0  0  0  0  0
   -9.2752   -3.1472    0.8407 H   0  0  0  0  0  0  0  0  0  0  0  0
   -6.6020    1.9932    1.2843 H   0  0  0  0  0  0  0  0  0  0  0  0
   -4.5375    1.5479    1.2194 H   0  0  0  0  0  0  0  0  0  0  0  0
   -0.0526   -0.9838   -0.3898 H   0  0  0  0  0  0  0  0  0  0  0  0
    2.3273   -1.2440   -0.9105 H   0  0  0  0  0  0  0  0  0  0  0  0
    4.7794    2.6396   -0.7815 H   0  0  0  0  0  0  0  0  0  0  0  0
    6.5756    1.2271   -2.6740 H   0  0  0  0  0  0  0  0  0  0  0  0
    6.9414    2.6679   -1.6771 H   0  0  0  0  0  0  0  0  0  0  0  0
    7.4638   -0.9067   -1.9137 H   0  0  0  0  0  0  0  0  0  0  0  0
    8.6342   -2.2283   -0.1760 H   0  0  0  0  0  0  0  0  0  0  0  0
    9.0251   -1.2467    2.0746 H   0  0  0  0  0  0  0  0  0  0  0  0
    8.2326    1.0606    2.5519 H   0  0  0  0  0  0  0  0  0  0  0  0
    2.6613    3.0405   -1.4076 H   0  0  0  0  0  0  0  0  0  0  0  0
    0.2977    3.2837   -0.8367 H   0  0  0  0  0  0  0  0  0  0  0  0
  1  2  3  0
  2  3  1  0
  3  4  1  0
  4  5  1  0
  5  6  1  0
  6  7  2  0
  7  8  1  0
  8  9  2  0
  9 10  1  0
 10 11  2  0
 11 12  1  0
 11 13  1  0
 13 14  2  0
 14 15  1  0
 14 16  1  0
 16 17  2  0
  4 18  1  0
 18 19  2  0
 19 20  1  0
 20 21  2  0
 21 22  1  0
 22 23  2  0
 22 24  1  0
 24 25  1  0
 25 26  1  0
 26 27  2  0
 27 28  1  0
 28 29  2  0
 29 30  1  0
 30 31  2  0
 21 32  1  0
 32 33  2  0
 17  6  1  0
 33 18  1  0
 16  9  1  0
 31 26  1  0
  1 34  1  0
  3 35  1  0
  3 36  1  0
  5 37  1  0
  5 38  1  0
  7 39  1  0
  8 40  1  0
 12 41  1  0
 12 42  1  0
 12 43  1  0
 15 44  1  0
 17 45  1  0
 19 46  1  0
 20 47  1  0
 24 48  1  0
 25 49  1  0
 25 50  1  0
 27 51  1  0
 28 52  1  0
 29 53  1  0
 30 54  1  0
 32 55  1  0
 33 56  1  0
M  END
$$$$
