
     RDKit          3D

 53 56  0  0  0  0  0  0  0  0999 V2000
   -4.2311   -2.1880    1.3151 C   0  0  0  0  0  0  0  0  0  0  0  0
   -3.8567   -0.9814    0.4559 C   0  0  0  0  0  0  0  0  0  0  0  0
   -3.1691   -1.3913   -0.8568 C   0  0  0  0  0  0  0  0  0  0  0  0
   -1.7386   -1.8448   -0.6313 C   0  0  0  0  0  0  0  0  0  0  0  0
   -1.5226   -3.2285   -0.5619 C   0  0  0  0  0  0  0  0  0  0  0  0
   -0.2438   -3.7187   -0.3343 C   0  0  0  0  0  0  0  0  0  0  0  0
   -0.0481   -4.9604   -0.2666 O   0  0  0  0  0  0  0  0  0  0  0  0
    0.7743   -2.8874   -0.1892 O   0  0  0  0  0  0  0  0  0  0  0  0
    0.6535   -1.5637   -0.2440 C   0  0  0  0  0  0  0  0  0  0  0  0
    1.8102   -0.7699   -0.0886 C   0  0  0  0  0  0  0  0  0  0  0  0
    1.6851    0.6317   -0.0532 C   0  0  0  0  0  0  0  0  0  0  0  0
    0.4401    1.2343   -0.2687 C   0  0  0  0  0  0  0  0  0  0  0  0
   -0.7106    0.4522   -0.4575 C   0  0  0  0  0  0  0  0  0  0  0  0
   -0.6236   -0.9667   -0.4516 C   0  0  0  0  0  0  0  0  0  0  0  0
   -1.9273    1.1147   -0.6647 O   0  0  0  0  0  0  0  0  0  0  0  0
   -2.1520    2.5020   -0.3798 C   0  0  0  0  0  0  0  0  0  0  0  0
   -3.1494    3.0457   -1.4084 C   0  0  0  0  0  0  0  0  0  0  0  0
   -2.7362    2.6318    1.0330 C   0  0  0  0  0  0  0  0  0  0  0  0
   -0.8674    3.2951   -0.4547 C   0  0  0  0  0  0  0  0  0  0  0  0
    0.3220    2.7047   -0.3407 C   0  0  0  0  0  0  0  0  0  0  0  0
    2.8050    1.4403    0.1874 O   0  0  0  0  0  0  0  0  0  0  0  0
    4.0551    0.9226    0.6356 C   0  0  1  0  0  0  0  0  0  0  0  0
    4.0477    0.8019    2.1637 C   0  0  0  0  0  0  0  0  0  0  0  0
    4.3504   -0.4207   -0.0652 C   0  0  2  0  0  0  0  0  0  0  0  0
    4.6497   -0.1820   -1.5578 C   0  0  0  0  0  0  0  0  0  0  0  0
    3.1733   -1.4159    0.1369 C   0  0  2  0  0  0  0  0  0  0  0  0
    3.3342   -2.5251   -0.7127 O   0  0  0  0  0  0  0  0  0  0  0  0
   -4.8905   -2.8792    0.7485 H   0  0  0  0  0  0  0  0  0  0  0  0
   -4.7746   -1.8432    2.2199 H   0  0  0  0  0  0  0  0  0  0  0  0
   -3.3195   -2.7315    1.6408 H   0  0  0  0  0  0  0  0  0  0  0  0
   -3.1985   -0.3143    1.0502 H   0  0  0  0  0  0  0  0  0  0  0  0
   -4.7838   -0.4189    0.2126 H   0  0  0  0  0  0  0  0  0  0  0  0
   -3.2103   -0.5721   -1.6008 H   0  0  0  0  0  0  0  0  0  0  0  0
   -3.7642   -2.2007   -1.3355 H   0  0  0  0  0  0  0  0  0  0  0  0
   -2.3454   -3.9255   -0.6755 H   0  0  0  0  0  0  0  0  0  0  0  0
   -3.3847    4.1135   -1.2072 H   0  0  0  0  0  0  0  0  0  0  0  0
   -2.7261    2.9607   -2.4324 H   0  0  0  0  0  0  0  0  0  0  0  0
   -4.0938    2.4608   -1.3743 H   0  0  0  0  0  0  0  0  0  0  0  0
   -2.0396    2.1905    1.7781 H   0  0  0  0  0  0  0  0  0  0  0  0
   -3.7066    2.0960    1.1022 H   0  0  0  0  0  0  0  0  0  0  0  0
   -2.9056    3.6993    1.2930 H   0  0  0  0  0  0  0  0  0  0  0  0
   -0.9131    4.3774   -0.4927 H   0  0  0  0  0  0  0  0  0  0  0  0
    1.2095    3.3252   -0.3228 H   0  0  0  0  0  0  0  0  0  0  0  0
    4.8496    1.6554    0.3737 H   0  0  0  0  0  0  0  0  0  0  0  0
    5.0014    0.3592    2.5216 H   0  0  0  0  0  0  0  0  0  0  0  0
    3.1996    0.1771    2.5128 H   0  0  0  0  0  0  0  0  0  0  0  0
    3.9393    1.8112    2.6142 H   0  0  0  0  0  0  0  0  0  0  0  0
    5.2670   -0.8643    0.3842 H   0  0  0  0  0  0  0  0  0  0  0  0
    4.9778   -1.1242   -2.0451 H   0  0  0  0  0  0  0  0  0  0  0  0
    3.7522    0.2015   -2.0880 H   0  0  0  0  0  0  0  0  0  0  0  0
    5.4734    0.5544   -1.6728 H   0  0  0  0  0  0  0  0  0  0  0  0
    3.1874   -1.7709    1.1931 H   0  0  0  0  0  0  0  0  0  0  0  0
    4.0749   -3.0697   -0.3374 H   0  0  0  0  0  0  0  0  0  0  0  0
  1  2  1  0
  2  3  1  0
  3  4  1  0
  4  5  2  0
  5  6  1  0
  6  7  2  0
  6  8  1  0
  8  9  1  0
  9 10  2  0
 10 11  1  0
 11 12  2  0
 12 13  1  0
 13 14  2  0
 13 15  1  0
 15 16  1  0
 16 17  1  0
 16 18  1  0
 16 19  1  0
 19 20  2  0
 11 21  1  0
 21 22  1  0
 22 23  1  0
 22 24  1  0
 24 25  1  0
 24 26  1  0
 26 27  1  0
 14  4  1  0
 14  9  1  0
 26 10  1  0
 20 12  1  0
  1 28  1  0
  1 29  1  0
  1 30  1  0
  2 31  1  0
  2 32  1  0
  3 33  1  0
  3 34  1  0
  5 35  1  0
 17 36  1  0
 17 37  1  0
 17 38  1  0
 18 39  1  0
 18 40  1  0
 18 41  1  0
 19 42  1  0
 20 43  1  0
 22 44  1  1
 23 45  1  0
 23 46  1  0
 23 47  1  0
 24 48  1  1
 25 49  1  0
 25 50  1  0
 25 51  1  0
 26 52  1  1
 27 53  1  0
M  END
$$$$
