
     RDKit          3D

 43 46  0  0  0  0  0  0  0  0999 V2000
    7.6899   -1.3336    1.4282 C   0  0  0  0  0  0  0  0  0  0  0  0
    6.3541   -1.0242    0.8342 C   0  0  0  0  0  0  0  0  0  0  0  0
    5.8726   -1.7954   -0.0390 O   0  0  0  0  0  0  0  0  0  0  0  0
    5.6490    0.1578    1.2466 N   0  0  0  0  0  0  0  0  0  0  0  0
    4.3598    0.5517    0.7523 C   0  0  0  0  0  0  0  0  0  0  0  0
    3.7920    1.6995    1.2104 N   0  0  0  0  0  0  0  0  0  0  0  0
    2.5730    2.1152    0.7747 C   0  0  0  0  0  0  0  0  0  0  0  0
    2.0310    3.2978    1.2725 O   0  0  0  0  0  0  0  0  0  0  0  0
    1.8761    1.3485   -0.1708 C   0  0  0  0  0  0  0  0  0  0  0  0
    0.6136    1.7243   -0.6588 C   0  0  0  0  0  0  0  0  0  0  0  0
   -0.0406    0.9239   -1.6062 C   0  0  0  0  0  0  0  0  0  0  0  0
   -1.6345    1.3824   -2.1930 S   0  0  0  0  0  6  0  0  0  0  0  0
   -1.7296    2.8796   -2.2933 O   0  0  0  0  0  0  0  0  0  0  0  0
   -1.8660    0.8075   -3.5630 O   0  0  0  0  0  0  0  0  0  0  0  0
   -2.8502    0.7731   -1.0768 C   0  0  0  0  0  0  0  0  0  0  0  0
   -3.3011    1.5760   -0.0207 C   0  0  0  0  0  0  0  0  0  0  0  0
   -4.2499    1.0888    0.8821 C   0  0  0  0  0  0  0  0  0  0  0  0
   -4.7537   -0.2125    0.7417 C   0  0  0  0  0  0  0  0  0  0  0  0
   -5.7057   -0.7133    1.6433 C   0  0  0  0  0  0  0  0  0  0  0  0
   -6.1966   -2.0137    1.4945 C   0  0  0  0  0  0  0  0  0  0  0  0
   -5.7423   -2.8219    0.4488 C   0  0  0  0  0  0  0  0  0  0  0  0
   -4.7942   -2.3354   -0.4559 C   0  0  0  0  0  0  0  0  0  0  0  0
   -4.2938   -1.0312   -0.3187 C   0  0  0  0  0  0  0  0  0  0  0  0
   -3.3414   -0.5315   -1.2197 C   0  0  0  0  0  0  0  0  0  0  0  0
    0.5619   -0.2602   -2.0541 C   0  0  0  0  0  0  0  0  0  0  0  0
    1.8183   -0.6383   -1.5724 C   0  0  0  0  0  0  0  0  0  0  0  0
    2.4785    0.1611   -0.6338 C   0  0  0  0  0  0  0  0  0  0  0  0
    3.6983   -0.2064   -0.1636 N   0  0  0  0  0  0  0  0  0  0  0  0
    8.0340   -2.3422    1.1144 H   0  0  0  0  0  0  0  0  0  0  0  0
    8.4290   -0.5778    1.0900 H   0  0  0  0  0  0  0  0  0  0  0  0
    7.6213   -1.3079    2.5358 H   0  0  0  0  0  0  0  0  0  0  0  0
    6.1044    0.7752    1.9566 H   0  0  0  0  0  0  0  0  0  0  0  0
    2.5325    3.8531    1.9554 H   0  0  0  0  0  0  0  0  0  0  0  0
    0.1354    2.6294   -0.3045 H   0  0  0  0  0  0  0  0  0  0  0  0
   -2.9148    2.5791    0.1075 H   0  0  0  0  0  0  0  0  0  0  0  0
   -4.5865    1.7268    1.6906 H   0  0  0  0  0  0  0  0  0  0  0  0
   -6.0684   -0.1013    2.4605 H   0  0  0  0  0  0  0  0  0  0  0  0
   -6.9307   -2.3963    2.1918 H   0  0  0  0  0  0  0  0  0  0  0  0
   -6.1259   -3.8281    0.3393 H   0  0  0  0  0  0  0  0  0  0  0  0
   -4.4533   -2.9763   -1.2603 H   0  0  0  0  0  0  0  0  0  0  0  0
   -2.9781   -1.1555   -2.0280 H   0  0  0  0  0  0  0  0  0  0  0  0
    0.0578   -0.8936   -2.7728 H   0  0  0  0  0  0  0  0  0  0  0  0
    2.2748   -1.5541   -1.9271 H   0  0  0  0  0  0  0  0  0  0  0  0
  1  2  1  0
  2  3  2  0
  2  4  1  0
  4  5  1  0
  5  6  2  0
  6  7  1  0
  7  8  1  0
  7  9  2  0
  9 10  1  0
 10 11  2  0
 11 12  1  0
 12 13  2  0
 12 14  2  0
 12 15  1  0
 15 16  2  0
 16 17  1  0
 17 18  2  0
 18 19  1  0
 19 20  2  0
 20 21  1  0
 21 22  2  0
 22 23  1  0
 23 24  2  0
 11 25  1  0
 25 26  2  0
 26 27  1  0
 27 28  2  0
 28  5  1  0
 27  9  1  0
 24 15  1  0
 23 18  1  0
  1 29  1  0
  1 30  1  0
  1 31  1  0
  4 32  1  0
  8 33  1  0
 10 34  1  0
 16 35  1  0
 17 36  1  0
 19 37  1  0
 20 38  1  0
 21 39  1  0
 22 40  1  0
 24 41  1  0
 25 42  1  0
 26 43  1  0
M  END
$$$$
