
     RDKit          3D

 52 54  0  0  0  0  0  0  0  0999 V2000
   -1.6494    4.2951   -2.8708 C   0  0  0  0  0  0  0  0  0  0  0  0
   -0.9437    3.9846   -1.5763 C   0  0  0  0  0  0  0  0  0  0  0  0
   -0.6640    5.0935   -0.5904 C   0  0  0  0  0  0  0  0  0  0  0  0
   -0.5735    2.7102   -1.3300 C   0  0  0  0  0  0  0  0  0  0  0  0
    0.1416    2.2873   -0.0668 C   0  0  0  0  0  0  0  0  0  0  0  0
    0.4076    0.7664   -0.0221 C   0  0  1  0  0  0  0  0  0  0  0  0
    1.1942    0.4389    1.1262 O   0  0  0  0  0  0  0  0  0  0  0  0
    2.5624    0.7127    1.2357 C   0  0  0  0  0  0  0  0  0  0  0  0
    3.1950    1.2427    0.2813 O   0  0  0  0  0  0  0  0  0  0  0  0
    3.2891    0.3282    2.4833 C   0  0  0  0  0  0  0  0  0  0  0  0
    4.0498   -0.9500    2.2636 C   0  0  0  0  0  0  0  0  0  0  0  0
    3.4055   -2.1908    2.4033 C   0  0  0  0  0  0  0  0  0  0  0  0
    4.1054   -3.3785    2.1635 C   0  0  0  0  0  0  0  0  0  0  0  0
    5.4476   -3.3349    1.7748 C   0  0  0  0  0  0  0  0  0  0  0  0
    6.0916   -2.1036    1.6221 C   0  0  0  0  0  0  0  0  0  0  0  0
    5.3956   -0.9143    1.8602 C   0  0  0  0  0  0  0  0  0  0  0  0
   -0.8911   -0.0213    0.0354 C   0  0  0  0  0  0  0  0  0  0  0  0
   -1.6577    0.0408    1.1344 C   0  0  0  0  0  0  0  0  0  0  0  0
   -2.9441   -0.6639    1.2193 C   0  0  0  0  0  0  0  0  0  0  0  0
   -3.6473   -0.5117    2.2537 O   0  0  0  0  0  0  0  0  0  0  0  0
   -3.3876   -1.5490    0.1098 C   0  0  0  0  0  0  0  0  0  0  0  0
   -4.6185   -2.2417    0.1699 C   0  0  0  0  0  0  0  0  0  0  0  0
   -5.4704   -2.0934    1.2649 O   0  0  0  0  0  0  0  0  0  0  0  0
   -4.9968   -3.0831   -0.8791 C   0  0  0  0  0  0  0  0  0  0  0  0
   -4.1519   -3.2768   -1.9665 C   0  0  0  0  0  0  0  0  0  0  0  0
   -2.9169   -2.6293   -2.0364 C   0  0  0  0  0  0  0  0  0  0  0  0
   -2.0845   -2.9663   -3.1066 O   0  0  0  0  0  0  0  0  0  0  0  0
   -2.5483   -1.7004   -1.0243 C   0  0  0  0  0  0  0  0  0  0  0  0
   -1.3406   -0.8278   -1.1301 C   0  0  0  0  0  0  0  0  0  0  0  0
   -0.7321   -0.7070   -2.2266 O   0  0  0  0  0  0  0  0  0  0  0  0
   -2.5859    3.7014   -2.9391 H   0  0  0  0  0  0  0  0  0  0  0  0
   -1.9148    5.3703   -2.9471 H   0  0  0  0  0  0  0  0  0  0  0  0
   -0.9919    4.0357   -3.7276 H   0  0  0  0  0  0  0  0  0  0  0  0
    0.4296    5.1810   -0.4182 H   0  0  0  0  0  0  0  0  0  0  0  0
   -1.0305    6.0722   -0.9639 H   0  0  0  0  0  0  0  0  0  0  0  0
   -1.1737    4.8818    0.3732 H   0  0  0  0  0  0  0  0  0  0  0  0
   -0.7953    1.9545   -2.0783 H   0  0  0  0  0  0  0  0  0  0  0  0
    1.1105    2.8273   -0.0182 H   0  0  0  0  0  0  0  0  0  0  0  0
   -0.4570    2.5872    0.8197 H   0  0  0  0  0  0  0  0  0  0  0  0
    0.9829    0.4773   -0.9294 H   0  0  0  0  0  0  0  0  0  0  0  0
    3.9805    1.1480    2.7761 H   0  0  0  0  0  0  0  0  0  0  0  0
    2.5622    0.2010    3.3141 H   0  0  0  0  0  0  0  0  0  0  0  0
    2.3633   -2.2373    2.6951 H   0  0  0  0  0  0  0  0  0  0  0  0
    3.6061   -4.3326    2.2751 H   0  0  0  0  0  0  0  0  0  0  0  0
    5.9876   -4.2549    1.5880 H   0  0  0  0  0  0  0  0  0  0  0  0
    7.1290   -2.0711    1.3144 H   0  0  0  0  0  0  0  0  0  0  0  0
    5.9038    0.0325    1.7286 H   0  0  0  0  0  0  0  0  0  0  0  0
   -1.3417    0.6341    1.9845 H   0  0  0  0  0  0  0  0  0  0  0  0
   -6.3569   -2.5812    1.3206 H   0  0  0  0  0  0  0  0  0  0  0  0
   -5.9425   -3.6090   -0.8409 H   0  0  0  0  0  0  0  0  0  0  0  0
   -4.4458   -3.9632   -2.7510 H   0  0  0  0  0  0  0  0  0  0  0  0
   -1.0865   -2.8116   -3.1138 H   0  0  0  0  0  0  0  0  0  0  0  0
  1  2  1  0
  2  3  1  0
  2  4  2  3
  4  5  1  0
  5  6  1  0
  6  7  1  0
  7  8  1  0
  8  9  2  0
  8 10  1  0
 10 11  1  0
 11 12  2  0
 12 13  1  0
 13 14  2  0
 14 15  1  0
 15 16  2  0
  6 17  1  0
 17 18  2  0
 18 19  1  0
 19 20  2  0
 19 21  1  0
 21 22  2  0
 22 23  1  0
 22 24  1  0
 24 25  2  0
 25 26  1  0
 26 27  1  0
 26 28  2  0
 28 29  1  0
 29 30  2  0
 16 11  1  0
 29 17  1  0
 28 21  1  0
  1 31  1  0
  1 32  1  0
  1 33  1  0
  3 34  1  0
  3 35  1  0
  3 36  1  0
  4 37  1  0
  5 38  1  0
  5 39  1  0
  6 40  1  6
 10 41  1  0
 10 42  1  0
 12 43  1  0
 13 44  1  0
 14 45  1  0
 15 46  1  0
 16 47  1  0
 18 48  1  0
 23 49  1  0
 24 50  1  0
 25 51  1  0
 27 52  1  0
M  END
$$$$
