
     RDKit          3D

 53 56  0  0  0  0  0  0  0  0999 V2000
    0.6878    0.0000    0.0000 Cl  0  0  0  0  0  0  0  0  0  0  0  0
   -1.1566    1.6148   -1.7437 O   0  0  0  0  0  0  0  0  0  0  0  0
   -1.5820    0.7474   -0.9325 C   0  0  0  0  0  0  0  0  0  0  0  0
   -2.5430    1.1497    0.1698 C   0  0  2  0  0  0  0  0  0  0  0  0
   -3.9637    0.6799   -0.1128 C   0  0  0  0  0  0  0  0  0  0  0  0
   -4.8419    1.6834    0.6117 C   0  0  0  0  0  0  0  0  0  0  0  0
   -3.9089    2.8195    1.0211 C   0  0  0  0  0  0  0  0  0  0  0  0
   -2.6199    2.6005    0.3669 N   0  0  0  0  0  0  0  0  0  0  0  0
   -1.2085   -0.6285   -1.1279 N   0  0  0  0  0  0  0  0  0  0  0  0
   -0.9800   -1.1664   -2.4597 C   0  0  0  0  0  0  0  0  0  0  0  0
   -0.8671   -2.6761   -2.2874 C   0  0  0  0  0  0  0  0  0  0  0  0
   -1.4088   -2.9711   -0.8918 C   0  0  0  0  0  0  0  0  0  0  0  0
   -1.2519   -1.6687   -0.1079 C   0  0  0  0  0  0  0  0  0  0  0  0
    0.3094   -1.6799    0.8477 P   0  0  0  0  0  5  0  0  0  0  0  0
    0.2665   -2.8149    1.8453 O   0  0  0  0  0  0  0  0  0  0  0  0
    0.5675   -0.2137    1.7013 O   0  0  0  0  0  0  0  0  0  0  0  0
    1.2328    0.8727    1.1316 C   0  0  0  0  0  0  0  0  0  0  0  0
    0.6159    2.1270    1.2157 C   0  0  0  0  0  0  0  0  0  0  0  0
    1.1815    3.2431    0.6006 C   0  0  0  0  0  0  0  0  0  0  0  0
    2.3916    3.1236   -0.0787 C   0  0  0  0  0  0  0  0  0  0  0  0
    3.0574    1.8971   -0.1086 C   0  0  0  0  0  0  0  0  0  0  0  0
    2.5063    0.7595    0.5146 C   0  0  0  0  0  0  0  0  0  0  0  0
    3.3541   -0.4609    0.6244 C   0  0  0  0  0  0  0  0  0  0  0  0
    4.6795   -0.3288    1.0843 C   0  0  0  0  0  0  0  0  0  0  0  0
    5.5456   -1.4249    1.0926 C   0  0  0  0  0  0  0  0  0  0  0  0
    5.1072   -2.6652    0.6298 C   0  0  0  0  0  0  0  0  0  0  0  0
    3.7966   -2.8153    0.1753 C   0  0  0  0  0  0  0  0  0  0  0  0
    2.9129   -1.7295    0.1903 C   0  0  0  0  0  0  0  0  0  0  0  0
    1.6085   -1.9334   -0.2333 O   0  0  0  0  0  0  0  0  0  0  0  0
   -0.6878    0.0000    0.0000 H   0  0  0  0  0  0  0  0  0  0  0  0
   -2.1952    0.6981    1.1250 H   0  0  0  0  0  0  0  0  0  0  0  0
   -4.1382   -0.3515    0.2616 H   0  0  0  0  0  0  0  0  0  0  0  0
   -4.1803    0.7168   -1.2042 H   0  0  0  0  0  0  0  0  0  0  0  0
   -5.3062    1.2216    1.5107 H   0  0  0  0  0  0  0  0  0  0  0  0
   -5.6439    2.0564   -0.0624 H   0  0  0  0  0  0  0  0  0  0  0  0
   -3.7601    2.8098    2.1231 H   0  0  0  0  0  0  0  0  0  0  0  0
   -4.3360    3.8072    0.7362 H   0  0  0  0  0  0  0  0  0  0  0  0
   -2.6768    3.0777   -0.5643 H   0  0  0  0  0  0  0  0  0  0  0  0
   -1.8435   -0.9210   -3.1160 H   0  0  0  0  0  0  0  0  0  0  0  0
   -0.0460   -0.7448   -2.8902 H   0  0  0  0  0  0  0  0  0  0  0  0
    0.2000   -2.9831   -2.3468 H   0  0  0  0  0  0  0  0  0  0  0  0
   -1.4452   -3.2184   -3.0668 H   0  0  0  0  0  0  0  0  0  0  0  0
   -2.4906   -3.2185   -0.9703 H   0  0  0  0  0  0  0  0  0  0  0  0
   -0.8860   -3.8344   -0.4255 H   0  0  0  0  0  0  0  0  0  0  0  0
   -2.1126   -1.5441    0.5792 H   0  0  0  0  0  0  0  0  0  0  0  0
   -0.3185    2.2326    1.7493 H   0  0  0  0  0  0  0  0  0  0  0  0
    0.6798    4.2008    0.6500 H   0  0  0  0  0  0  0  0  0  0  0  0
    2.8303    3.9893   -0.5578 H   0  0  0  0  0  0  0  0  0  0  0  0
    4.0196    1.8394   -0.6030 H   0  0  0  0  0  0  0  0  0  0  0  0
    5.0472    0.6293    1.4309 H   0  0  0  0  0  0  0  0  0  0  0  0
    6.5616   -1.3088    1.4472 H   0  0  0  0  0  0  0  0  0  0  0  0
    5.7816   -3.5117    0.6275 H   0  0  0  0  0  0  0  0  0  0  0  0
    3.4579   -3.7833   -0.1719 H   0  0  0  0  0  0  0  0  0  0  0  0
  2  3  2  0
  3  4  1  0
  4  5  1  0
  5  6  1  0
  6  7  1  0
  7  8  1  0
  3  9  1  0
  9 10  1  0
 10 11  1  0
 11 12  1  0
 12 13  1  0
 13 14  1  0
 14 15  2  0
 14 16  1  0
 16 17  1  0
 17 18  2  0
 18 19  1  0
 19 20  2  0
 20 21  1  0
 21 22  2  0
 22 23  1  0
 23 24  2  0
 24 25  1  0
 25 26  2  0
 26 27  1  0
 27 28  2  0
 28 29  1  0
  8  4  1  0
 13  9  1  0
 29 14  1  0
 22 17  1  0
 28 23  1  0
  1 30  1  0
  4 31  1  1
  5 32  1  0
  5 33  1  0
  6 34  1  0
  6 35  1  0
  7 36  1  0
  7 37  1  0
  8 38  1  0
 10 39  1  0
 10 40  1  0
 11 41  1  0
 11 42  1  0
 12 43  1  0
 12 44  1  0
 13 45  1  0
 18 46  1  0
 19 47  1  0
 20 48  1  0
 21 49  1  0
 24 50  1  0
 25 51  1  0
 26 52  1  0
 27 53  1  0
M  END
$$$$
