
     RDKit          3D

 50 52  0  0  0  0  0  0  0  0999 V2000
    8.0013    0.6410    0.0923 C   0  0  0  0  0  0  0  0  0  0  0  0
    7.4517    0.1084   -1.1103 O   0  0  0  0  0  0  0  0  0  0  0  0
    6.0892   -0.1704   -1.3536 C   0  0  0  0  0  0  0  0  0  0  0  0
    5.1484    0.0801   -0.3396 C   0  0  0  0  0  0  0  0  0  0  0  0
    3.7691   -0.0880   -0.3342 C   0  0  0  0  0  0  0  0  0  0  0  0
    2.9299   -0.5531   -1.3431 C   0  0  0  0  0  0  0  0  0  0  0  0
    1.4831   -0.6131   -1.0312 C   0  0  0  0  0  0  0  0  0  0  0  0
    0.9582   -1.8221   -0.5548 C   0  0  0  0  0  0  0  0  0  0  0  0
   -0.3930   -1.9322   -0.2309 C   0  0  0  0  0  0  0  0  0  0  0  0
   -1.2528   -0.8345   -0.3808 C   0  0  0  0  0  0  0  0  0  0  0  0
   -2.6477   -0.9360   -0.0301 N   0  0  0  0  0  0  0  0  0  0  0  0
   -3.4608    0.1387    0.5316 C   0  0  0  0  0  0  0  0  0  0  0  0
   -4.8270   -0.5183    0.8855 C   0  0  0  0  0  0  0  0  0  0  0  0
   -5.1357   -0.4722    2.3881 C   0  0  0  0  0  0  0  0  0  0  0  0
   -5.2816    0.9072    2.8513 N   0  0  0  0  0  0  0  0  0  0  0  0
   -6.4299    1.7093    2.5441 C   0  0  0  0  0  0  0  0  0  0  0  0
   -6.5073    3.1189    3.0323 C   0  0  0  0  0  0  0  0  0  0  0  0
   -7.3972    1.2204    1.9000 O   0  0  0  0  0  0  0  0  0  0  0  0
   -4.7133   -1.8726    0.4616 O   0  0  0  0  0  0  0  0  0  0  0  0
   -3.4632   -2.0928   -0.0659 C   0  0  0  0  0  0  0  0  0  0  0  0
   -3.1147   -3.1900   -0.5754 O   0  0  0  0  0  0  0  0  0  0  0  0
   -0.7291    0.3829   -0.8472 C   0  0  0  0  0  0  0  0  0  0  0  0
    0.6321    0.5095   -1.1910 C   0  0  0  0  0  0  0  0  0  0  0  0
    1.1686    1.8354   -1.6981 C   0  0  0  0  0  0  0  0  0  0  0  0
    0.1554    2.7561   -1.9038 F   0  0  0  0  0  0  0  0  0  0  0  0
    1.8257    1.6505   -2.9008 F   0  0  0  0  0  0  0  0  0  0  0  0
    2.0516    2.3622   -0.7743 F   0  0  0  0  0  0  0  0  0  0  0  0
    3.3153   -1.0037   -2.6022 C   0  0  0  0  0  0  0  0  0  0  0  0
    4.5842   -1.0610   -3.1602 C   0  0  0  0  0  0  0  0  0  0  0  0
    5.8196   -0.6902   -2.6291 C   0  0  0  0  0  0  0  0  0  0  0  0
    6.8102   -0.8475   -3.3958 O   0  0  0  0  0  0  0  0  0  0  0  0
    7.8107   -0.0502    0.9402 H   0  0  0  0  0  0  0  0  0  0  0  0
    7.5690    1.6423    0.3012 H   0  0  0  0  0  0  0  0  0  0  0  0
    9.0983    0.7513   -0.0307 H   0  0  0  0  0  0  0  0  0  0  0  0
    5.5231    0.4709    0.5953 H   0  0  0  0  0  0  0  0  0  0  0  0
    3.2847    0.1940    0.5958 H   0  0  0  0  0  0  0  0  0  0  0  0
    1.6041   -2.6819   -0.4223 H   0  0  0  0  0  0  0  0  0  0  0  0
   -0.7544   -2.8701    0.1670 H   0  0  0  0  0  0  0  0  0  0  0  0
   -3.6141    0.9347   -0.2281 H   0  0  0  0  0  0  0  0  0  0  0  0
   -2.9517    0.5688    1.4215 H   0  0  0  0  0  0  0  0  0  0  0  0
   -5.6448   -0.0316    0.3112 H   0  0  0  0  0  0  0  0  0  0  0  0
   -4.3106   -0.9646    2.9486 H   0  0  0  0  0  0  0  0  0  0  0  0
   -6.0692   -1.0377    2.5995 H   0  0  0  0  0  0  0  0  0  0  0  0
   -4.5412    1.3035    3.4737 H   0  0  0  0  0  0  0  0  0  0  0  0
   -5.5272    3.6213    2.8916 H   0  0  0  0  0  0  0  0  0  0  0  0
   -6.7695    3.1222    4.1109 H   0  0  0  0  0  0  0  0  0  0  0  0
   -7.2809    3.6824    2.4691 H   0  0  0  0  0  0  0  0  0  0  0  0
   -1.3928    1.2294   -0.9535 H   0  0  0  0  0  0  0  0  0  0  0  0
    2.5194   -1.3534   -3.2524 H   0  0  0  0  0  0  0  0  0  0  0  0
    4.6067   -1.4511   -4.1731 H   0  0  0  0  0  0  0  0  0  0  0  0
  1  2  1  0
  2  3  1  0
  3  4  2  0
  4  5  1  0
  5  6  2  0
  6  7  1  0
  7  8  2  0
  8  9  1  0
  9 10  2  0
 10 11  1  0
 11 12  1  0
 12 13  1  0
 13 14  1  0
 14 15  1  0
 15 16  1  0
 16 17  1  0
 16 18  2  0
 13 19  1  0
 19 20  1  0
 20 21  2  0
 10 22  1  0
 22 23  2  0
 23 24  1  0
 24 25  1  0
 24 26  1  0
 24 27  1  0
  6 28  1  0
 28 29  2  0
 29 30  1  0
 30 31  2  0
 30  3  1  0
 23  7  1  0
 20 11  1  0
  1 32  1  0
  1 33  1  0
  1 34  1  0
  4 35  1  0
  5 36  1  0
  8 37  1  0
  9 38  1  0
 12 39  1  0
 12 40  1  0
 13 41  1  0
 14 42  1  0
 14 43  1  0
 15 44  1  0
 17 45  1  0
 17 46  1  0
 17 47  1  0
 22 48  1  0
 28 49  1  0
 29 50  1  0
M  END
$$$$
