
     RDKit          3D

 50 52  0  0  0  0  0  0  0  0999 V2000
    7.3625   -1.7711   -0.2137 C   0  0  0  0  0  0  0  0  0  0  0  0
    5.9070   -1.4887    0.1347 C   0  0  0  0  0  0  0  0  0  0  0  0
    5.6918   -0.0391    0.2279 N   0  0  0  0  0  0  0  0  0  0  0  0
    4.4371    0.3034    0.9191 C   0  0  0  0  0  0  0  0  0  0  0  0
    3.1701   -0.0712    0.1141 C   0  0  0  0  0  0  0  0  0  0  0  0
    3.0506    0.6728   -1.2238 C   0  0  0  0  0  0  0  0  0  0  0  0
    1.5563    0.8556   -1.4554 C   0  0  0  0  0  0  0  0  0  0  0  0
    0.9447    0.6943   -0.1485 N   0  0  0  0  0  0  0  0  0  0  0  0
   -0.4455    0.9417    0.1093 C   0  0  0  0  0  0  0  0  0  0  0  0
   -0.8184    1.9594    0.9877 C   0  0  0  0  0  0  0  0  0  0  0  0
    0.1211    2.7437    1.5730 F   0  0  0  0  0  0  0  0  0  0  0  0
   -2.1602    2.1893    1.2613 C   0  0  0  0  0  0  0  0  0  0  0  0
   -3.1653    1.4171    0.6496 C   0  0  0  0  0  0  0  0  0  0  0  0
   -4.5172    1.6530    0.9576 C   0  0  0  0  0  0  0  0  0  0  0  0
   -4.8263    2.5598    1.7801 O   0  0  0  0  0  0  0  0  0  0  0  0
   -5.5197    0.8787    0.3568 C   0  0  0  0  0  0  0  0  0  0  0  0
   -6.9633    1.0777    0.6673 C   0  0  0  0  0  0  0  0  0  0  0  0
   -7.8395    0.3743    0.0946 O   0  0  0  0  0  0  0  0  0  0  0  0
   -7.3714    2.0365    1.5912 O   0  0  0  0  0  0  0  0  0  0  0  0
   -5.1404   -0.1019   -0.5674 C   0  0  0  0  0  0  0  0  0  0  0  0
   -3.8299   -0.3252   -0.8994 N   0  0  0  0  0  0  0  0  0  0  0  0
   -3.6005   -1.3471   -1.9439 C   0  0  0  0  0  0  0  0  0  0  0  0
   -3.4607   -2.7496   -1.3382 C   0  0  0  0  0  0  0  0  0  0  0  0
   -4.6797   -3.1661   -0.8345 F   0  0  0  0  0  0  0  0  0  0  0  0
   -3.0587   -3.6357   -2.3206 F   0  0  0  0  0  0  0  0  0  0  0  0
   -2.5305   -2.7609   -0.3156 F   0  0  0  0  0  0  0  0  0  0  0  0
   -2.8171    0.3920   -0.2772 C   0  0  0  0  0  0  0  0  0  0  0  0
   -1.4281    0.1537   -0.5118 C   0  0  0  0  0  0  0  0  0  0  0  0
   -0.9843   -0.8775   -1.2695 F   0  0  0  0  0  0  0  0  0  0  0  0
    1.8853    0.2705    0.8729 C   0  0  0  0  0  0  0  0  0  0  0  0
    7.5271   -2.8676   -0.2740 H   0  0  0  0  0  0  0  0  0  0  0  0
    8.0300   -1.3503    0.5681 H   0  0  0  0  0  0  0  0  0  0  0  0
    7.6167   -1.3165   -1.1948 H   0  0  0  0  0  0  0  0  0  0  0  0
    5.6790   -1.9849    1.1041 H   0  0  0  0  0  0  0  0  0  0  0  0
    5.2614   -1.9276   -0.6571 H   0  0  0  0  0  0  0  0  0  0  0  0
    5.6923    0.3724   -0.7342 H   0  0  0  0  0  0  0  0  0  0  0  0
    4.4066   -0.1941    1.9139 H   0  0  0  0  0  0  0  0  0  0  0  0
    4.4364    1.3977    1.1159 H   0  0  0  0  0  0  0  0  0  0  0  0
    3.1586   -1.1649   -0.0866 H   0  0  0  0  0  0  0  0  0  0  0  0
    3.5181    0.0948   -2.0505 H   0  0  0  0  0  0  0  0  0  0  0  0
    3.5317    1.6741   -1.1595 H   0  0  0  0  0  0  0  0  0  0  0  0
    1.1769    0.0792   -2.1530 H   0  0  0  0  0  0  0  0  0  0  0  0
    1.3408    1.8675   -1.8618 H   0  0  0  0  0  0  0  0  0  0  0  0
   -2.4098    2.9817    1.9567 H   0  0  0  0  0  0  0  0  0  0  0  0
   -8.3529    2.1715    1.8029 H   0  0  0  0  0  0  0  0  0  0  0  0
   -5.9179   -0.6920   -1.0407 H   0  0  0  0  0  0  0  0  0  0  0  0
   -2.7509   -1.0851   -2.6021 H   0  0  0  0  0  0  0  0  0  0  0  0
   -4.4557   -1.3689   -2.6571 H   0  0  0  0  0  0  0  0  0  0  0  0
    2.0446    1.0972    1.5979 H   0  0  0  0  0  0  0  0  0  0  0  0
    1.4969   -0.6235    1.4078 H   0  0  0  0  0  0  0  0  0  0  0  0
  1  2  1  0
  2  3  1  0
  3  4  1  0
  4  5  1  0
  5  6  1  0
  6  7  1  0
  7  8  1  0
  8  9  1  0
  9 10  2  0
 10 11  1  0
 10 12  1  0
 12 13  2  0
 13 14  1  0
 14 15  2  0
 14 16  1  0
 16 17  1  0
 17 18  2  0
 17 19  1  0
 16 20  2  0
 20 21  1  0
 21 22  1  0
 22 23  1  0
 23 24  1  0
 23 25  1  0
 23 26  1  0
 21 27  1  0
 27 28  2  0
 28 29  1  0
  8 30  1  0
 30  5  1  0
 28  9  1  0
 27 13  1  0
  1 31  1  0
  1 32  1  0
  1 33  1  0
  2 34  1  0
  2 35  1  0
  3 36  1  0
  4 37  1  0
  4 38  1  0
  5 39  1  0
  6 40  1  0
  6 41  1  0
  7 42  1  0
  7 43  1  0
 12 44  1  0
 19 45  1  0
 20 46  1  0
 22 47  1  0
 22 48  1  0
 30 49  1  0
 30 50  1  0
M  END
$$$$
