
     RDKit          3D

 41 44  0  0  0  0  0  0  0  0999 V2000
   -2.3868   -6.1422    1.5426 Cl  0  0  0  0  0  0  0  0  0  0  0  0
   -2.1354   -4.5045    0.9668 C   0  0  0  0  0  0  0  0  0  0  0  0
   -2.8023   -4.0564   -0.1813 C   0  0  0  0  0  0  0  0  0  0  0  0
   -2.6050   -2.7513   -0.6459 C   0  0  0  0  0  0  0  0  0  0  0  0
   -1.7394   -1.8923    0.0391 C   0  0  0  0  0  0  0  0  0  0  0  0
   -1.5362   -0.6223   -0.3957 N   0  0  0  0  0  0  0  0  0  0  0  0
   -0.7014    0.2303    0.2600 C   0  0  0  0  0  0  0  0  0  0  0  0
   -0.5204    1.5653   -0.2400 N   0  0  0  0  0  0  0  0  0  0  0  0
   -0.3171    1.7910   -1.6718 C   0  0  0  0  0  0  0  0  0  0  0  0
   -1.5729    2.4420   -2.2625 C   0  0  0  0  0  0  0  0  0  0  0  0
   -1.9436    3.6537   -1.5138 N   0  0  0  0  0  0  0  0  0  0  0  0
   -2.1804    3.3530   -0.0925 C   0  0  0  0  0  0  0  0  0  0  0  0
   -0.9442    2.7180    0.5575 C   0  0  0  0  0  0  0  0  0  0  0  0
   -0.0190   -0.2265    1.4063 C   0  0  0  0  0  0  0  0  0  0  0  0
    1.1673    0.7998    2.2795 S   0  0  0  0  0  0  0  0  0  0  0  0
    2.5322    0.2546    1.2538 C   0  0  0  0  0  0  0  0  0  0  0  0
    3.2314   -0.9155    1.5775 C   0  0  0  0  0  0  0  0  0  0  0  0
    4.2893   -1.3448    0.7696 C   0  0  0  0  0  0  0  0  0  0  0  0
    4.6533   -0.6038   -0.3594 C   0  0  0  0  0  0  0  0  0  0  0  0
    3.9617    0.5689   -0.6793 C   0  0  0  0  0  0  0  0  0  0  0  0
    2.9042    0.9999    0.1278 C   0  0  0  0  0  0  0  0  0  0  0  0
   -0.2250   -1.4982    1.8414 N   0  0  0  0  0  0  0  0  0  0  0  0
   -1.0688   -2.3414    1.1929 C   0  0  0  0  0  0  0  0  0  0  0  0
   -1.2675   -3.6470    1.6544 C   0  0  0  0  0  0  0  0  0  0  0  0
   -3.4730   -4.7186   -0.7137 H   0  0  0  0  0  0  0  0  0  0  0  0
   -3.1237   -2.4118   -1.5338 H   0  0  0  0  0  0  0  0  0  0  0  0
    0.5513    2.4695   -1.8157 H   0  0  0  0  0  0  0  0  0  0  0  0
   -0.0948    0.8386   -2.2012 H   0  0  0  0  0  0  0  0  0  0  0  0
   -2.4160    1.7166   -2.2450 H   0  0  0  0  0  0  0  0  0  0  0  0
   -1.3820    2.7104   -3.3237 H   0  0  0  0  0  0  0  0  0  0  0  0
   -1.1639    4.3494   -1.5872 H   0  0  0  0  0  0  0  0  0  0  0  0
   -3.0492    2.6652    0.0049 H   0  0  0  0  0  0  0  0  0  0  0  0
   -2.4342    4.2926    0.4438 H   0  0  0  0  0  0  0  0  0  0  0  0
   -1.1915    2.4186    1.5990 H   0  0  0  0  0  0  0  0  0  0  0  0
   -0.1187    3.4613    0.5957 H   0  0  0  0  0  0  0  0  0  0  0  0
    2.9515   -1.4951    2.4480 H   0  0  0  0  0  0  0  0  0  0  0  0
    4.8259   -2.2514    1.0176 H   0  0  0  0  0  0  0  0  0  0  0  0
    5.4717   -0.9368   -0.9844 H   0  0  0  0  0  0  0  0  0  0  0  0
    4.2459    1.1441   -1.5509 H   0  0  0  0  0  0  0  0  0  0  0  0
    2.3778    1.9119   -0.1209 H   0  0  0  0  0  0  0  0  0  0  0  0
   -0.7507   -3.9948    2.5406 H   0  0  0  0  0  0  0  0  0  0  0  0
  1  2  1  0
  2  3  2  0
  3  4  1  0
  4  5  2  0
  5  6  1  0
  6  7  2  0
  7  8  1  0
  8  9  1  0
  9 10  1  0
 10 11  1  0
 11 12  1  0
 12 13  1  0
  7 14  1  0
 14 15  1  0
 15 16  1  0
 16 17  2  0
 17 18  1  0
 18 19  2  0
 19 20  1  0
 20 21  2  0
 14 22  2  0
 22 23  1  0
 23 24  2  0
 24  2  1  0
 23  5  1  0
 13  8  1  0
 21 16  1  0
  3 25  1  0
  4 26  1  0
  9 27  1  0
  9 28  1  0
 10 29  1  0
 10 30  1  0
 11 31  1  0
 12 32  1  0
 12 33  1  0
 13 34  1  0
 13 35  1  0
 17 36  1  0
 18 37  1  0
 19 38  1  0
 20 39  1  0
 21 40  1  0
 24 41  1  0
M  END
$$$$
