
     RDKit          3D

 45 48  0  0  0  0  0  0  0  0999 V2000
   -3.1269    4.0210    0.0902 C   0  0  0  0  0  0  0  0  0  0  0  0
   -2.9404    2.5671   -0.0290 N   0  0  0  0  0  0  0  0  0  0  0  0
   -2.7220    1.9758    1.3061 C   0  0  0  0  0  0  0  0  0  0  0  0
   -2.3911    0.5099    1.2172 C   0  0  0  0  0  0  0  0  0  0  0  0
   -1.8434   -0.0283    0.1160 C   0  0  0  0  0  0  0  0  0  0  0  0
   -1.4395   -1.4523    0.1174 C   0  0  0  0  0  0  0  0  0  0  0  0
   -2.4053   -2.4616    0.2328 C   0  0  0  0  0  0  0  0  0  0  0  0
   -3.7576   -2.1297    0.3228 O   0  0  0  0  0  0  0  0  0  0  0  0
   -2.0123   -3.8016    0.2570 C   0  0  0  0  0  0  0  0  0  0  0  0
   -0.6644   -4.1656    0.1781 C   0  0  0  0  0  0  0  0  0  0  0  0
   -0.3814   -5.5294    0.3009 O   0  0  0  0  0  0  0  0  0  0  0  0
    0.3280   -3.1564    0.0072 C   0  0  0  0  0  0  0  0  0  0  0  0
    1.7096   -3.4100   -0.1780 C   0  0  0  0  0  0  0  0  0  0  0  0
    2.1670   -4.5778   -0.2764 O   0  0  0  0  0  0  0  0  0  0  0  0
    2.6030   -2.3437   -0.2847 C   0  0  0  0  0  0  0  0  0  0  0  0
    2.1196   -1.0313   -0.2456 C   0  0  0  0  0  0  0  0  0  0  0  0
    3.0303    0.1346   -0.3666 C   0  0  0  0  0  0  0  0  0  0  0  0
    4.1201    0.0827   -1.2577 C   0  0  0  0  0  0  0  0  0  0  0  0
    4.9699    1.1807   -1.4091 C   0  0  0  0  0  0  0  0  0  0  0  0
    4.7439    2.3480   -0.6784 C   0  0  0  0  0  0  0  0  0  0  0  0
    5.8125    3.7256   -0.8720 Cl  0  0  0  0  0  0  0  0  0  0  0  0
    3.6657    2.4183    0.2065 C   0  0  0  0  0  0  0  0  0  0  0  0
    2.8061    1.3244    0.3678 C   0  0  0  0  0  0  0  0  0  0  0  0
    1.4982    1.4778    1.5394 Cl  0  0  0  0  0  0  0  0  0  0  0  0
    0.8170   -0.8216   -0.1142 O   0  0  0  0  0  0  0  0  0  0  0  0
   -0.0814   -1.7955   -0.0000 C   0  0  0  0  0  0  0  0  0  0  0  0
   -1.7231    0.7669   -1.1625 C   0  0  0  0  0  0  0  0  0  0  0  0
   -1.7919    2.2732   -0.9035 C   0  0  0  0  0  0  0  0  0  0  0  0
   -2.2170    4.5142    0.5001 H   0  0  0  0  0  0  0  0  0  0  0  0
   -3.3576    4.4578   -0.9051 H   0  0  0  0  0  0  0  0  0  0  0  0
   -3.9896    4.2429    0.7548 H   0  0  0  0  0  0  0  0  0  0  0  0
   -3.6457    2.0852    1.9146 H   0  0  0  0  0  0  0  0  0  0  0  0
   -1.8895    2.4897    1.8385 H   0  0  0  0  0  0  0  0  0  0  0  0
   -2.4823   -0.0858    2.1182 H   0  0  0  0  0  0  0  0  0  0  0  0
   -4.4752   -2.8401    0.4070 H   0  0  0  0  0  0  0  0  0  0  0  0
   -2.7635   -4.5742    0.3672 H   0  0  0  0  0  0  0  0  0  0  0  0
    0.5220   -5.9149    0.5285 H   0  0  0  0  0  0  0  0  0  0  0  0
    3.6629   -2.5410   -0.3934 H   0  0  0  0  0  0  0  0  0  0  0  0
    4.3034   -0.7993   -1.8581 H   0  0  0  0  0  0  0  0  0  0  0  0
    5.8004    1.1246   -2.1013 H   0  0  0  0  0  0  0  0  0  0  0  0
    3.4976    3.3247    0.7748 H   0  0  0  0  0  0  0  0  0  0  0  0
   -0.7698    0.5313   -1.6812 H   0  0  0  0  0  0  0  0  0  0  0  0
   -2.5592    0.4755   -1.8343 H   0  0  0  0  0  0  0  0  0  0  0  0
   -1.9086    2.7890   -1.8826 H   0  0  0  0  0  0  0  0  0  0  0  0
   -0.8387    2.6192   -0.4403 H   0  0  0  0  0  0  0  0  0  0  0  0
  1  2  1  0
  2  3  1  0
  3  4  1  0
  4  5  2  0
  5  6  1  0
  6  7  2  0
  7  8  1  0
  7  9  1  0
  9 10  2  0
 10 11  1  0
 10 12  1  0
 12 13  1  0
 13 14  2  0
 13 15  1  0
 15 16  2  0
 16 17  1  0
 17 18  2  0
 18 19  1  0
 19 20  2  0
 20 21  1  0
 20 22  1  0
 22 23  2  0
 23 24  1  0
 16 25  1  0
 25 26  1  0
  5 27  1  0
 27 28  1  0
 28  2  1  0
 26  6  1  0
 26 12  2  0
 23 17  1  0
  1 29  1  0
  1 30  1  0
  1 31  1  0
  3 32  1  0
  3 33  1  0
  4 34  1  0
  8 35  1  0
  9 36  1  0
 11 37  1  0
 15 38  1  0
 18 39  1  0
 19 40  1  0
 22 41  1  0
 27 42  1  0
 27 43  1  0
 28 44  1  0
 28 45  1  0
M  END
$$$$
