
     RDKit          3D

 55 59  0  0  0  0  0  0  0  0999 V2000
    7.2486   -0.0237   -1.2030 C   0  0  0  0  0  0  0  0  0  0  0  0
    6.9209    0.0603    0.2226 N   0  0  0  0  0  0  0  0  0  0  0  0
    5.8013    0.9793    0.4822 C   0  0  0  0  0  0  0  0  0  0  0  0
    4.4400    0.3720    0.1009 C   0  0  0  0  0  0  0  0  0  0  0  0
    3.2924    1.3051    0.4964 C   0  0  0  0  0  0  0  0  0  0  0  0
    2.0086    0.7155    0.1159 N   0  0  0  0  0  0  0  0  0  0  0  0
    1.3529    0.9342   -1.0483 C   0  0  0  0  0  0  0  0  0  0  0  0
    0.1967    0.1644   -1.1017 C   0  0  0  0  0  0  0  0  0  0  0  0
   -0.7766    0.1432   -2.2094 C   0  0  0  0  0  0  0  0  0  0  0  0
   -2.1124    0.1806   -2.1140 C   0  0  0  0  0  0  0  0  0  0  0  0
   -2.9029    0.3780   -0.8837 C   0  0  0  0  0  0  0  0  0  0  0  0
   -2.5979    1.2373    0.1689 C   0  0  0  0  0  0  0  0  0  0  0  0
   -3.5353    1.1377    1.1396 N   0  0  0  0  0  0  0  0  0  0  0  0
   -3.5232    1.8327    2.4229 C   0  0  0  0  0  0  0  0  0  0  0  0
   -4.4229    0.2137    0.7206 C   0  0  0  0  0  0  0  0  0  0  0  0
   -5.5419   -0.2724    1.4020 C   0  0  0  0  0  0  0  0  0  0  0  0
   -6.3045   -1.2789    0.7835 C   0  0  0  0  0  0  0  0  0  0  0  0
   -5.9320   -1.7838   -0.4808 C   0  0  0  0  0  0  0  0  0  0  0  0
   -4.7965   -1.2834   -1.1420 C   0  0  0  0  0  0  0  0  0  0  0  0
   -4.0700   -0.2685   -0.5167 C   0  0  0  0  0  0  0  0  0  0  0  0
   -2.6509    0.1639   -3.4776 C   0  0  0  0  0  0  0  0  0  0  0  0
   -3.8681    0.2574   -3.7857 O   0  0  0  0  0  0  0  0  0  0  0  0
   -1.6044    0.1036   -4.4340 N   0  0  0  0  0  0  0  0  0  0  0  0
   -0.4342    0.1048   -3.6323 C   0  0  0  0  0  0  0  0  0  0  0  0
    0.7331    0.0697   -4.1031 O   0  0  0  0  0  0  0  0  0  0  0  0
    0.1806   -0.5761    0.0690 C   0  0  0  0  0  0  0  0  0  0  0  0
   -0.6885   -1.5725    0.5190 C   0  0  0  0  0  0  0  0  0  0  0  0
   -0.4173   -2.1727    1.7603 C   0  0  0  0  0  0  0  0  0  0  0  0
    0.7155   -1.7879    2.5082 C   0  0  0  0  0  0  0  0  0  0  0  0
    1.5920   -0.8035    2.0191 C   0  0  0  0  0  0  0  0  0  0  0  0
    1.2946   -0.2131    0.7869 C   0  0  0  0  0  0  0  0  0  0  0  0
    8.1777   -0.6186   -1.3267 H   0  0  0  0  0  0  0  0  0  0  0  0
    7.4337    0.9873   -1.6253 H   0  0  0  0  0  0  0  0  0  0  0  0
    6.4391   -0.5292   -1.7707 H   0  0  0  0  0  0  0  0  0  0  0  0
    6.6821   -0.8977    0.5712 H   0  0  0  0  0  0  0  0  0  0  0  0
    5.9547    1.9427   -0.0535 H   0  0  0  0  0  0  0  0  0  0  0  0
    5.7965    1.2120    1.5690 H   0  0  0  0  0  0  0  0  0  0  0  0
    4.3101   -0.6042    0.6166 H   0  0  0  0  0  0  0  0  0  0  0  0
    4.3946    0.2011   -0.9953 H   0  0  0  0  0  0  0  0  0  0  0  0
    3.3095    1.4933    1.5917 H   0  0  0  0  0  0  0  0  0  0  0  0
    3.4164    2.2863   -0.0128 H   0  0  0  0  0  0  0  0  0  0  0  0
    1.6900    1.6188   -1.8165 H   0  0  0  0  0  0  0  0  0  0  0  0
   -1.7361    1.8907    0.2212 H   0  0  0  0  0  0  0  0  0  0  0  0
   -2.7503    2.6306    2.4259 H   0  0  0  0  0  0  0  0  0  0  0  0
   -3.2983    1.1101    3.2352 H   0  0  0  0  0  0  0  0  0  0  0  0
   -4.5133    2.2997    2.6080 H   0  0  0  0  0  0  0  0  0  0  0  0
   -5.8148    0.1037    2.3792 H   0  0  0  0  0  0  0  0  0  0  0  0
   -7.1769   -1.6767    1.2854 H   0  0  0  0  0  0  0  0  0  0  0  0
   -6.5183   -2.5689   -0.9400 H   0  0  0  0  0  0  0  0  0  0  0  0
   -4.4924   -1.6909   -2.0964 H   0  0  0  0  0  0  0  0  0  0  0  0
   -1.6767    0.1137   -5.4754 H   0  0  0  0  0  0  0  0  0  0  0  0
   -1.5378   -1.8911   -0.0695 H   0  0  0  0  0  0  0  0  0  0  0  0
   -1.0761   -2.9430    2.1396 H   0  0  0  0  0  0  0  0  0  0  0  0
    0.9180   -2.2626    3.4595 H   0  0  0  0  0  0  0  0  0  0  0  0
    2.4712   -0.5241    2.5840 H   0  0  0  0  0  0  0  0  0  0  0  0
  1  2  1  0
  2  3  1  0
  3  4  1  0
  4  5  1  0
  5  6  1  0
  6  7  1  0
  7  8  2  0
  8  9  1  0
  9 10  2  0
 10 11  1  0
 11 12  2  0
 12 13  1  0
 13 14  1  0
 13 15  1  0
 15 16  2  0
 16 17  1  0
 17 18  2  0
 18 19  1  0
 19 20  2  0
 10 21  1  0
 21 22  2  0
 21 23  1  0
 23 24  1  0
 24 25  2  0
  8 26  1  0
 26 27  2  0
 27 28  1  0
 28 29  2  0
 29 30  1  0
 30 31  2  0
 31  6  1  0
 24  9  1  0
 31 26  1  0
 20 11  1  0
 20 15  1  0
  1 32  1  0
  1 33  1  0
  1 34  1  0
  2 35  1  0
  3 36  1  0
  3 37  1  0
  4 38  1  0
  4 39  1  0
  5 40  1  0
  5 41  1  0
  7 42  1  0
 12 43  1  0
 14 44  1  0
 14 45  1  0
 14 46  1  0
 16 47  1  0
 17 48  1  0
 18 49  1  0
 19 50  1  0
 23 51  1  0
 27 52  1  0
 28 53  1  0
 29 54  1  0
 30 55  1  0
M  END
$$$$
