
     RDKit          3D

 45 47  0  0  0  0  0  0  0  0999 V2000
   -2.4607    1.9023   -0.6234 C   0  0  0  0  0  0  0  0  0  0  0  0
   -2.8802    0.8578    0.4252 C   0  0  0  0  0  0  0  0  0  0  0  0
   -2.2708    1.2198    1.7880 C   0  0  0  0  0  0  0  0  0  0  0  0
   -4.3418    0.9183    0.5498 N   0  0  0  0  0  0  0  0  0  0  0  0
   -5.1031   -0.1269    0.6604 C   0  0  0  0  0  0  0  0  0  0  0  0
   -6.5091    0.0352    0.8303 N   0  0  0  0  0  0  0  0  0  0  0  0
   -4.5478   -1.4398    0.5759 N   0  0  0  0  0  0  0  0  0  0  0  0
   -3.3020   -1.6340    0.2773 C   0  0  0  0  0  0  0  0  0  0  0  0
   -2.8167   -2.9775    0.1770 N   0  0  0  0  0  0  0  0  0  0  0  0
   -2.4395   -0.5026    0.0260 N   0  0  0  0  0  0  0  0  0  0  0  0
   -1.0996   -0.7270   -0.4461 C   0  0  0  0  0  0  0  0  0  0  0  0
   -0.8342   -0.7280   -1.8210 C   0  0  0  0  0  0  0  0  0  0  0  0
    0.4635   -0.9540   -2.2839 C   0  0  0  0  0  0  0  0  0  0  0  0
    1.5021   -1.1869   -1.3780 C   0  0  0  0  0  0  0  0  0  0  0  0
    1.2454   -1.1994    0.0071 C   0  0  0  0  0  0  0  0  0  0  0  0
    2.2495   -1.4276    0.9618 O   0  0  0  0  0  0  0  0  0  0  0  0
    3.6461   -1.5279    0.6810 C   0  0  0  0  0  0  0  0  0  0  0  0
    4.2018   -0.1964    0.2491 C   0  0  0  0  0  0  0  0  0  0  0  0
    4.9815   -0.0919   -0.9130 C   0  0  0  0  0  0  0  0  0  0  0  0
    5.4979    1.1456   -1.3056 C   0  0  0  0  0  0  0  0  0  0  0  0
    5.2496    2.2898   -0.5396 C   0  0  0  0  0  0  0  0  0  0  0  0
    5.9144    3.8296   -1.0677 Cl  0  0  0  0  0  0  0  0  0  0  0  0
    4.4809    2.1910    0.6325 C   0  0  0  0  0  0  0  0  0  0  0  0
    4.1486    3.6029    1.6265 Cl  0  0  0  0  0  0  0  0  0  0  0  0
    3.9656    0.9499    1.0245 C   0  0  0  0  0  0  0  0  0  0  0  0
   -0.0603   -0.9785    0.4613 C   0  0  0  0  0  0  0  0  0  0  0  0
   -2.8654    1.6240   -1.6199 H   0  0  0  0  0  0  0  0  0  0  0  0
   -2.8588    2.9039   -0.3521 H   0  0  0  0  0  0  0  0  0  0  0  0
   -1.3547    1.9791   -0.6950 H   0  0  0  0  0  0  0  0  0  0  0  0
   -2.5190    0.4377    2.5372 H   0  0  0  0  0  0  0  0  0  0  0  0
   -1.1663    1.3098    1.7192 H   0  0  0  0  0  0  0  0  0  0  0  0
   -2.6748    2.1909    2.1471 H   0  0  0  0  0  0  0  0  0  0  0  0
   -6.9322    0.9887    0.8813 H   0  0  0  0  0  0  0  0  0  0  0  0
   -7.1294   -0.8010    0.9066 H   0  0  0  0  0  0  0  0  0  0  0  0
   -3.4610   -3.7802    0.3538 H   0  0  0  0  0  0  0  0  0  0  0  0
   -1.8261   -3.1920   -0.0689 H   0  0  0  0  0  0  0  0  0  0  0  0
   -1.6337   -0.5517   -2.5294 H   0  0  0  0  0  0  0  0  0  0  0  0
    0.6650   -0.9507   -3.3473 H   0  0  0  0  0  0  0  0  0  0  0  0
    2.4943   -1.3642   -1.7664 H   0  0  0  0  0  0  0  0  0  0  0  0
    3.8236   -2.3203   -0.0781 H   0  0  0  0  0  0  0  0  0  0  0  0
    4.1696   -1.8406    1.6085 H   0  0  0  0  0  0  0  0  0  0  0  0
    5.1859   -0.9660   -1.5186 H   0  0  0  0  0  0  0  0  0  0  0  0
    6.0927    1.2140   -2.2076 H   0  0  0  0  0  0  0  0  0  0  0  0
    3.3762    0.8785    1.9307 H   0  0  0  0  0  0  0  0  0  0  0  0
   -0.2670   -1.0037    1.5238 H   0  0  0  0  0  0  0  0  0  0  0  0
  1  2  1  0
  2  3  1  0
  2  4  1  0
  4  5  2  0
  5  6  1  0
  5  7  1  0
  7  8  2  0
  8  9  1  0
  8 10  1  0
 10 11  1  0
 11 12  2  0
 12 13  1  0
 13 14  2  0
 14 15  1  0
 15 16  1  0
 16 17  1  0
 17 18  1  0
 18 19  2  0
 19 20  1  0
 20 21  2  0
 21 22  1  0
 21 23  1  0
 23 24  1  0
 23 25  2  0
 15 26  2  0
 10  2  1  0
 26 11  1  0
 25 18  1  0
  1 27  1  0
  1 28  1  0
  1 29  1  0
  3 30  1  0
  3 31  1  0
  3 32  1  0
  6 33  1  0
  6 34  1  0
  9 35  1  0
  9 36  1  0
 12 37  1  0
 13 38  1  0
 14 39  1  0
 17 40  1  0
 17 41  1  0
 19 42  1  0
 20 43  1  0
 25 44  1  0
 26 45  1  0
M  END
$$$$
