
     RDKit          3D

 55 56  0  0  0  0  0  0  0  0999 V2000
    5.9241    2.8186    1.6401 C   0  0  0  0  0  0  0  0  0  0  0  0
    5.9034    1.4860    1.7348 C   0  0  0  0  0  0  0  0  0  0  0  0
    4.6157    0.7219    1.8926 C   0  0  0  0  0  0  0  0  0  0  0  0
    3.7569    0.7527    0.6195 C   0  0  0  0  0  0  0  0  0  0  0  0
    4.4113   -0.0206   -0.5393 C   0  0  0  0  0  0  0  0  0  0  0  0
    3.5816    0.0496   -1.8278 C   0  0  0  0  0  0  0  0  0  0  0  0
    2.2852   -0.6856   -1.6908 C   0  0  0  0  0  0  0  0  0  0  0  0
    2.2474   -1.9312   -1.8861 O   0  0  0  0  0  0  0  0  0  0  0  0
    1.1408    0.0138   -1.2912 O   0  0  0  0  0  0  0  0  0  0  0  0
   -0.1344   -0.5999   -1.0926 C   0  0  2  0  0  0  0  0  0  0  0  0
   -0.7979   -0.8927   -2.4530 C   0  0  0  0  0  0  0  0  0  0  0  0
   -2.1264   -1.5930   -2.2892 C   0  0  0  0  0  0  0  0  0  0  0  0
   -2.2773   -2.9283   -2.1498 C   0  0  0  0  0  0  0  0  0  0  0  0
   -1.1070   -3.8801   -2.2299 C   0  0  0  0  0  0  0  0  0  0  0  0
   -3.6642   -3.4728   -1.9249 C   0  0  0  0  0  0  0  0  0  0  0  0
   -1.0095    0.3139   -0.2510 C   0  0  0  0  0  0  0  0  0  0  0  0
   -1.0374    1.6311   -0.4989 C   0  0  0  0  0  0  0  0  0  0  0  0
   -1.9045    2.5425    0.2615 C   0  0  0  0  0  0  0  0  0  0  0  0
   -1.9575    3.7473   -0.0990 O   0  0  0  0  0  0  0  0  0  0  0  0
   -2.7690    2.0198    1.3570 C   0  0  0  0  0  0  0  0  0  0  0  0
   -3.5230    2.8690    2.2116 C   0  0  0  0  0  0  0  0  0  0  0  0
   -3.3481    4.2541    2.2634 O   0  0  0  0  0  0  0  0  0  0  0  0
   -4.4659    2.3165    3.0783 C   0  0  0  0  0  0  0  0  0  0  0  0
   -4.6587    0.9416    3.1357 C   0  0  0  0  0  0  0  0  0  0  0  0
   -3.8956    0.0817    2.3464 C   0  0  0  0  0  0  0  0  0  0  0  0
   -4.2047   -1.2794    2.4060 O   0  0  0  0  0  0  0  0  0  0  0  0
   -2.8848    0.6121    1.5003 C   0  0  0  0  0  0  0  0  0  0  0  0
   -1.8952   -0.2547    0.7962 C   0  0  0  0  0  0  0  0  0  0  0  0
   -1.7435   -1.4582    1.1360 O   0  0  0  0  0  0  0  0  0  0  0  0
    5.0044    3.3956    1.6640 H   0  0  0  0  0  0  0  0  0  0  0  0
    6.8699    3.3410    1.5402 H   0  0  0  0  0  0  0  0  0  0  0  0
    6.8423    0.9399    1.7279 H   0  0  0  0  0  0  0  0  0  0  0  0
    4.0364    1.1549    2.7372 H   0  0  0  0  0  0  0  0  0  0  0  0
    4.8473   -0.3330    2.1561 H   0  0  0  0  0  0  0  0  0  0  0  0
    3.5674    1.8055    0.3158 H   0  0  0  0  0  0  0  0  0  0  0  0
    2.7758    0.2899    0.8606 H   0  0  0  0  0  0  0  0  0  0  0  0
    5.4114    0.4148   -0.7528 H   0  0  0  0  0  0  0  0  0  0  0  0
    4.5596   -1.0842   -0.2483 H   0  0  0  0  0  0  0  0  0  0  0  0
    4.1660   -0.4009   -2.6591 H   0  0  0  0  0  0  0  0  0  0  0  0
    3.3834    1.1102   -2.0956 H   0  0  0  0  0  0  0  0  0  0  0  0
    0.0267   -1.5532   -0.5470 H   0  0  0  0  0  0  0  0  0  0  0  0
   -0.9693    0.0667   -2.9875 H   0  0  0  0  0  0  0  0  0  0  0  0
   -0.1204   -1.4911   -3.0961 H   0  0  0  0  0  0  0  0  0  0  0  0
   -3.0085   -0.9584   -2.2463 H   0  0  0  0  0  0  0  0  0  0  0  0
   -1.4300   -4.9329   -2.0923 H   0  0  0  0  0  0  0  0  0  0  0  0
   -0.3657   -3.6506   -1.4387 H   0  0  0  0  0  0  0  0  0  0  0  0
   -0.6232   -3.8030   -3.2258 H   0  0  0  0  0  0  0  0  0  0  0  0
   -4.0850   -3.0479   -0.9887 H   0  0  0  0  0  0  0  0  0  0  0  0
   -4.3202   -3.1945   -2.7768 H   0  0  0  0  0  0  0  0  0  0  0  0
   -3.6630   -4.5789   -1.8341 H   0  0  0  0  0  0  0  0  0  0  0  0
   -0.4256    2.0483   -1.2904 H   0  0  0  0  0  0  0  0  0  0  0  0
   -2.5302    4.7319    1.9132 H   0  0  0  0  0  0  0  0  0  0  0  0
   -5.0540    2.9623    3.7184 H   0  0  0  0  0  0  0  0  0  0  0  0
   -5.4170    0.5384    3.7954 H   0  0  0  0  0  0  0  0  0  0  0  0
   -3.9403   -1.9465    1.6948 H   0  0  0  0  0  0  0  0  0  0  0  0
  1  2  2  0
  2  3  1  0
  3  4  1  0
  4  5  1  0
  5  6  1  0
  6  7  1  0
  7  8  2  0
  7  9  1  0
  9 10  1  0
 10 11  1  0
 11 12  1  0
 12 13  2  3
 13 14  1  0
 13 15  1  0
 10 16  1  0
 16 17  2  0
 17 18  1  0
 18 19  2  0
 18 20  1  0
 20 21  2  0
 21 22  1  0
 21 23  1  0
 23 24  2  0
 24 25  1  0
 25 26  1  0
 25 27  2  0
 27 28  1  0
 28 29  2  0
 28 16  1  0
 27 20  1  0
  1 30  1  0
  1 31  1  0
  2 32  1  0
  3 33  1  0
  3 34  1  0
  4 35  1  0
  4 36  1  0
  5 37  1  0
  5 38  1  0
  6 39  1  0
  6 40  1  0
 10 41  1  1
 11 42  1  0
 11 43  1  0
 12 44  1  0
 14 45  1  0
 14 46  1  0
 14 47  1  0
 15 48  1  0
 15 49  1  0
 15 50  1  0
 17 51  1  0
 22 52  1  0
 23 53  1  0
 24 54  1  0
 26 55  1  0
M  END
$$$$
