
     RDKit          3D

 51 55  0  0  0  0  0  0  0  0999 V2000
   -2.1848    2.6545   -3.0240 C   0  0  0  0  0  0  0  0  0  0  0  0
   -2.1972    1.4677   -2.1716 N   0  0  0  0  0  0  0  0  0  0  0  0
   -2.0081    0.1900   -2.5780 C   0  0  0  0  0  0  0  0  0  0  0  0
   -1.9353   -0.6569   -1.4700 C   0  0  0  0  0  0  0  0  0  0  0  0
   -1.4996   -2.0591   -1.4809 C   0  0  0  0  0  0  0  0  0  0  0  0
   -0.3648   -2.5234   -0.9545 C   0  0  0  0  0  0  0  0  0  0  0  0
    0.7288   -1.6994   -0.4051 C   0  0  0  0  0  0  0  0  0  0  0  0
    1.2183   -0.5200   -0.9565 C   0  0  0  0  0  0  0  0  0  0  0  0
    2.1685    0.0166   -0.1567 N   0  0  0  0  0  0  0  0  0  0  0  0
    2.8665    1.2807   -0.4123 C   0  0  0  0  0  0  0  0  0  0  0  0
    1.9351    2.4847   -0.2059 C   0  0  0  0  0  0  0  0  0  0  0  0
    1.6288    2.7529    1.2701 C   0  0  0  0  0  0  0  0  0  0  0  0
    0.8104    1.7432    1.7925 O   0  0  0  0  0  0  0  0  0  0  0  0
    2.2801   -0.8107    0.9076 C   0  0  0  0  0  0  0  0  0  0  0  0
    3.0923   -0.6642    2.0383 C   0  0  0  0  0  0  0  0  0  0  0  0
    2.9967   -1.6353    3.0513 C   0  0  0  0  0  0  0  0  0  0  0  0
    2.0935   -2.7124    2.9280 C   0  0  0  0  0  0  0  0  0  0  0  0
    1.2805   -2.8343    1.7869 C   0  0  0  0  0  0  0  0  0  0  0  0
    1.4123   -1.8721    0.7844 C   0  0  0  0  0  0  0  0  0  0  0  0
   -0.3870   -3.9813   -1.0772 C   0  0  0  0  0  0  0  0  0  0  0  0
    0.5433   -4.7582   -0.7433 O   0  0  0  0  0  0  0  0  0  0  0  0
   -1.5931   -4.4161   -1.6826 N   0  0  0  0  0  0  0  0  0  0  0  0
   -2.2847   -3.2026   -1.9387 C   0  0  0  0  0  0  0  0  0  0  0  0
   -3.4346   -3.1446   -2.4595 O   0  0  0  0  0  0  0  0  0  0  0  0
   -2.0694    0.1513   -0.3604 C   0  0  0  0  0  0  0  0  0  0  0  0
   -2.0539   -0.1570    1.0018 C   0  0  0  0  0  0  0  0  0  0  0  0
   -2.2295    0.8974    1.9131 C   0  0  0  0  0  0  0  0  0  0  0  0
   -2.3834    2.2242    1.4484 C   0  0  0  0  0  0  0  0  0  0  0  0
   -2.3658    2.5077    0.0675 C   0  0  0  0  0  0  0  0  0  0  0  0
   -2.2251    1.4361   -0.8182 C   0  0  0  0  0  0  0  0  0  0  0  0
   -1.2317    3.2043   -2.8731 H   0  0  0  0  0  0  0  0  0  0  0  0
   -2.2687    2.3744   -4.0978 H   0  0  0  0  0  0  0  0  0  0  0  0
   -3.0370    3.3163   -2.7612 H   0  0  0  0  0  0  0  0  0  0  0  0
   -1.8516   -0.1043   -3.6118 H   0  0  0  0  0  0  0  0  0  0  0  0
    0.8869   -0.0730   -1.8862 H   0  0  0  0  0  0  0  0  0  0  0  0
    3.7702    1.3791    0.2245 H   0  0  0  0  0  0  0  0  0  0  0  0
    3.2186    1.2850   -1.4664 H   0  0  0  0  0  0  0  0  0  0  0  0
    2.4365    3.3845   -0.6240 H   0  0  0  0  0  0  0  0  0  0  0  0
    0.9866    2.3404   -0.7692 H   0  0  0  0  0  0  0  0  0  0  0  0
    1.1008    3.7285    1.3491 H   0  0  0  0  0  0  0  0  0  0  0  0
    2.5783    2.8166    1.8511 H   0  0  0  0  0  0  0  0  0  0  0  0
    0.6654    1.9816    2.7522 H   0  0  0  0  0  0  0  0  0  0  0  0
    3.7704    0.1697    2.1500 H   0  0  0  0  0  0  0  0  0  0  0  0
    3.6132   -1.5495    3.9371 H   0  0  0  0  0  0  0  0  0  0  0  0
    2.0202   -3.4461    3.7212 H   0  0  0  0  0  0  0  0  0  0  0  0
    0.5676   -3.6428    1.7033 H   0  0  0  0  0  0  0  0  0  0  0  0
   -1.8984   -5.3915   -1.8905 H   0  0  0  0  0  0  0  0  0  0  0  0
   -1.9296   -1.1758    1.3493 H   0  0  0  0  0  0  0  0  0  0  0  0
   -2.2485    0.6901    2.9760 H   0  0  0  0  0  0  0  0  0  0  0  0
   -2.5119    3.0287    2.1593 H   0  0  0  0  0  0  0  0  0  0  0  0
   -2.4760    3.5245   -0.2912 H   0  0  0  0  0  0  0  0  0  0  0  0
  1  2  1  0
  2  3  1  0
  3  4  2  0
  4  5  1  0
  5  6  2  0
  6  7  1  0
  7  8  2  0
  8  9  1  0
  9 10  1  0
 10 11  1  0
 11 12  1  0
 12 13  1  0
  9 14  1  0
 14 15  2  0
 15 16  1  0
 16 17  2  0
 17 18  1  0
 18 19  2  0
  6 20  1  0
 20 21  2  0
 20 22  1  0
 22 23  1  0
 23 24  2  0
  4 25  1  0
 25 26  2  0
 26 27  1  0
 27 28  2  0
 28 29  1  0
 29 30  2  0
 30  2  1  0
 23  5  1  0
 30 25  1  0
 19  7  1  0
 19 14  1  0
  1 31  1  0
  1 32  1  0
  1 33  1  0
  3 34  1  0
  8 35  1  0
 10 36  1  0
 10 37  1  0
 11 38  1  0
 11 39  1  0
 12 40  1  0
 12 41  1  0
 13 42  1  0
 15 43  1  0
 16 44  1  0
 17 45  1  0
 18 46  1  0
 22 47  1  0
 26 48  1  0
 27 49  1  0
 28 50  1  0
 29 51  1  0
M  END
$$$$
