
     RDKit          3D

 55 59  0  0  0  0  0  0  0  0999 V2000
   -3.3595   -2.9513    0.3924 C   0  0  0  0  0  0  0  0  0  0  0  0
   -3.4425   -1.4968    0.4793 N   0  0  0  0  0  0  0  0  0  0  0  0
   -2.5429   -0.6799    1.0746 C   0  0  0  0  0  0  0  0  0  0  0  0
   -2.9136    0.6512    0.9008 C   0  0  0  0  0  0  0  0  0  0  0  0
   -2.1794    1.8376    1.3812 C   0  0  0  0  0  0  0  0  0  0  0  0
   -0.8500    2.0034    1.3977 C   0  0  0  0  0  0  0  0  0  0  0  0
    0.1676    1.0998    0.8295 C   0  0  0  0  0  0  0  0  0  0  0  0
    1.3447    0.7038    1.4540 C   0  0  0  0  0  0  0  0  0  0  0  0
    2.0402   -0.1375    0.6530 N   0  0  0  0  0  0  0  0  0  0  0  0
    3.3517   -0.7132    0.9512 C   0  0  0  0  0  0  0  0  0  0  0  0
    4.4591    0.1605    0.3492 C   0  0  0  0  0  0  0  0  0  0  0  0
    5.8677   -0.3305    0.7167 C   0  0  0  0  0  0  0  0  0  0  0  0
    6.2508   -1.6243   -0.0126 C   0  0  0  0  0  0  0  0  0  0  0  0
    7.6355   -1.9761    0.2860 N   0  0  0  0  0  0  0  0  0  0  0  0
    1.3294   -0.2518   -0.4888 C   0  0  0  0  0  0  0  0  0  0  0  0
    1.6596   -0.9732   -1.6403 C   0  0  0  0  0  0  0  0  0  0  0  0
    0.7775   -0.9119   -2.7333 C   0  0  0  0  0  0  0  0  0  0  0  0
   -0.3938   -0.1282   -2.6644 C   0  0  0  0  0  0  0  0  0  0  0  0
   -0.6980    0.5968   -1.4997 C   0  0  0  0  0  0  0  0  0  0  0  0
    0.1787    0.4958   -0.4171 C   0  0  0  0  0  0  0  0  0  0  0  0
   -0.5668    3.2473    2.1158 C   0  0  0  0  0  0  0  0  0  0  0  0
    0.5790    3.7220    2.3329 O   0  0  0  0  0  0  0  0  0  0  0  0
   -1.7682    3.8710    2.5398 N   0  0  0  0  0  0  0  0  0  0  0  0
   -2.7730    2.9769    2.0877 C   0  0  0  0  0  0  0  0  0  0  0  0
   -3.9987    3.1296    2.3317 O   0  0  0  0  0  0  0  0  0  0  0  0
   -4.0820    0.6235    0.1600 C   0  0  0  0  0  0  0  0  0  0  0  0
   -4.8607    1.6535   -0.3707 C   0  0  0  0  0  0  0  0  0  0  0  0
   -5.9817    1.3008   -1.1427 C   0  0  0  0  0  0  0  0  0  0  0  0
   -6.2887   -0.0562   -1.3805 C   0  0  0  0  0  0  0  0  0  0  0  0
   -5.4745   -1.0741   -0.8534 C   0  0  0  0  0  0  0  0  0  0  0  0
   -4.3712   -0.6976   -0.0828 C   0  0  0  0  0  0  0  0  0  0  0  0
   -4.3279   -3.4028    0.6939 H   0  0  0  0  0  0  0  0  0  0  0  0
   -3.1223   -3.2487   -0.6506 H   0  0  0  0  0  0  0  0  0  0  0  0
   -2.5651   -3.3366    1.0667 H   0  0  0  0  0  0  0  0  0  0  0  0
   -1.6623   -1.0266    1.6006 H   0  0  0  0  0  0  0  0  0  0  0  0
    1.6684    1.0102    2.4408 H   0  0  0  0  0  0  0  0  0  0  0  0
    3.4853   -0.7809    2.0533 H   0  0  0  0  0  0  0  0  0  0  0  0
    3.4015   -1.7446    0.5448 H   0  0  0  0  0  0  0  0  0  0  0  0
    4.3400    1.1959    0.7369 H   0  0  0  0  0  0  0  0  0  0  0  0
    4.3498    0.2028   -0.7564 H   0  0  0  0  0  0  0  0  0  0  0  0
    5.9434   -0.4813    1.8159 H   0  0  0  0  0  0  0  0  0  0  0  0
    6.5928    0.4645    0.4359 H   0  0  0  0  0  0  0  0  0  0  0  0
    6.1252   -1.4957   -1.1113 H   0  0  0  0  0  0  0  0  0  0  0  0
    5.5923   -2.4531    0.3236 H   0  0  0  0  0  0  0  0  0  0  0  0
    8.2593   -1.2841   -0.1901 H   0  0  0  0  0  0  0  0  0  0  0  0
    7.8309   -2.9031   -0.1568 H   0  0  0  0  0  0  0  0  0  0  0  0
    2.5674   -1.5583   -1.7015 H   0  0  0  0  0  0  0  0  0  0  0  0
    1.0047   -1.4602   -3.6383 H   0  0  0  0  0  0  0  0  0  0  0  0
   -1.0572   -0.0762   -3.5179 H   0  0  0  0  0  0  0  0  0  0  0  0
   -1.5783    1.2234   -1.4589 H   0  0  0  0  0  0  0  0  0  0  0  0
   -1.8823    4.7455    3.0984 H   0  0  0  0  0  0  0  0  0  0  0  0
   -4.6068    2.6929   -0.2136 H   0  0  0  0  0  0  0  0  0  0  0  0
   -6.6073    2.0756   -1.5662 H   0  0  0  0  0  0  0  0  0  0  0  0
   -7.1505   -0.3150   -1.9817 H   0  0  0  0  0  0  0  0  0  0  0  0
   -5.6972   -2.1148   -1.0491 H   0  0  0  0  0  0  0  0  0  0  0  0
  1  2  1  0
  2  3  1  0
  3  4  2  0
  4  5  1  0
  5  6  2  0
  6  7  1  0
  7  8  2  0
  8  9  1  0
  9 10  1  0
 10 11  1  0
 11 12  1  0
 12 13  1  0
 13 14  1  0
  9 15  1  0
 15 16  2  0
 16 17  1  0
 17 18  2  0
 18 19  1  0
 19 20  2  0
  6 21  1  0
 21 22  2  0
 21 23  1  0
 23 24  1  0
 24 25  2  0
  4 26  1  0
 26 27  2  0
 27 28  1  0
 28 29  2  0
 29 30  1  0
 30 31  2  0
 31  2  1  0
 24  5  1  0
 31 26  1  0
 20  7  1  0
 20 15  1  0
  1 32  1  0
  1 33  1  0
  1 34  1  0
  3 35  1  0
  8 36  1  0
 10 37  1  0
 10 38  1  0
 11 39  1  0
 11 40  1  0
 12 41  1  0
 12 42  1  0
 13 43  1  0
 13 44  1  0
 14 45  1  0
 14 46  1  0
 16 47  1  0
 17 48  1  0
 18 49  1  0
 19 50  1  0
 23 51  1  0
 27 52  1  0
 28 53  1  0
 29 54  1  0
 30 55  1  0
M  END
$$$$
