
     RDKit          3D

 45 46  0  0  0  0  0  0  0  0999 V2000
    3.4421    2.8719   -0.7629 C   0  0  0  0  0  0  0  0  0  0  0  0
    1.9346    3.0196   -0.9356 C   0  0  0  0  0  0  0  0  0  0  0  0
    1.2088    2.2583    0.1266 C   0  0  0  0  0  0  0  0  0  0  0  0
    0.6225    2.8764    1.0567 O   0  0  0  0  0  0  0  0  0  0  0  0
    1.2193    0.8608    0.0903 O   0  0  0  0  0  0  0  0  0  0  0  0
    0.5840    0.0406    1.0706 C   0  0  2  0  0  0  0  0  0  0  0  0
    1.0793   -1.4062    0.9324 C   0  0  0  0  0  0  0  0  0  0  0  0
    2.5728   -1.4820    1.1458 C   0  0  0  0  0  0  0  0  0  0  0  0
    3.4884   -1.5208    0.1504 C   0  0  0  0  0  0  0  0  0  0  0  0
    4.9578   -1.5122    0.4833 C   0  0  0  0  0  0  0  0  0  0  0  0
    3.0935   -1.5745   -1.3047 C   0  0  0  0  0  0  0  0  0  0  0  0
   -0.9245    0.0989    0.9089 C   0  0  0  0  0  0  0  0  0  0  0  0
   -1.6952    0.4282    1.9533 C   0  0  0  0  0  0  0  0  0  0  0  0
   -3.1555    0.5293    1.8215 C   0  0  0  0  0  0  0  0  0  0  0  0
   -3.7927    1.1424    2.7172 O   0  0  0  0  0  0  0  0  0  0  0  0
   -3.8367   -0.0269    0.6178 C   0  0  0  0  0  0  0  0  0  0  0  0
   -5.2484   -0.1744    0.5352 C   0  0  0  0  0  0  0  0  0  0  0  0
   -6.1073    0.0292    1.6181 O   0  0  0  0  0  0  0  0  0  0  0  0
   -5.8328   -0.5704   -0.6674 C   0  0  0  0  0  0  0  0  0  0  0  0
   -5.0463   -0.9317   -1.7539 C   0  0  0  0  0  0  0  0  0  0  0  0
   -3.6550   -0.9032   -1.6670 C   0  0  0  0  0  0  0  0  0  0  0  0
   -2.9418   -1.4229   -2.7500 O   0  0  0  0  0  0  0  0  0  0  0  0
   -3.0319   -0.3905   -0.4969 C   0  0  0  0  0  0  0  0  0  0  0  0
   -1.5576   -0.1750   -0.4057 C   0  0  0  0  0  0  0  0  0  0  0  0
   -0.8440   -0.1512   -1.4435 O   0  0  0  0  0  0  0  0  0  0  0  0
    3.9649    3.4438   -1.5581 H   0  0  0  0  0  0  0  0  0  0  0  0
    3.7571    3.2677    0.2264 H   0  0  0  0  0  0  0  0  0  0  0  0
    3.7382    1.8034   -0.8413 H   0  0  0  0  0  0  0  0  0  0  0  0
    1.6609    4.0961   -0.8901 H   0  0  0  0  0  0  0  0  0  0  0  0
    1.6374    2.6261   -1.9311 H   0  0  0  0  0  0  0  0  0  0  0  0
    0.8847    0.4019    2.0816 H   0  0  0  0  0  0  0  0  0  0  0  0
    0.7840   -1.8308   -0.0493 H   0  0  0  0  0  0  0  0  0  0  0  0
    0.5904   -2.0304    1.7116 H   0  0  0  0  0  0  0  0  0  0  0  0
    2.9132   -1.4295    2.1766 H   0  0  0  0  0  0  0  0  0  0  0  0
    5.4367   -2.4240    0.0689 H   0  0  0  0  0  0  0  0  0  0  0  0
    5.4333   -0.6171    0.0299 H   0  0  0  0  0  0  0  0  0  0  0  0
    5.1422   -1.4884    1.5788 H   0  0  0  0  0  0  0  0  0  0  0  0
    2.4756   -0.6932   -1.5725 H   0  0  0  0  0  0  0  0  0  0  0  0
    3.9921   -1.5718   -1.9576 H   0  0  0  0  0  0  0  0  0  0  0  0
    2.5252   -2.5059   -1.5095 H   0  0  0  0  0  0  0  0  0  0  0  0
   -1.2470    0.6752    2.9087 H   0  0  0  0  0  0  0  0  0  0  0  0
   -5.8097    0.0348    2.5828 H   0  0  0  0  0  0  0  0  0  0  0  0
   -6.9099   -0.6536   -0.7419 H   0  0  0  0  0  0  0  0  0  0  0  0
   -5.5230   -1.2917   -2.6572 H   0  0  0  0  0  0  0  0  0  0  0  0
   -1.9799   -1.7261   -2.6975 H   0  0  0  0  0  0  0  0  0  0  0  0
  1  2  1  0
  2  3  1  0
  3  4  2  0
  3  5  1  0
  5  6  1  0
  6  7  1  0
  7  8  1  0
  8  9  2  3
  9 10  1  0
  9 11  1  0
  6 12  1  0
 12 13  2  0
 13 14  1  0
 14 15  2  0
 14 16  1  0
 16 17  2  0
 17 18  1  0
 17 19  1  0
 19 20  2  0
 20 21  1  0
 21 22  1  0
 21 23  2  0
 23 24  1  0
 24 25  2  0
 24 12  1  0
 23 16  1  0
  1 26  1  0
  1 27  1  0
  1 28  1  0
  2 29  1  0
  2 30  1  0
  6 31  1  1
  7 32  1  0
  7 33  1  0
  8 34  1  0
 10 35  1  0
 10 36  1  0
 10 37  1  0
 11 38  1  0
 11 39  1  0
 11 40  1  0
 13 41  1  0
 18 42  1  0
 19 43  1  0
 20 44  1  0
 22 45  1  0
M  END
$$$$
