
     RDKit          3D

 51 54  0  0  0  0  0  0  0  0999 V2000
   -5.6604   -0.2147   -1.6689 C   0  0  0  0  0  0  0  0  0  0  0  0
   -4.2994    0.2559   -1.3580 N   0  0  0  0  0  0  0  0  0  0  0  0
   -3.7396    0.9479   -2.5299 C   0  0  0  0  0  0  0  0  0  0  0  0
   -4.3030    1.1603   -0.1865 C   0  0  0  0  0  0  0  0  0  0  0  0
   -4.3741    0.3802    1.1384 C   0  0  0  0  0  0  0  0  0  0  0  0
   -3.3469   -0.7634    1.2540 C   0  0  0  0  0  0  0  0  0  0  0  0
   -1.8788   -0.3359    1.0810 C   0  0  0  0  0  0  0  0  0  0  0  0
   -1.4039    0.6298    2.1750 C   0  0  0  0  0  0  0  0  0  0  0  0
    0.0151    0.9402    2.0020 N   0  0  0  0  0  0  0  0  0  0  0  0
    1.0505   -0.0531    2.0888 C   0  0  0  0  0  0  0  0  0  0  0  0
    1.0433   -0.9939    3.1648 C   0  0  0  0  0  0  0  0  0  0  0  0
    2.0716   -1.9534    3.3067 C   0  0  0  0  0  0  0  0  0  0  0  0
    3.0909   -1.9467    2.3618 C   0  0  0  0  0  0  0  0  0  0  0  0
    4.1714   -2.7516    2.2632 N   0  0  0  0  0  0  0  0  0  0  0  0
    4.7978   -2.2931    1.1388 C   0  0  0  0  0  0  0  0  0  0  0  0
    4.1379   -1.2551    0.5638 N   0  0  0  0  0  0  0  0  0  0  0  0
    4.3557   -0.5037   -0.5507 C   0  0  0  0  0  0  0  0  0  0  0  0
    5.4699   -0.7067   -1.3794 C   0  0  0  0  0  0  0  0  0  0  0  0
    5.6473    0.0833   -2.5172 C   0  0  0  0  0  0  0  0  0  0  0  0
    4.7204    1.0783   -2.8424 C   0  0  0  0  0  0  0  0  0  0  0  0
    4.9202    1.8519   -3.9837 O   0  0  0  0  0  0  0  0  0  0  0  0
    3.6016    1.2915   -2.0244 C   0  0  0  0  0  0  0  0  0  0  0  0
    3.4024    0.5101   -0.8711 C   0  0  0  0  0  0  0  0  0  0  0  0
    2.2671    0.7038   -0.0244 C   0  0  0  0  0  0  0  0  0  0  0  0
    1.4022    1.5712   -0.3233 O   0  0  0  0  0  0  0  0  0  0  0  0
    2.1121   -0.0980    1.1365 C   0  0  0  0  0  0  0  0  0  0  0  0
    3.0859   -1.0596    1.3469 C   0  0  0  0  0  0  0  0  0  0  0  0
   -6.3425    0.6352   -1.8949 H   0  0  0  0  0  0  0  0  0  0  0  0
   -5.6382   -0.8992   -2.5443 H   0  0  0  0  0  0  0  0  0  0  0  0
   -6.0734   -0.7980   -0.8205 H   0  0  0  0  0  0  0  0  0  0  0  0
   -4.3232    1.8640   -2.7732 H   0  0  0  0  0  0  0  0  0  0  0  0
   -3.7371    0.2727   -3.4128 H   0  0  0  0  0  0  0  0  0  0  0  0
   -2.6822    1.2304   -2.3370 H   0  0  0  0  0  0  0  0  0  0  0  0
   -5.1529    1.8783   -0.2371 H   0  0  0  0  0  0  0  0  0  0  0  0
   -3.3774    1.7780   -0.1623 H   0  0  0  0  0  0  0  0  0  0  0  0
   -4.2441    1.0890    1.9833 H   0  0  0  0  0  0  0  0  0  0  0  0
   -5.3911   -0.0494    1.2566 H   0  0  0  0  0  0  0  0  0  0  0  0
   -3.4667   -1.2477    2.2476 H   0  0  0  0  0  0  0  0  0  0  0  0
   -3.5813   -1.5379    0.4920 H   0  0  0  0  0  0  0  0  0  0  0  0
   -1.2556   -1.2555    1.1192 H   0  0  0  0  0  0  0  0  0  0  0  0
   -1.7211    0.1196    0.0806 H   0  0  0  0  0  0  0  0  0  0  0  0
   -1.9807    1.5764    2.1103 H   0  0  0  0  0  0  0  0  0  0  0  0
   -1.5813    0.1954    3.1808 H   0  0  0  0  0  0  0  0  0  0  0  0
    0.2779    1.9303    1.7990 H   0  0  0  0  0  0  0  0  0  0  0  0
    0.2574   -0.9703    3.9067 H   0  0  0  0  0  0  0  0  0  0  0  0
    2.0681   -2.6630    4.1238 H   0  0  0  0  0  0  0  0  0  0  0  0
    5.7128   -2.7233    0.7550 H   0  0  0  0  0  0  0  0  0  0  0  0
    6.2017   -1.4700   -1.1526 H   0  0  0  0  0  0  0  0  0  0  0  0
    6.5098   -0.0786   -3.1514 H   0  0  0  0  0  0  0  0  0  0  0  0
    4.2695    2.5816   -4.2504 H   0  0  0  0  0  0  0  0  0  0  0  0
    2.8943    2.0666   -2.2932 H   0  0  0  0  0  0  0  0  0  0  0  0
  1  2  1  0
  2  3  1  0
  2  4  1  0
  4  5  1  0
  5  6  1  0
  6  7  1  0
  7  8  1  0
  8  9  1  0
  9 10  1  0
 10 11  2  0
 11 12  1  0
 12 13  2  0
 13 14  1  0
 14 15  2  0
 15 16  1  0
 16 17  1  0
 17 18  2  0
 18 19  1  0
 19 20  2  0
 20 21  1  0
 20 22  1  0
 22 23  2  0
 23 24  1  0
 24 25  2  0
 24 26  1  0
 26 27  2  0
 26 10  1  0
 27 13  1  0
 27 16  1  0
 23 17  1  0
  1 28  1  0
  1 29  1  0
  1 30  1  0
  3 31  1  0
  3 32  1  0
  3 33  1  0
  4 34  1  0
  4 35  1  0
  5 36  1  0
  5 37  1  0
  6 38  1  0
  6 39  1  0
  7 40  1  0
  7 41  1  0
  8 42  1  0
  8 43  1  0
  9 44  1  0
 11 45  1  0
 12 46  1  0
 15 47  1  0
 18 48  1  0
 19 49  1  0
 21 50  1  0
 22 51  1  0
M  END
$$$$
