
     RDKit          3D

 39 41  0  0  0  0  0  0  0  0999 V2000
   -4.7191   -1.2816   -0.1399 C   0  0  0  0  0  0  0  0  0  0  0  0
   -3.8946   -0.4623   -1.0269 N   0  0  0  0  0  0  0  0  0  0  0  0
   -4.1890   -0.4015   -2.4571 C   0  0  0  0  0  0  0  0  0  0  0  0
   -2.8968    0.4105   -0.4754 C   0  0  0  0  0  0  0  0  0  0  0  0
   -3.1928    1.7696   -0.3294 C   0  0  0  0  0  0  0  0  0  0  0  0
   -2.2592    2.6398    0.2250 C   0  0  0  0  0  0  0  0  0  0  0  0
   -1.0134    2.1687    0.6371 C   0  0  0  0  0  0  0  0  0  0  0  0
   -0.6721    0.8070    0.4931 C   0  0  0  0  0  0  0  0  0  0  0  0
    0.5964    0.3035    0.8936 C   0  0  0  0  0  0  0  0  0  0  0  0
    1.8623    1.3471    1.5724 S   0  0  0  0  0  6  0  0  0  0  0  0
    2.1482    2.4902    0.6385 O   0  0  0  0  0  0  0  0  0  0  0  0
    1.3944    1.8929    2.8921 O   0  0  0  0  0  0  0  0  0  0  0  0
    3.3331    0.4647    1.8320 N   0  0  0  0  0  0  0  0  0  0  0  0
    4.1711    0.0467    0.7471 C   0  0  0  0  0  0  0  0  0  0  0  0
    5.3640   -0.6429    0.9980 C   0  0  0  0  0  0  0  0  0  0  0  0
    6.1386   -1.0427   -0.0448 N   0  0  0  0  0  0  0  0  0  0  0  0
    5.7774   -0.7870   -1.3294 C   0  0  0  0  0  0  0  0  0  0  0  0
    6.8913   -1.3654   -2.7654 Br  0  0  0  0  0  0  0  0  0  0  0  0
    4.5878   -0.1013   -1.5839 C   0  0  0  0  0  0  0  0  0  0  0  0
    3.8129    0.2985   -0.5422 N   0  0  0  0  0  0  0  0  0  0  0  0
    0.8661   -1.0663    0.7534 C   0  0  0  0  0  0  0  0  0  0  0  0
   -0.0770   -1.9275    0.2006 C   0  0  0  0  0  0  0  0  0  0  0  0
   -1.3138   -1.4440   -0.2142 C   0  0  0  0  0  0  0  0  0  0  0  0
   -1.6347   -0.0828   -0.0672 C   0  0  0  0  0  0  0  0  0  0  0  0
   -5.7459   -0.8621   -0.0935 H   0  0  0  0  0  0  0  0  0  0  0  0
   -4.2943   -1.3042    0.8868 H   0  0  0  0  0  0  0  0  0  0  0  0
   -4.7645   -2.3228   -0.5232 H   0  0  0  0  0  0  0  0  0  0  0  0
   -4.4872    0.6299   -2.7398 H   0  0  0  0  0  0  0  0  0  0  0  0
   -3.2863   -0.6921   -3.0346 H   0  0  0  0  0  0  0  0  0  0  0  0
   -5.0169   -1.0936   -2.7219 H   0  0  0  0  0  0  0  0  0  0  0  0
   -4.1589    2.1510   -0.6358 H   0  0  0  0  0  0  0  0  0  0  0  0
   -2.5044    3.6877    0.3415 H   0  0  0  0  0  0  0  0  0  0  0  0
   -0.3329    2.8848    1.0722 H   0  0  0  0  0  0  0  0  0  0  0  0
    3.6061    0.2410    2.8151 H   0  0  0  0  0  0  0  0  0  0  0  0
    5.6741   -0.8617    2.0114 H   0  0  0  0  0  0  0  0  0  0  0  0
    4.2799    0.1120   -2.5988 H   0  0  0  0  0  0  0  0  0  0  0  0
    1.8127   -1.4807    1.0702 H   0  0  0  0  0  0  0  0  0  0  0  0
    0.1538   -2.9795    0.0913 H   0  0  0  0  0  0  0  0  0  0  0  0
   -2.0164   -2.1438   -0.6479 H   0  0  0  0  0  0  0  0  0  0  0  0
  1  2  1  0
  2  3  1  0
  2  4  1  0
  4  5  2  0
  5  6  1  0
  6  7  2  0
  7  8  1  0
  8  9  2  0
  9 10  1  0
 10 11  2  0
 10 12  2  0
 10 13  1  0
 13 14  1  0
 14 15  2  0
 15 16  1  0
 16 17  2  0
 17 18  1  0
 17 19  1  0
 19 20  2  0
  9 21  1  0
 21 22  2  0
 22 23  1  0
 23 24  2  0
 24  4  1  0
 24  8  1  0
 20 14  1  0
  1 25  1  0
  1 26  1  0
  1 27  1  0
  3 28  1  0
  3 29  1  0
  3 30  1  0
  5 31  1  0
  6 32  1  0
  7 33  1  0
 13 34  1  0
 15 35  1  0
 19 36  1  0
 21 37  1  0
 22 38  1  0
 23 39  1  0
M  END
$$$$
