
     RDKit          3D

 40 42  0  0  0  0  0  0  0  0999 V2000
    5.5855   -1.8634   -1.0682 C   0  0  0  0  0  0  0  0  0  0  0  0
    4.1571   -1.5962   -1.2039 N   0  0  0  0  0  0  0  0  0  0  0  0
    3.3556   -1.0693   -0.1265 C   0  0  0  0  0  0  0  0  0  0  0  0
    3.6549   -1.4309    1.1972 C   0  0  0  0  0  0  0  0  0  0  0  0
    2.8659   -0.9889    2.2528 C   0  0  0  0  0  0  0  0  0  0  0  0
    1.7554   -0.1857    2.0154 C   0  0  0  0  0  0  0  0  0  0  0  0
    1.4153    0.2070    0.7055 C   0  0  0  0  0  0  0  0  0  0  0  0
    0.2842    1.0292    0.4457 C   0  0  0  0  0  0  0  0  0  0  0  0
   -0.8453    1.5325    1.7199 S   0  0  0  0  0  6  0  0  0  0  0  0
   -0.1468    2.4847    2.6493 O   0  0  0  0  0  0  0  0  0  0  0  0
   -1.3148    0.3389    2.5051 O   0  0  0  0  0  0  0  0  0  0  0  0
   -2.2290    2.3369    1.0444 N   0  0  0  0  0  0  0  0  0  0  0  0
   -3.4688    1.6758    0.7472 C   0  0  0  0  0  0  0  0  0  0  0  0
   -4.6333    2.3505    0.9502 N   0  0  0  0  0  0  0  0  0  0  0  0
   -5.8417    1.7914    0.6844 C   0  0  0  0  0  0  0  0  0  0  0  0
   -5.8981    0.4926    0.1819 C   0  0  0  0  0  0  0  0  0  0  0  0
   -7.5754   -0.3309   -0.1997 Br  0  0  0  0  0  0  0  0  0  0  0  0
   -4.7436   -0.1826   -0.0482 N   0  0  0  0  0  0  0  0  0  0  0  0
   -3.5266    0.3722    0.2108 C   0  0  0  0  0  0  0  0  0  0  0  0
   -2.3571   -0.3358   -0.0784 O   0  0  0  0  0  0  0  0  0  0  0  0
   -2.3577   -1.6446   -0.6340 C   0  0  0  0  0  0  0  0  0  0  0  0
    0.0335    1.4589   -0.8644 C   0  0  0  0  0  0  0  0  0  0  0  0
    0.8616    1.0724   -1.9115 C   0  0  0  0  0  0  0  0  0  0  0  0
    1.9530    0.2419   -1.6777 C   0  0  0  0  0  0  0  0  0  0  0  0
    2.2419   -0.2208   -0.3779 C   0  0  0  0  0  0  0  0  0  0  0  0
    6.0988   -0.9727   -0.6486 H   0  0  0  0  0  0  0  0  0  0  0  0
    5.7498   -2.7408   -0.4094 H   0  0  0  0  0  0  0  0  0  0  0  0
    6.0217   -2.0897   -2.0641 H   0  0  0  0  0  0  0  0  0  0  0  0
    3.7221   -1.7942   -2.1317 H   0  0  0  0  0  0  0  0  0  0  0  0
    4.4924   -2.0772    1.4203 H   0  0  0  0  0  0  0  0  0  0  0  0
    3.1127   -1.2794    3.2662 H   0  0  0  0  0  0  0  0  0  0  0  0
    1.1849    0.1338    2.8743 H   0  0  0  0  0  0  0  0  0  0  0  0
   -2.2327    3.3800    1.0941 H   0  0  0  0  0  0  0  0  0  0  0  0
   -6.7483    2.3536    0.8641 H   0  0  0  0  0  0  0  0  0  0  0  0
   -2.8622   -1.6374   -1.6232 H   0  0  0  0  0  0  0  0  0  0  0  0
   -2.8780   -2.3477    0.0501 H   0  0  0  0  0  0  0  0  0  0  0  0
   -1.3091   -1.9816   -0.7676 H   0  0  0  0  0  0  0  0  0  0  0  0
   -0.8102    2.0984   -1.0853 H   0  0  0  0  0  0  0  0  0  0  0  0
    0.6562    1.4217   -2.9154 H   0  0  0  0  0  0  0  0  0  0  0  0
    2.5765   -0.0025   -2.5247 H   0  0  0  0  0  0  0  0  0  0  0  0
  1  2  1  0
  2  3  1  0
  3  4  2  0
  4  5  1  0
  5  6  2  0
  6  7  1  0
  7  8  2  0
  8  9  1  0
  9 10  2  0
  9 11  2  0
  9 12  1  0
 12 13  1  0
 13 14  2  0
 14 15  1  0
 15 16  2  0
 16 17  1  0
 16 18  1  0
 18 19  2  0
 19 20  1  0
 20 21  1  0
  8 22  1  0
 22 23  2  0
 23 24  1  0
 24 25  2  0
 25  3  1  0
 25  7  1  0
 19 13  1  0
  1 26  1  0
  1 27  1  0
  1 28  1  0
  2 29  1  0
  4 30  1  0
  5 31  1  0
  6 32  1  0
 12 33  1  0
 15 34  1  0
 21 35  1  0
 21 36  1  0
 21 37  1  0
 22 38  1  0
 23 39  1  0
 24 40  1  0
M  END
$$$$
