
     RDKit          3D

 52 54  0  0  0  0  0  0  0  0999 V2000
   -2.1562    3.3960   -1.3047 C   0  0  0  0  0  0  0  0  0  0  0  0
   -2.5370    2.8709    0.0791 C   0  0  0  0  0  0  0  0  0  0  0  0
   -3.6545    1.8139    0.0384 C   0  0  0  0  0  0  0  0  0  0  0  0
   -3.2824    0.5126   -0.6971 C   0  0  0  0  0  0  0  0  0  0  0  0
   -2.1651   -0.2509   -0.0069 C   0  0  0  0  0  0  0  0  0  0  0  0
   -2.3969   -1.1129    1.0055 C   0  0  0  0  0  0  0  0  0  0  0  0
   -3.7600   -1.5098    1.5057 C   0  0  0  0  0  0  0  0  0  0  0  0
   -4.3792   -2.4713    0.5978 N   0  0  0  0  0  0  0  0  0  0  0  0
   -5.4771   -2.2756   -0.0706 O   0  0  0  0  0  0  0  0  0  0  0  0
   -5.7374   -3.3619   -0.7627 C   0  0  0  0  0  0  0  0  0  0  0  0
   -6.7355   -3.4939   -1.5180 O   0  0  0  0  0  0  0  0  0  0  0  0
   -4.8106   -4.3211   -0.5655 N   0  0  0  0  0  0  0  0  0  0  0  0
   -3.9741   -3.7219    0.3012 C   0  0  0  0  0  0  0  0  0  0  0  0
   -2.9445   -4.2693    0.7792 O   0  0  0  0  0  0  0  0  0  0  0  0
   -0.7622   -0.0045   -0.4296 C   0  0  0  0  0  0  0  0  0  0  0  0
   -0.4024   -0.0859   -1.7852 C   0  0  0  0  0  0  0  0  0  0  0  0
    0.9102    0.1756   -2.1842 C   0  0  0  0  0  0  0  0  0  0  0  0
    1.8798    0.5066   -1.2356 C   0  0  0  0  0  0  0  0  0  0  0  0
    1.5448    0.5619    0.1285 C   0  0  0  0  0  0  0  0  0  0  0  0
    2.4857    0.9062    1.1103 O   0  0  0  0  0  0  0  0  0  0  0  0
    3.8604    0.6344    1.0511 C   0  0  0  0  0  0  0  0  0  0  0  0
    4.3661   -0.5099    0.4086 C   0  0  0  0  0  0  0  0  0  0  0  0
    5.7426   -0.7531    0.3822 C   0  0  0  0  0  0  0  0  0  0  0  0
    6.6292    0.1280    1.0195 C   0  0  0  0  0  0  0  0  0  0  0  0
    8.1089   -0.1102    0.9582 C   0  0  0  0  0  0  0  0  0  0  0  0
    6.1233    1.2667    1.6645 C   0  0  0  0  0  0  0  0  0  0  0  0
    4.7466    1.5090    1.6898 C   0  0  0  0  0  0  0  0  0  0  0  0
    0.2237    0.3183    0.5212 C   0  0  0  0  0  0  0  0  0  0  0  0
   -3.0598    3.7326   -1.8557 H   0  0  0  0  0  0  0  0  0  0  0  0
   -1.4670    4.2594   -1.1939 H   0  0  0  0  0  0  0  0  0  0  0  0
   -1.6324    2.6148   -1.8922 H   0  0  0  0  0  0  0  0  0  0  0  0
   -2.8974    3.7291    0.6866 H   0  0  0  0  0  0  0  0  0  0  0  0
   -1.6380    2.4690    0.5892 H   0  0  0  0  0  0  0  0  0  0  0  0
   -3.9464    1.5777    1.0832 H   0  0  0  0  0  0  0  0  0  0  0  0
   -4.5490    2.2555   -0.4527 H   0  0  0  0  0  0  0  0  0  0  0  0
   -4.1885   -0.1199   -0.7772 H   0  0  0  0  0  0  0  0  0  0  0  0
   -3.0128    0.7475   -1.7458 H   0  0  0  0  0  0  0  0  0  0  0  0
   -1.5557   -1.6139    1.4714 H   0  0  0  0  0  0  0  0  0  0  0  0
   -4.4160   -0.6252    1.6336 H   0  0  0  0  0  0  0  0  0  0  0  0
   -3.6523   -1.9821    2.5055 H   0  0  0  0  0  0  0  0  0  0  0  0
   -4.7595   -5.2813   -0.9730 H   0  0  0  0  0  0  0  0  0  0  0  0
   -1.1330   -0.3578   -2.5363 H   0  0  0  0  0  0  0  0  0  0  0  0
    1.1757    0.1265   -3.2326 H   0  0  0  0  0  0  0  0  0  0  0  0
    2.8837    0.7358   -1.5678 H   0  0  0  0  0  0  0  0  0  0  0  0
    3.6974   -1.2209   -0.0587 H   0  0  0  0  0  0  0  0  0  0  0  0
    6.1158   -1.6323   -0.1283 H   0  0  0  0  0  0  0  0  0  0  0  0
    8.5306    0.4133    0.0748 H   0  0  0  0  0  0  0  0  0  0  0  0
    8.6040    0.2716    1.8765 H   0  0  0  0  0  0  0  0  0  0  0  0
    8.3298   -1.1959    0.8753 H   0  0  0  0  0  0  0  0  0  0  0  0
    6.7940    1.9655    2.1493 H   0  0  0  0  0  0  0  0  0  0  0  0
    4.3670    2.3867    2.1976 H   0  0  0  0  0  0  0  0  0  0  0  0
   -0.0365    0.3967    1.5696 H   0  0  0  0  0  0  0  0  0  0  0  0
  1  2  1  0
  2  3  1  0
  3  4  1  0
  4  5  1  0
  5  6  2  0
  6  7  1  0
  7  8  1  0
  8  9  1  0
  9 10  1  0
 10 11  2  0
 10 12  1  0
 12 13  1  0
 13 14  2  0
  5 15  1  0
 15 16  2  0
 16 17  1  0
 17 18  2  0
 18 19  1  0
 19 20  1  0
 20 21  1  0
 21 22  2  0
 22 23  1  0
 23 24  2  0
 24 25  1  0
 24 26  1  0
 26 27  2  0
 19 28  2  0
 13  8  1  0
 28 15  1  0
 27 21  1  0
  1 29  1  0
  1 30  1  0
  1 31  1  0
  2 32  1  0
  2 33  1  0
  3 34  1  0
  3 35  1  0
  4 36  1  0
  4 37  1  0
  6 38  1  0
  7 39  1  0
  7 40  1  0
 12 41  1  0
 16 42  1  0
 17 43  1  0
 18 44  1  0
 22 45  1  0
 23 46  1  0
 25 47  1  0
 25 48  1  0
 25 49  1  0
 26 50  1  0
 27 51  1  0
 28 52  1  0
M  END
$$$$
