
     RDKit          3D

 55 57  0  0  0  0  0  0  0  0999 V2000
    4.4310   -1.9368    1.0712 C   0  0  0  0  0  0  0  0  0  0  0  0
    3.9407   -0.8464    0.1213 C   0  0  0  0  0  0  0  0  0  0  0  0
    3.1738   -1.4239   -1.0787 C   0  0  0  0  0  0  0  0  0  0  0  0
    1.7950   -1.9239   -0.6865 C   0  0  0  0  0  0  0  0  0  0  0  0
    1.6569   -3.3076   -0.5113 C   0  0  0  0  0  0  0  0  0  0  0  0
    0.4297   -3.8369   -0.1349 C   0  0  0  0  0  0  0  0  0  0  0  0
    0.2994   -5.0797    0.0150 O   0  0  0  0  0  0  0  0  0  0  0  0
   -0.6066   -3.0418    0.0715 O   0  0  0  0  0  0  0  0  0  0  0  0
   -0.5564   -1.7187   -0.0596 C   0  0  0  0  0  0  0  0  0  0  0  0
   -1.7234   -0.9639    0.2034 C   0  0  0  0  0  0  0  0  0  0  0  0
   -3.0351   -1.6777    0.5287 C   0  0  0  0  0  0  0  0  0  0  0  0
   -3.5995   -1.1355    1.6937 O   0  0  0  0  0  0  0  0  0  0  0  0
   -4.0173   -1.5557   -0.6516 C   0  0  0  0  0  0  0  0  0  0  0  0
   -5.2622   -2.4183   -0.4583 C   0  0  0  0  0  0  0  0  0  0  0  0
   -1.6778    0.4424    0.0725 C   0  0  0  0  0  0  0  0  0  0  0  0
   -2.7987    1.2224    0.3887 O   0  0  0  0  0  0  0  0  0  0  0  0
   -3.0250    1.7415    1.7017 C   0  0  0  0  0  0  0  0  0  0  0  0
   -2.3991    3.1185    1.8721 C   0  0  0  0  0  0  0  0  0  0  0  0
   -0.5133    1.0643   -0.4021 C   0  0  0  0  0  0  0  0  0  0  0  0
    0.6584    0.3228   -0.6207 C   0  0  0  0  0  0  0  0  0  0  0  0
    0.6579   -1.0864   -0.4560 C   0  0  0  0  0  0  0  0  0  0  0  0
    1.8025    1.0164   -1.0372 O   0  0  0  0  0  0  0  0  0  0  0  0
    1.9553    2.4375   -0.9362 C   0  0  0  0  0  0  0  0  0  0  0  0
    2.8919    2.9003   -2.0570 C   0  0  0  0  0  0  0  0  0  0  0  0
    2.5628    2.7801    0.4304 C   0  0  0  0  0  0  0  0  0  0  0  0
    0.6193    3.1289   -1.0719 C   0  0  0  0  0  0  0  0  0  0  0  0
   -0.5140    2.4964   -0.7678 C   0  0  0  0  0  0  0  0  0  0  0  0
    3.5713   -2.4711    1.5267 H   0  0  0  0  0  0  0  0  0  0  0  0
    5.0289   -1.4770    1.8849 H   0  0  0  0  0  0  0  0  0  0  0  0
    5.0718   -2.6635    0.5295 H   0  0  0  0  0  0  0  0  0  0  0  0
    4.8212   -0.2829   -0.2555 H   0  0  0  0  0  0  0  0  0  0  0  0
    3.3026   -0.1406    0.6915 H   0  0  0  0  0  0  0  0  0  0  0  0
    3.7768   -2.2453   -1.5242 H   0  0  0  0  0  0  0  0  0  0  0  0
    3.1064   -0.6865   -1.9014 H   0  0  0  0  0  0  0  0  0  0  0  0
    2.4983   -3.9753   -0.6651 H   0  0  0  0  0  0  0  0  0  0  0  0
   -2.8448   -2.7624    0.6964 H   0  0  0  0  0  0  0  0  0  0  0  0
   -4.1001   -1.8591    2.1528 H   0  0  0  0  0  0  0  0  0  0  0  0
   -3.5121   -1.8788   -1.5867 H   0  0  0  0  0  0  0  0  0  0  0  0
   -4.3335   -0.5002   -0.7824 H   0  0  0  0  0  0  0  0  0  0  0  0
   -4.9807   -3.4885   -0.3570 H   0  0  0  0  0  0  0  0  0  0  0  0
   -5.9248   -2.3140   -1.3427 H   0  0  0  0  0  0  0  0  0  0  0  0
   -5.8264   -2.0931    0.4401 H   0  0  0  0  0  0  0  0  0  0  0  0
   -2.6140    1.0566    2.4746 H   0  0  0  0  0  0  0  0  0  0  0  0
   -4.1205    1.8280    1.8611 H   0  0  0  0  0  0  0  0  0  0  0  0
   -2.6802    3.5340    2.8628 H   0  0  0  0  0  0  0  0  0  0  0  0
   -2.7659    3.8057    1.0813 H   0  0  0  0  0  0  0  0  0  0  0  0
   -1.2928    3.0466    1.8264 H   0  0  0  0  0  0  0  0  0  0  0  0
    3.8737    2.3856   -1.9748 H   0  0  0  0  0  0  0  0  0  0  0  0
    3.0595    3.9981   -2.0058 H   0  0  0  0  0  0  0  0  0  0  0  0
    2.4519    2.6520   -3.0472 H   0  0  0  0  0  0  0  0  0  0  0  0
    2.6722    3.8786    0.5483 H   0  0  0  0  0  0  0  0  0  0  0  0
    3.5648    2.3138    0.5369 H   0  0  0  0  0  0  0  0  0  0  0  0
    1.9127    2.3967    1.2445 H   0  0  0  0  0  0  0  0  0  0  0  0
    0.5834    4.1821   -1.3242 H   0  0  0  0  0  0  0  0  0  0  0  0
   -1.4458    3.0421   -0.8311 H   0  0  0  0  0  0  0  0  0  0  0  0
  1  2  1  0
  2  3  1  0
  3  4  1  0
  4  5  2  0
  5  6  1  0
  6  7  2  0
  6  8  1  0
  8  9  1  0
  9 10  2  0
 10 11  1  0
 11 12  1  0
 11 13  1  0
 13 14  1  0
 10 15  1  0
 15 16  1  0
 16 17  1  0
 17 18  1  0
 15 19  2  0
 19 20  1  0
 20 21  2  0
 20 22  1  0
 22 23  1  0
 23 24  1  0
 23 25  1  0
 23 26  1  0
 26 27  2  0
 21  4  1  0
 21  9  1  0
 27 19  1  0
  1 28  1  0
  1 29  1  0
  1 30  1  0
  2 31  1  0
  2 32  1  0
  3 33  1  0
  3 34  1  0
  5 35  1  0
 11 36  1  0
 12 37  1  0
 13 38  1  0
 13 39  1  0
 14 40  1  0
 14 41  1  0
 14 42  1  0
 17 43  1  0
 17 44  1  0
 18 45  1  0
 18 46  1  0
 18 47  1  0
 24 48  1  0
 24 49  1  0
 24 50  1  0
 25 51  1  0
 25 52  1  0
 25 53  1  0
 26 54  1  0
 27 55  1  0
M  END
$$$$
