
     RDKit          3D

 37 40  0  0  0  0  0  0  0  0999 V2000
    0.5341   -3.5112    2.3058 O   0  0  0  0  0  0  0  0  0  0  0  0
    0.4265   -2.4558    1.6245 C   0  0  0  0  0  0  0  0  0  0  0  0
    1.5319   -1.6138    1.5058 C   0  0  0  0  0  0  0  0  0  0  0  0
    1.4222   -0.4363    0.7535 C   0  0  0  0  0  0  0  0  0  0  0  0
    2.5743    0.4851    0.5915 C   0  0  0  0  0  0  0  0  0  0  0  0
    3.8701   -0.0394    0.4161 C   0  0  0  0  0  0  0  0  0  0  0  0
    4.9637    0.8103    0.2341 C   0  0  0  0  0  0  0  0  0  0  0  0
    4.7812    2.1928    0.2207 C   0  0  0  0  0  0  0  0  0  0  0  0
    3.5045    2.7302    0.3896 C   0  0  0  0  0  0  0  0  0  0  0  0
    2.3987    1.8901    0.5730 C   0  0  0  0  0  0  0  0  0  0  0  0
    0.8282    2.6476    0.8290 Cl  0  0  0  0  0  0  0  0  0  0  0  0
    0.2674   -0.1391    0.1675 O   0  0  0  0  0  0  0  0  0  0  0  0
   -0.8184   -0.9046    0.2461 C   0  0  0  0  0  0  0  0  0  0  0  0
   -2.0018   -0.4976   -0.4020 C   0  0  0  0  0  0  0  0  0  0  0  0
   -2.0355    0.7739   -1.1653 C   0  0  0  0  0  0  0  0  0  0  0  0
   -1.1095    1.0309   -2.1855 C   0  0  0  0  0  0  0  0  0  0  0  0
   -1.1472    2.2099   -2.8584 N   0  0  0  0  0  0  0  0  0  0  0  0
   -2.0738    3.1559   -2.5580 C   0  0  0  0  0  0  0  0  0  0  0  0
   -2.9812    2.9315   -1.5729 N   0  0  0  0  0  0  0  0  0  0  0  0
   -2.9811    1.7662   -0.8753 C   0  0  0  0  0  0  0  0  0  0  0  0
   -3.1529   -1.3013   -0.3103 C   0  0  0  0  0  0  0  0  0  0  0  0
   -4.3269   -0.9231   -0.9628 O   0  0  0  0  0  0  0  0  0  0  0  0
   -3.1196   -2.4922    0.4232 C   0  0  0  0  0  0  0  0  0  0  0  0
   -1.9495   -2.9051    1.0715 C   0  0  0  0  0  0  0  0  0  0  0  0
   -1.9540   -4.0998    1.7930 O   0  0  0  0  0  0  0  0  0  0  0  0
   -0.7842   -2.1108    0.9883 C   0  0  0  0  0  0  0  0  0  0  0  0
    2.4570   -1.8673    2.0096 H   0  0  0  0  0  0  0  0  0  0  0  0
    4.0367   -1.1090    0.3964 H   0  0  0  0  0  0  0  0  0  0  0  0
    5.9538    0.3952    0.0967 H   0  0  0  0  0  0  0  0  0  0  0  0
    5.6302    2.8490    0.0792 H   0  0  0  0  0  0  0  0  0  0  0  0
    3.3753    3.8052    0.3832 H   0  0  0  0  0  0  0  0  0  0  0  0
   -0.3628    0.2931   -2.4503 H   0  0  0  0  0  0  0  0  0  0  0  0
   -2.0888    4.0894   -3.1034 H   0  0  0  0  0  0  0  0  0  0  0  0
   -3.7080    1.6204   -0.0866 H   0  0  0  0  0  0  0  0  0  0  0  0
   -5.1677   -1.4867   -0.9154 H   0  0  0  0  0  0  0  0  0  0  0  0
   -4.0104   -3.1047    0.4865 H   0  0  0  0  0  0  0  0  0  0  0  0
   -2.7828   -4.6789    1.8611 H   0  0  0  0  0  0  0  0  0  0  0  0
  1  2  2  0
  2  3  1  0
  3  4  2  0
  4  5  1  0
  5  6  2  0
  6  7  1  0
  7  8  2  0
  8  9  1  0
  9 10  2  0
 10 11  1  0
  4 12  1  0
 12 13  1  0
 13 14  2  0
 14 15  1  0
 15 16  2  0
 16 17  1  0
 17 18  2  0
 18 19  1  0
 19 20  2  0
 14 21  1  0
 21 22  1  0
 21 23  2  0
 23 24  1  0
 24 25  1  0
 24 26  2  0
 26  2  1  0
 10  5  1  0
 26 13  1  0
 20 15  1  0
  3 27  1  0
  6 28  1  0
  7 29  1  0
  8 30  1  0
  9 31  1  0
 16 32  1  0
 18 33  1  0
 20 34  1  0
 22 35  1  0
 23 36  1  0
 25 37  1  0
M  END
$$$$
