
     RDKit          3D

 47 50  0  0  0  0  0  0  0  0999 V2000
    2.1834    1.7056    4.0028 C   0  0  0  0  0  0  0  0  0  0  0  0
    1.2382    1.1492    3.0948 O   0  0  0  0  0  0  0  0  0  0  0  0
    1.5559    0.6265    1.8301 C   0  0  0  0  0  0  0  0  0  0  0  0
    2.8787    0.6150    1.3449 C   0  0  0  0  0  0  0  0  0  0  0  0
    3.1791    0.1008    0.0750 C   0  0  0  0  0  0  0  0  0  0  0  0
    4.5454    0.1121   -0.3787 N   0  0  0  0  0  0  0  0  0  0  0  0
    5.0397   -0.1991   -2.0136 S   0  0  0  0  0  6  0  0  0  0  0  0
    4.3121    0.9960   -3.1148 C   0  0  0  0  0  0  0  0  0  0  0  0
    6.5350   -0.0772   -2.0994 O   0  0  0  0  0  0  0  0  0  0  0  0
    4.6457   -1.5927   -2.4153 O   0  0  0  0  0  0  0  0  0  0  0  0
    2.1394   -0.4247   -0.7082 C   0  0  0  0  0  0  0  0  0  0  0  0
    0.8267   -0.4204   -0.2367 C   0  0  0  0  0  0  0  0  0  0  0  0
    0.5192    0.1087    1.0297 C   0  0  0  0  0  0  0  0  0  0  0  0
   -0.8375    0.1161    1.5187 N   0  0  0  0  0  0  0  0  0  0  0  0
   -1.9724   -0.2119    0.6997 C   0  0  0  0  0  0  0  0  0  0  0  0
   -2.6693   -1.4210    0.9107 C   0  0  0  0  0  0  0  0  0  0  0  0
   -2.2835   -2.3395    1.9072 C   0  0  0  0  0  0  0  0  0  0  0  0
   -2.9931   -3.5315    2.0804 C   0  0  0  0  0  0  0  0  0  0  0  0
   -4.0881   -3.8235    1.2643 C   0  0  0  0  0  0  0  0  0  0  0  0
   -4.4785   -2.9263    0.2679 C   0  0  0  0  0  0  0  0  0  0  0  0
   -3.7761   -1.7295    0.0848 C   0  0  0  0  0  0  0  0  0  0  0  0
   -4.1595   -0.8695   -0.8929 N   0  0  0  0  0  0  0  0  0  0  0  0
   -3.5156    0.3049   -1.1144 C   0  0  0  0  0  0  0  0  0  0  0  0
   -3.9607    1.1556   -2.1329 C   0  0  0  0  0  0  0  0  0  0  0  0
   -3.3171    2.3736   -2.3612 C   0  0  0  0  0  0  0  0  0  0  0  0
   -2.2299    2.7505   -1.5702 C   0  0  0  0  0  0  0  0  0  0  0  0
   -1.7758    1.9095   -0.5502 C   0  0  0  0  0  0  0  0  0  0  0  0
   -2.4056    0.6705   -0.3160 C   0  0  0  0  0  0  0  0  0  0  0  0
    1.6535    2.0370    4.9191 H   0  0  0  0  0  0  0  0  0  0  0  0
    2.9373    0.9408    4.2857 H   0  0  0  0  0  0  0  0  0  0  0  0
    2.6824    2.5850    3.5435 H   0  0  0  0  0  0  0  0  0  0  0  0
    3.6841    1.0123    1.9475 H   0  0  0  0  0  0  0  0  0  0  0  0
    5.2952    0.4041    0.2875 H   0  0  0  0  0  0  0  0  0  0  0  0
    3.2078    0.9000   -3.1085 H   0  0  0  0  0  0  0  0  0  0  0  0
    4.5915    2.0182   -2.7864 H   0  0  0  0  0  0  0  0  0  0  0  0
    4.6867    0.8263   -4.1452 H   0  0  0  0  0  0  0  0  0  0  0  0
    2.3289   -0.8514   -1.6812 H   0  0  0  0  0  0  0  0  0  0  0  0
    0.0526   -0.8417   -0.8646 H   0  0  0  0  0  0  0  0  0  0  0  0
   -1.0186    0.2904    2.5327 H   0  0  0  0  0  0  0  0  0  0  0  0
   -1.4354   -2.1463    2.5516 H   0  0  0  0  0  0  0  0  0  0  0  0
   -2.6918   -4.2320    2.8486 H   0  0  0  0  0  0  0  0  0  0  0  0
   -4.6333   -4.7483    1.4025 H   0  0  0  0  0  0  0  0  0  0  0  0
   -5.3266   -3.1635   -0.3626 H   0  0  0  0  0  0  0  0  0  0  0  0
   -4.8080    0.8755   -2.7468 H   0  0  0  0  0  0  0  0  0  0  0  0
   -3.6648    3.0291   -3.1491 H   0  0  0  0  0  0  0  0  0  0  0  0
   -1.7389    3.6989   -1.7460 H   0  0  0  0  0  0  0  0  0  0  0  0
   -0.9386    2.2379    0.0513 H   0  0  0  0  0  0  0  0  0  0  0  0
  1  2  1  0
  2  3  1  0
  3  4  2  0
  4  5  1  0
  5  6  1  0
  6  7  1  0
  7  8  1  0
  7  9  2  0
  7 10  2  0
  5 11  2  0
 11 12  1  0
 12 13  2  0
 13 14  1  0
 14 15  1  0
 15 16  1  0
 16 17  2  0
 17 18  1  0
 18 19  2  0
 19 20  1  0
 20 21  2  0
 21 22  1  0
 22 23  2  0
 23 24  1  0
 24 25  2  0
 25 26  1  0
 26 27  2  0
 27 28  1  0
 13  3  1  0
 28 15  2  0
 21 16  1  0
 28 23  1  0
  1 29  1  0
  1 30  1  0
  1 31  1  0
  4 32  1  0
  6 33  1  0
  8 34  1  0
  8 35  1  0
  8 36  1  0
 11 37  1  0
 12 38  1  0
 14 39  1  0
 17 40  1  0
 18 41  1  0
 19 42  1  0
 20 43  1  0
 24 44  1  0
 25 45  1  0
 26 46  1  0
 27 47  1  0
M  END
$$$$
