
     RDKit          3D

 32 34  0  0  0  0  0  0  0  0999 V2000
    5.4399    2.3494    0.4231 N   0  0  0  0  0  0  0  0  0  0  0  0
    4.1948    1.8077   -0.0111 C   0  0  0  0  0  0  0  0  0  0  0  0
    3.3877    2.5317   -0.8311 N   0  0  0  0  0  0  0  0  0  0  0  0
    2.1944    2.0430   -1.2624 C   0  0  0  0  0  0  0  0  0  0  0  0
    1.3967    2.8172   -2.1017 O   0  0  0  0  0  0  0  0  0  0  0  0
    1.7809    0.7646   -0.8572 C   0  0  0  0  0  0  0  0  0  0  0  0
    0.5595    0.2057   -1.2683 C   0  0  0  0  0  0  0  0  0  0  0  0
    0.1932   -1.0776   -0.8379 C   0  0  0  0  0  0  0  0  0  0  0  0
   -1.3501   -1.7626   -1.3320 S   0  0  0  0  0  6  0  0  0  0  0  0
   -1.2775   -3.2644   -1.3155 O   0  0  0  0  0  0  0  0  0  0  0  0
   -1.6765   -1.3268   -2.7335 O   0  0  0  0  0  0  0  0  0  0  0  0
   -2.6002   -1.2128   -0.2232 C   0  0  0  0  0  0  0  0  0  0  0  0
   -3.3138   -0.0378   -0.4921 C   0  0  0  0  0  0  0  0  0  0  0  0
   -4.2912    0.4098    0.4005 C   0  0  0  0  0  0  0  0  0  0  0  0
   -4.5596   -0.3082    1.5715 C   0  0  0  0  0  0  0  0  0  0  0  0
   -5.7955    0.2869    2.6717 Cl  0  0  0  0  0  0  0  0  0  0  0  0
   -3.8392   -1.4826    1.8501 C   0  0  0  0  0  0  0  0  0  0  0  0
   -4.1378   -2.4098    3.3140 Cl  0  0  0  0  0  0  0  0  0  0  0  0
   -2.8608   -1.9281    0.9532 C   0  0  0  0  0  0  0  0  0  0  0  0
    1.0423   -1.7957    0.0159 C   0  0  0  0  0  0  0  0  0  0  0  0
    2.2591   -1.2449    0.4276 C   0  0  0  0  0  0  0  0  0  0  0  0
    2.6332    0.0311   -0.0055 C   0  0  0  0  0  0  0  0  0  0  0  0
    3.8148    0.5680    0.3954 N   0  0  0  0  0  0  0  0  0  0  0  0
    5.7384    3.3014    0.1150 H   0  0  0  0  0  0  0  0  0  0  0  0
    6.0648    1.7992    1.0532 H   0  0  0  0  0  0  0  0  0  0  0  0
    1.6931    3.7403   -2.3954 H   0  0  0  0  0  0  0  0  0  0  0  0
   -0.1085    0.7617   -1.9148 H   0  0  0  0  0  0  0  0  0  0  0  0
   -3.1112    0.5339   -1.3888 H   0  0  0  0  0  0  0  0  0  0  0  0
   -4.8382    1.3182    0.1822 H   0  0  0  0  0  0  0  0  0  0  0  0
   -2.3012   -2.8282    1.1753 H   0  0  0  0  0  0  0  0  0  0  0  0
    0.7610   -2.7803    0.3670 H   0  0  0  0  0  0  0  0  0  0  0  0
    2.9075   -1.8101    1.0858 H   0  0  0  0  0  0  0  0  0  0  0  0
  1  2  1  0
  2  3  2  0
  3  4  1  0
  4  5  1  0
  4  6  2  0
  6  7  1  0
  7  8  2  0
  8  9  1  0
  9 10  2  0
  9 11  2  0
  9 12  1  0
 12 13  2  0
 13 14  1  0
 14 15  2  0
 15 16  1  0
 15 17  1  0
 17 18  1  0
 17 19  2  0
  8 20  1  0
 20 21  2  0
 21 22  1  0
 22 23  2  0
 23  2  1  0
 22  6  1  0
 19 12  1  0
  1 24  1  0
  1 25  1  0
  5 26  1  0
  7 27  1  0
 13 28  1  0
 14 29  1  0
 19 30  1  0
 20 31  1  0
 21 32  1  0
M  END
$$$$
