
     RDKit          3D

 54 58  0  0  0  0  0  0  0  0999 V2000
   -1.4365   -0.1424   -3.0968 C   0  0  0  0  0  0  0  0  0  0  0  0
   -1.9101    0.3607   -1.8106 N   0  0  0  0  0  0  0  0  0  0  0  0
   -1.7946   -0.2647   -0.6164 C   0  0  0  0  0  0  0  0  0  0  0  0
   -2.3001    0.5420    0.4008 C   0  0  0  0  0  0  0  0  0  0  0  0
   -2.3231    0.2242    1.8429 C   0  0  0  0  0  0  0  0  0  0  0  0
   -1.3485   -0.3712    2.5430 C   0  0  0  0  0  0  0  0  0  0  0  0
    0.0016   -0.7073    2.0528 C   0  0  0  0  0  0  0  0  0  0  0  0
    0.7906    0.0734    1.2149 C   0  0  0  0  0  0  0  0  0  0  0  0
    1.9254   -0.5856    0.8865 N   0  0  0  0  0  0  0  0  0  0  0  0
    2.9018   -0.1388   -0.1068 C   0  0  0  0  0  0  0  0  0  0  0  0
    2.4897   -0.6317   -1.4994 C   0  0  0  0  0  0  0  0  0  0  0  0
    3.5290   -0.3096   -2.5854 C   0  0  0  0  0  0  0  0  0  0  0  0
    3.5833    1.1782   -2.9544 C   0  0  0  0  0  0  0  0  0  0  0  0
    4.3141    1.8917   -1.9960 O   0  0  0  0  0  0  0  0  0  0  0  0
    1.8576   -1.7865    1.5002 C   0  0  0  0  0  0  0  0  0  0  0  0
    2.7567   -2.8532    1.4060 C   0  0  0  0  0  0  0  0  0  0  0  0
    2.4439   -4.0424    2.0874 C   0  0  0  0  0  0  0  0  0  0  0  0
    1.2461   -4.1508    2.8255 C   0  0  0  0  0  0  0  0  0  0  0  0
    0.3499   -3.0699    2.8917 C   0  0  0  0  0  0  0  0  0  0  0  0
    0.6961   -1.8909    2.2289 C   0  0  0  0  0  0  0  0  0  0  0  0
   -1.8337   -0.5504    3.9136 C   0  0  0  0  0  0  0  0  0  0  0  0
   -1.1667   -1.0211    4.8719 O   0  0  0  0  0  0  0  0  0  0  0  0
   -3.1604   -0.0653    4.0464 N   0  0  0  0  0  0  0  0  0  0  0  0
   -3.4629    0.4118    2.7448 C   0  0  0  0  0  0  0  0  0  0  0  0
   -4.5860    0.8794    2.4199 O   0  0  0  0  0  0  0  0  0  0  0  0
   -2.7332    1.7016   -0.2189 C   0  0  0  0  0  0  0  0  0  0  0  0
   -3.2661    2.8820    0.3024 C   0  0  0  0  0  0  0  0  0  0  0  0
   -3.5693    3.9209   -0.5956 C   0  0  0  0  0  0  0  0  0  0  0  0
   -3.3225    3.7681   -1.9768 C   0  0  0  0  0  0  0  0  0  0  0  0
   -2.7636    2.5774   -2.4736 C   0  0  0  0  0  0  0  0  0  0  0  0
   -2.4775    1.5578   -1.5617 C   0  0  0  0  0  0  0  0  0  0  0  0
   -2.2629   -0.1161   -3.8377 H   0  0  0  0  0  0  0  0  0  0  0  0
   -0.5970    0.4890   -3.4585 H   0  0  0  0  0  0  0  0  0  0  0  0
   -1.0802   -1.1901   -2.9980 H   0  0  0  0  0  0  0  0  0  0  0  0
   -1.3587   -1.2474   -0.4845 H   0  0  0  0  0  0  0  0  0  0  0  0
    0.5264    1.0513    0.8321 H   0  0  0  0  0  0  0  0  0  0  0  0
    3.9122   -0.5189    0.1563 H   0  0  0  0  0  0  0  0  0  0  0  0
    2.9450    0.9705   -0.0950 H   0  0  0  0  0  0  0  0  0  0  0  0
    2.3653   -1.7356   -1.4601 H   0  0  0  0  0  0  0  0  0  0  0  0
    1.5042   -0.1968   -1.7742 H   0  0  0  0  0  0  0  0  0  0  0  0
    3.2490   -0.8776   -3.4998 H   0  0  0  0  0  0  0  0  0  0  0  0
    4.5367   -0.6640   -2.2744 H   0  0  0  0  0  0  0  0  0  0  0  0
    2.5532    1.5922   -3.0439 H   0  0  0  0  0  0  0  0  0  0  0  0
    4.0859    1.2808   -3.9416 H   0  0  0  0  0  0  0  0  0  0  0  0
    4.2749    2.8442   -2.2725 H   0  0  0  0  0  0  0  0  0  0  0  0
    3.6636   -2.7808    0.8209 H   0  0  0  0  0  0  0  0  0  0  0  0
    3.1209   -4.8851    2.0352 H   0  0  0  0  0  0  0  0  0  0  0  0
    1.0084   -5.0770    3.3325 H   0  0  0  0  0  0  0  0  0  0  0  0
   -0.5855   -3.1648    3.4255 H   0  0  0  0  0  0  0  0  0  0  0  0
   -3.7665   -0.0584    4.8966 H   0  0  0  0  0  0  0  0  0  0  0  0
   -3.4277    3.0094    1.3640 H   0  0  0  0  0  0  0  0  0  0  0  0
   -3.9866    4.8473   -0.2233 H   0  0  0  0  0  0  0  0  0  0  0  0
   -3.5547    4.5768   -2.6569 H   0  0  0  0  0  0  0  0  0  0  0  0
   -2.5571    2.4638   -3.5301 H   0  0  0  0  0  0  0  0  0  0  0  0
  1  2  1  0
  2  3  1  0
  3  4  2  0
  4  5  1  0
  5  6  2  0
  6  7  1  0
  7  8  2  0
  8  9  1  0
  9 10  1  0
 10 11  1  0
 11 12  1  0
 12 13  1  0
 13 14  1  0
  9 15  1  0
 15 16  2  0
 16 17  1  0
 17 18  2  0
 18 19  1  0
 19 20  2  0
  6 21  1  0
 21 22  2  0
 21 23  1  0
 23 24  1  0
 24 25  2  0
  4 26  1  0
 26 27  2  0
 27 28  1  0
 28 29  2  0
 29 30  1  0
 30 31  2  0
 31  2  1  0
 24  5  1  0
 31 26  1  0
 20  7  1  0
 20 15  1  0
  1 32  1  0
  1 33  1  0
  1 34  1  0
  3 35  1  0
  8 36  1  0
 10 37  1  0
 10 38  1  0
 11 39  1  0
 11 40  1  0
 12 41  1  0
 12 42  1  0
 13 43  1  0
 13 44  1  0
 14 45  1  0
 16 46  1  0
 17 47  1  0
 18 48  1  0
 19 49  1  0
 23 50  1  0
 27 51  1  0
 28 52  1  0
 29 53  1  0
 30 54  1  0
M  END
$$$$
