
     RDKit          3D

 55 58  0  0  0  0  0  0  0  0999 V2000
    5.7619    2.7657    2.6841 C   0  0  0  0  0  0  0  0  0  0  0  0
    6.2707    1.6430    1.9715 O   0  0  0  0  0  0  0  0  0  0  0  0
    5.4999    0.8053    1.1493 C   0  0  0  0  0  0  0  0  0  0  0  0
    4.1250    1.0157    0.9509 C   0  0  0  0  0  0  0  0  0  0  0  0
    3.3863    0.1608    0.1297 C   0  0  0  0  0  0  0  0  0  0  0  0
    2.0619    0.3989   -0.0522 N   0  0  0  0  0  0  0  0  0  0  0  0
    1.2776   -0.3861   -0.8365 C   0  0  0  0  0  0  0  0  0  0  0  0
   -0.1203   -0.0637   -0.9902 N   0  0  0  0  0  0  0  0  0  0  0  0
   -0.5337    1.3439   -0.8948 C   0  0  0  0  0  0  0  0  0  0  0  0
   -1.9607    1.5522   -1.4108 C   0  0  0  0  0  0  0  0  0  0  0  0
   -2.8779    0.5834   -0.7952 N   0  0  0  0  0  0  0  0  0  0  0  0
   -4.2497    0.9514   -0.5408 C   0  0  0  0  0  0  0  0  0  0  0  0
   -4.7089    2.0244   -1.0209 O   0  0  0  0  0  0  0  0  0  0  0  0
   -5.0871    0.1266    0.2882 N   0  0  0  0  0  0  0  0  0  0  0  0
   -6.5216    0.2217    0.3228 C   0  0  0  0  0  0  0  0  0  0  0  0
   -7.2038   -0.0759    1.5133 C   0  0  0  0  0  0  0  0  0  0  0  0
   -8.5995   -0.0092    1.5651 C   0  0  0  0  0  0  0  0  0  0  0  0
   -9.3266    0.3421    0.4252 C   0  0  0  0  0  0  0  0  0  0  0  0
   -8.6593    0.6190   -0.7705 C   0  0  0  0  0  0  0  0  0  0  0  0
   -7.2635    0.5535   -0.8267 C   0  0  0  0  0  0  0  0  0  0  0  0
   -2.4415   -0.8041   -0.5760 C   0  0  0  0  0  0  0  0  0  0  0  0
   -1.1149   -1.1065   -1.2824 C   0  0  0  0  0  0  0  0  0  0  0  0
    1.8527   -1.4809   -1.4980 C   0  0  0  0  0  0  0  0  0  0  0  0
    3.2132   -1.7772   -1.3316 C   0  0  0  0  0  0  0  0  0  0  0  0
    3.7420   -2.9330   -2.0012 N   0  0  0  0  0  0  0  0  0  0  0  0
    4.0089   -0.9368   -0.5101 C   0  0  0  0  0  0  0  0  0  0  0  0
    5.3926   -1.1314   -0.3189 C   0  0  0  0  0  0  0  0  0  0  0  0
    6.1360   -0.2677    0.5106 C   0  0  0  0  0  0  0  0  0  0  0  0
    7.5134   -0.4415    0.7249 O   0  0  0  0  0  0  0  0  0  0  0  0
    8.2998   -1.4791    0.1483 C   0  0  0  0  0  0  0  0  0  0  0  0
    4.9789    2.4402    3.4010 H   0  0  0  0  0  0  0  0  0  0  0  0
    6.5886    3.2391    3.2521 H   0  0  0  0  0  0  0  0  0  0  0  0
    5.3459    3.5117    1.9747 H   0  0  0  0  0  0  0  0  0  0  0  0
    3.6192    1.8441    1.4294 H   0  0  0  0  0  0  0  0  0  0  0  0
   -0.4742    1.6699    0.1663 H   0  0  0  0  0  0  0  0  0  0  0  0
    0.1533    1.9782   -1.4968 H   0  0  0  0  0  0  0  0  0  0  0  0
   -1.9832    1.4258   -2.5150 H   0  0  0  0  0  0  0  0  0  0  0  0
   -2.2665    2.5941   -1.1719 H   0  0  0  0  0  0  0  0  0  0  0  0
   -4.6258   -0.5033    0.9816 H   0  0  0  0  0  0  0  0  0  0  0  0
   -6.6520   -0.3503    2.4034 H   0  0  0  0  0  0  0  0  0  0  0  0
   -9.1175   -0.2319    2.4890 H   0  0  0  0  0  0  0  0  0  0  0  0
  -10.4070    0.3919    0.4663 H   0  0  0  0  0  0  0  0  0  0  0  0
   -9.2245    0.8770   -1.6569 H   0  0  0  0  0  0  0  0  0  0  0  0
   -6.7699    0.7384   -1.7712 H   0  0  0  0  0  0  0  0  0  0  0  0
   -2.3184   -0.9780    0.5147 H   0  0  0  0  0  0  0  0  0  0  0  0
   -3.2105   -1.5078   -0.9635 H   0  0  0  0  0  0  0  0  0  0  0  0
   -0.7603   -2.0987   -0.9279 H   0  0  0  0  0  0  0  0  0  0  0  0
   -1.2766   -1.1603   -2.3807 H   0  0  0  0  0  0  0  0  0  0  0  0
    1.2513   -2.1016   -2.1495 H   0  0  0  0  0  0  0  0  0  0  0  0
    4.6677   -3.3516   -1.7753 H   0  0  0  0  0  0  0  0  0  0  0  0
    3.1509   -3.4608   -2.6818 H   0  0  0  0  0  0  0  0  0  0  0  0
    5.9087   -1.9347   -0.8143 H   0  0  0  0  0  0  0  0  0  0  0  0
    8.2836   -1.4001   -0.9591 H   0  0  0  0  0  0  0  0  0  0  0  0
    7.9177   -2.4713    0.4683 H   0  0  0  0  0  0  0  0  0  0  0  0
    9.3480   -1.3744    0.4956 H   0  0  0  0  0  0  0  0  0  0  0  0
  1  2  1  0
  2  3  1  0
  3  4  2  0
  4  5  1  0
  5  6  2  0
  6  7  1  0
  7  8  1  0
  8  9  1  0
  9 10  1  0
 10 11  1  0
 11 12  1  0
 12 13  2  0
 12 14  1  0
 14 15  1  0
 15 16  2  0
 16 17  1  0
 17 18  2  0
 18 19  1  0
 19 20  2  0
 11 21  1  0
 21 22  1  0
  7 23  2  0
 23 24  1  0
 24 25  1  0
 24 26  2  0
 26 27  1  0
 27 28  2  0
 28 29  1  0
 29 30  1  0
 28  3  1  0
 26  5  1  0
 22  8  1  0
 20 15  1  0
  1 31  1  0
  1 32  1  0
  1 33  1  0
  4 34  1  0
  9 35  1  0
  9 36  1  0
 10 37  1  0
 10 38  1  0
 14 39  1  0
 16 40  1  0
 17 41  1  0
 18 42  1  0
 19 43  1  0
 20 44  1  0
 21 45  1  0
 21 46  1  0
 22 47  1  0
 22 48  1  0
 23 49  1  0
 25 50  1  0
 25 51  1  0
 27 52  1  0
 30 53  1  0
 30 54  1  0
 30 55  1  0
M  END
$$$$
