
     RDKit          3D

 53 55  0  0  0  0  0  0  0  0999 V2000
   -3.5575   -2.1555    3.6068 C   0  0  0  0  0  0  0  0  0  0  0  0
   -3.3853   -1.8956    2.1132 C   0  0  0  0  0  0  0  0  0  0  0  0
   -2.7879   -0.5074    1.8583 C   0  0  0  0  0  0  0  0  0  0  0  0
   -2.6089   -0.2521    0.3574 C   0  0  0  0  0  0  0  0  0  0  0  0
   -2.0510    1.1368    0.1175 C   0  0  0  0  0  0  0  0  0  0  0  0
   -2.8445    2.2132   -0.0640 C   0  0  0  0  0  0  0  0  0  0  0  0
   -4.3462    2.1648   -0.1325 C   0  0  0  0  0  0  0  0  0  0  0  0
   -4.7830    1.5881   -1.4014 N   0  0  0  0  0  0  0  0  0  0  0  0
   -4.2977    1.8853   -2.5710 O   0  0  0  0  0  0  0  0  0  0  0  0
   -4.9843    1.2315   -3.4806 C   0  0  0  0  0  0  0  0  0  0  0  0
   -4.7590    1.2990   -4.7171 O   0  0  0  0  0  0  0  0  0  0  0  0
   -5.9648    0.4852   -2.9338 N   0  0  0  0  0  0  0  0  0  0  0  0
   -5.8106    0.7452   -1.6229 C   0  0  0  0  0  0  0  0  0  0  0  0
   -6.5428    0.2614   -0.7190 O   0  0  0  0  0  0  0  0  0  0  0  0
   -0.5824    1.3317    0.2002 C   0  0  0  0  0  0  0  0  0  0  0  0
   -0.0392    2.2873    1.0763 C   0  0  0  0  0  0  0  0  0  0  0  0
    1.3436    2.4661    1.1556 C   0  0  0  0  0  0  0  0  0  0  0  0
    2.1978    1.6901    0.3694 C   0  0  0  0  0  0  0  0  0  0  0  0
    1.6714    0.7179   -0.4989 C   0  0  0  0  0  0  0  0  0  0  0  0
    2.4954   -0.0674   -1.3184 O   0  0  0  0  0  0  0  0  0  0  0  0
    3.7924   -0.4943   -0.9970 C   0  0  0  0  0  0  0  0  0  0  0  0
    4.7057   -0.7093   -2.0345 C   0  0  0  0  0  0  0  0  0  0  0  0
    6.0037   -1.1496   -1.7579 C   0  0  0  0  0  0  0  0  0  0  0  0
    6.4013   -1.3947   -0.4296 C   0  0  0  0  0  0  0  0  0  0  0  0
    7.6912   -1.8361   -0.0991 O   0  0  0  0  0  0  0  0  0  0  0  0
    8.7245   -2.0803   -1.0477 C   0  0  0  0  0  0  0  0  0  0  0  0
    5.4800   -1.1974    0.6054 C   0  0  0  0  0  0  0  0  0  0  0  0
    4.1829   -0.7570    0.3278 C   0  0  0  0  0  0  0  0  0  0  0  0
    0.2837    0.5569   -0.5902 C   0  0  0  0  0  0  0  0  0  0  0  0
   -2.5746   -2.1097    4.1222 H   0  0  0  0  0  0  0  0  0  0  0  0
   -4.2417   -1.4026    4.0531 H   0  0  0  0  0  0  0  0  0  0  0  0
   -3.9924   -3.1656    3.7605 H   0  0  0  0  0  0  0  0  0  0  0  0
   -2.7172   -2.6756    1.6870 H   0  0  0  0  0  0  0  0  0  0  0  0
   -4.3779   -1.9727    1.6181 H   0  0  0  0  0  0  0  0  0  0  0  0
   -1.7985   -0.4337    2.3619 H   0  0  0  0  0  0  0  0  0  0  0  0
   -3.4588    0.2659    2.2918 H   0  0  0  0  0  0  0  0  0  0  0  0
   -1.9170   -1.0160   -0.0552 H   0  0  0  0  0  0  0  0  0  0  0  0
   -3.5731   -0.3972   -0.1703 H   0  0  0  0  0  0  0  0  0  0  0  0
   -2.3878    3.1882   -0.1933 H   0  0  0  0  0  0  0  0  0  0  0  0
   -4.7543    1.5902    0.7256 H   0  0  0  0  0  0  0  0  0  0  0  0
   -4.7439    3.1990   -0.0603 H   0  0  0  0  0  0  0  0  0  0  0  0
   -6.6681   -0.1259   -3.4056 H   0  0  0  0  0  0  0  0  0  0  0  0
   -0.6861    2.8894    1.7026 H   0  0  0  0  0  0  0  0  0  0  0  0
    1.7541    3.2105    1.8255 H   0  0  0  0  0  0  0  0  0  0  0  0
    3.2647    1.8617    0.4242 H   0  0  0  0  0  0  0  0  0  0  0  0
    4.4101   -0.5267   -3.0599 H   0  0  0  0  0  0  0  0  0  0  0  0
    6.6878   -1.2973   -2.5824 H   0  0  0  0  0  0  0  0  0  0  0  0
    9.6355   -2.4182   -0.5126 H   0  0  0  0  0  0  0  0  0  0  0  0
    8.9628   -1.1477   -1.6015 H   0  0  0  0  0  0  0  0  0  0  0  0
    8.4122   -2.8765   -1.7561 H   0  0  0  0  0  0  0  0  0  0  0  0
    5.7693   -1.3935    1.6301 H   0  0  0  0  0  0  0  0  0  0  0  0
    3.4813   -0.6407    1.1432 H   0  0  0  0  0  0  0  0  0  0  0  0
   -0.1152   -0.1691   -1.2876 H   0  0  0  0  0  0  0  0  0  0  0  0
  1  2  1  0
  2  3  1  0
  3  4  1  0
  4  5  1  0
  5  6  2  0
  6  7  1  0
  7  8  1  0
  8  9  1  0
  9 10  1  0
 10 11  2  0
 10 12  1  0
 12 13  1  0
 13 14  2  0
  5 15  1  0
 15 16  2  0
 16 17  1  0
 17 18  2  0
 18 19  1  0
 19 20  1  0
 20 21  1  0
 21 22  2  0
 22 23  1  0
 23 24  2  0
 24 25  1  0
 25 26  1  0
 24 27  1  0
 27 28  2  0
 19 29  2  0
 13  8  1  0
 29 15  1  0
 28 21  1  0
  1 30  1  0
  1 31  1  0
  1 32  1  0
  2 33  1  0
  2 34  1  0
  3 35  1  0
  3 36  1  0
  4 37  1  0
  4 38  1  0
  6 39  1  0
  7 40  1  0
  7 41  1  0
 12 42  1  0
 16 43  1  0
 17 44  1  0
 18 45  1  0
 22 46  1  0
 23 47  1  0
 26 48  1  0
 26 49  1  0
 26 50  1  0
 27 51  1  0
 28 52  1  0
 29 53  1  0
M  END
$$$$
