
     RDKit          3D

 55 56  0  0  0  0  0  0  0  0999 V2000
   -8.1340   -1.1538   -1.3266 C   0  0  0  0  0  0  0  0  0  0  0  0
   -7.0921   -1.3777   -0.2301 C   0  0  0  0  0  0  0  0  0  0  0  0
   -6.8036   -0.0721    0.5279 C   0  0  0  0  0  0  0  0  0  0  0  0
   -5.7625   -0.2599    1.6557 C   0  0  0  0  0  0  0  0  0  0  0  0
   -4.3898    0.3615    1.3365 C   0  0  0  0  0  0  0  0  0  0  0  0
   -3.6038   -0.4204    0.2569 C   0  0  0  0  0  0  0  0  0  0  0  0
   -3.3230   -1.7328    0.6767 O   0  0  0  0  0  0  0  0  0  0  0  0
   -2.3234    0.2889   -0.1471 C   0  0  0  0  0  0  0  0  0  0  0  0
   -2.0658    0.5519   -1.5041 C   0  0  0  0  0  0  0  0  0  0  0  0
   -0.8788    1.1772   -1.8909 C   0  0  0  0  0  0  0  0  0  0  0  0
    0.0648    1.5504   -0.9321 C   0  0  0  0  0  0  0  0  0  0  0  0
   -0.1745    1.2992    0.4327 C   0  0  0  0  0  0  0  0  0  0  0  0
    0.7250    1.6756    1.4441 O   0  0  0  0  0  0  0  0  0  0  0  0
    2.0511    2.1618    1.2354 C   0  0  0  0  0  0  0  0  0  0  0  0
    2.9676    1.0312    0.8566 C   0  0  0  0  0  0  0  0  0  0  0  0
    3.1750   -0.0257    1.7549 C   0  0  0  0  0  0  0  0  0  0  0  0
    4.0339   -1.0766    1.4224 C   0  0  0  0  0  0  0  0  0  0  0  0
    4.6964   -1.0924    0.1902 C   0  0  0  0  0  0  0  0  0  0  0  0
    5.5556   -2.1688   -0.0859 O   0  0  0  0  0  0  0  0  0  0  0  0
    6.2975   -2.3455   -1.2948 C   0  0  0  0  0  0  0  0  0  0  0  0
    7.4140   -1.3533   -1.3930 C   0  0  0  0  0  0  0  0  0  0  0  0
    7.8694   -1.0467   -2.5262 O   0  0  0  0  0  0  0  0  0  0  0  0
    7.9743   -0.8121   -0.2302 O   0  0  0  0  0  0  0  0  0  0  0  0
    9.0556    0.1123   -0.2632 C   0  0  0  0  0  0  0  0  0  0  0  0
    4.4813   -0.0367   -0.7173 C   0  0  0  0  0  0  0  0  0  0  0  0
    3.6256    1.0187   -0.3825 C   0  0  0  0  0  0  0  0  0  0  0  0
   -1.3611    0.6592    0.8122 C   0  0  0  0  0  0  0  0  0  0  0  0
   -8.3190   -2.1041   -1.8708 H   0  0  0  0  0  0  0  0  0  0  0  0
   -7.7709   -0.3948   -2.0537 H   0  0  0  0  0  0  0  0  0  0  0  0
   -9.0920   -0.8057   -0.8809 H   0  0  0  0  0  0  0  0  0  0  0  0
   -6.1620   -1.7727   -0.6920 H   0  0  0  0  0  0  0  0  0  0  0  0
   -7.4779   -2.1423    0.4795 H   0  0  0  0  0  0  0  0  0  0  0  0
   -7.7561    0.2837    0.9812 H   0  0  0  0  0  0  0  0  0  0  0  0
   -6.4759    0.7148   -0.1858 H   0  0  0  0  0  0  0  0  0  0  0  0
   -5.6426   -1.3332    1.9266 H   0  0  0  0  0  0  0  0  0  0  0  0
   -6.1492    0.2488    2.5681 H   0  0  0  0  0  0  0  0  0  0  0  0
   -3.8027    0.3877    2.2827 H   0  0  0  0  0  0  0  0  0  0  0  0
   -4.5286    1.4180    1.0109 H   0  0  0  0  0  0  0  0  0  0  0  0
   -4.2544   -0.4901   -0.6388 H   0  0  0  0  0  0  0  0  0  0  0  0
   -2.7881   -1.6787    1.5172 H   0  0  0  0  0  0  0  0  0  0  0  0
   -2.7811    0.2705   -2.2669 H   0  0  0  0  0  0  0  0  0  0  0  0
   -0.6903    1.3760   -2.9382 H   0  0  0  0  0  0  0  0  0  0  0  0
    0.9680    2.0390   -1.2655 H   0  0  0  0  0  0  0  0  0  0  0  0
    2.0580    2.9823    0.4869 H   0  0  0  0  0  0  0  0  0  0  0  0
    2.4150    2.6014    2.1878 H   0  0  0  0  0  0  0  0  0  0  0  0
    2.6734   -0.0326    2.7151 H   0  0  0  0  0  0  0  0  0  0  0  0
    4.1885   -1.8828    2.1282 H   0  0  0  0  0  0  0  0  0  0  0  0
    5.6217   -2.2691   -2.1745 H   0  0  0  0  0  0  0  0  0  0  0  0
    6.7382   -3.3643   -1.2924 H   0  0  0  0  0  0  0  0  0  0  0  0
    9.3050    0.4162    0.7716 H   0  0  0  0  0  0  0  0  0  0  0  0
    8.7698    1.0142   -0.8444 H   0  0  0  0  0  0  0  0  0  0  0  0
    9.9469   -0.3612   -0.7228 H   0  0  0  0  0  0  0  0  0  0  0  0
    4.9740   -0.0167   -1.6794 H   0  0  0  0  0  0  0  0  0  0  0  0
    3.4819    1.8262   -1.0889 H   0  0  0  0  0  0  0  0  0  0  0  0
   -1.5247    0.4486    1.8613 H   0  0  0  0  0  0  0  0  0  0  0  0
  1  2  1  0
  2  3  1  0
  3  4  1  0
  4  5  1  0
  5  6  1  0
  6  7  1  0
  6  8  1  0
  8  9  2  0
  9 10  1  0
 10 11  2  0
 11 12  1  0
 12 13  1  0
 13 14  1  0
 14 15  1  0
 15 16  2  0
 16 17  1  0
 17 18  2  0
 18 19  1  0
 19 20  1  0
 20 21  1  0
 21 22  2  0
 21 23  1  0
 23 24  1  0
 18 25  1  0
 25 26  2  0
 12 27  2  0
 27  8  1  0
 26 15  1  0
  1 28  1  0
  1 29  1  0
  1 30  1  0
  2 31  1  0
  2 32  1  0
  3 33  1  0
  3 34  1  0
  4 35  1  0
  4 36  1  0
  5 37  1  0
  5 38  1  0
  6 39  1  0
  7 40  1  0
  9 41  1  0
 10 42  1  0
 11 43  1  0
 14 44  1  0
 14 45  1  0
 16 46  1  0
 17 47  1  0
 20 48  1  0
 20 49  1  0
 24 50  1  0
 24 51  1  0
 24 52  1  0
 25 53  1  0
 26 54  1  0
 27 55  1  0
M  END
$$$$
