
     RDKit          3D

 48 49  0  0  0  0  0  0  0  0999 V2000
   -3.3920   -3.5105   -1.9039 C   0  0  0  0  0  0  0  0  0  0  0  0
   -3.3671   -2.2826   -1.0308 C   0  0  0  0  0  0  0  0  0  0  0  0
   -4.4712   -1.2589   -1.1540 C   0  0  0  0  0  0  0  0  0  0  0  0
   -2.3562   -2.1442   -0.1451 C   0  0  0  0  0  0  0  0  0  0  0  0
   -2.1653   -0.9488    0.7591 C   0  0  0  0  0  0  0  0  0  0  0  0
   -1.3718    0.1717    0.0673 C   0  0  1  0  0  0  0  0  0  0  0  0
   -1.3104    1.3020    0.9377 O   0  0  0  0  0  0  0  0  0  0  0  0
   -0.8307    2.5545    0.5380 C   0  0  0  0  0  0  0  0  0  0  0  0
   -0.4878    2.7584   -0.6598 O   0  0  0  0  0  0  0  0  0  0  0  0
   -0.6850    3.6444    1.5612 C   0  0  0  0  0  0  0  0  0  0  0  0
   -1.3895    4.9247    1.1010 C   0  0  0  0  0  0  0  0  0  0  0  0
    0.7962    3.9040    1.8491 C   0  0  0  0  0  0  0  0  0  0  0  0
    0.0311   -0.2936   -0.2953 C   0  0  0  0  0  0  0  0  0  0  0  0
    0.3033   -0.6372   -1.5627 C   0  0  0  0  0  0  0  0  0  0  0  0
    1.6359   -1.1088   -1.9672 C   0  0  0  0  0  0  0  0  0  0  0  0
    1.8234   -1.4249   -3.1725 O   0  0  0  0  0  0  0  0  0  0  0  0
    2.7317   -1.2060   -0.9676 C   0  0  0  0  0  0  0  0  0  0  0  0
    4.0295   -1.6329   -1.3311 C   0  0  0  0  0  0  0  0  0  0  0  0
    4.3246   -1.9799   -2.6498 O   0  0  0  0  0  0  0  0  0  0  0  0
    5.0355   -1.7100   -0.3626 C   0  0  0  0  0  0  0  0  0  0  0  0
    4.7700   -1.3678    0.9599 C   0  0  0  0  0  0  0  0  0  0  0  0
    3.4929   -0.9425    1.3408 C   0  0  0  0  0  0  0  0  0  0  0  0
    3.2584   -0.6027    2.6735 O   0  0  0  0  0  0  0  0  0  0  0  0
    2.4596   -0.8596    0.3783 C   0  0  0  0  0  0  0  0  0  0  0  0
    1.0856   -0.4151    0.7458 C   0  0  0  0  0  0  0  0  0  0  0  0
    0.8043   -0.1424    1.9443 O   0  0  0  0  0  0  0  0  0  0  0  0
   -2.4718   -3.5466   -2.5249 H   0  0  0  0  0  0  0  0  0  0  0  0
   -4.2697   -3.5155   -2.5831 H   0  0  0  0  0  0  0  0  0  0  0  0
   -3.4381   -4.4214   -1.2700 H   0  0  0  0  0  0  0  0  0  0  0  0
   -5.0223   -1.1784   -0.1938 H   0  0  0  0  0  0  0  0  0  0  0  0
   -4.0529   -0.2691   -1.4262 H   0  0  0  0  0  0  0  0  0  0  0  0
   -5.2020   -1.5426   -1.9394 H   0  0  0  0  0  0  0  0  0  0  0  0
   -1.5992   -2.9229   -0.0875 H   0  0  0  0  0  0  0  0  0  0  0  0
   -1.6203   -1.2804    1.6688 H   0  0  0  0  0  0  0  0  0  0  0  0
   -3.1446   -0.5585    1.1074 H   0  0  0  0  0  0  0  0  0  0  0  0
   -1.9263    0.4785   -0.8471 H   0  0  0  0  0  0  0  0  0  0  0  0
   -1.1668    3.3087    2.5060 H   0  0  0  0  0  0  0  0  0  0  0  0
   -1.3266    5.7000    1.8941 H   0  0  0  0  0  0  0  0  0  0  0  0
   -0.9217    5.3234    0.1749 H   0  0  0  0  0  0  0  0  0  0  0  0
   -2.4630    4.7184    0.9017 H   0  0  0  0  0  0  0  0  0  0  0  0
    1.2856    2.9703    2.2016 H   0  0  0  0  0  0  0  0  0  0  0  0
    1.3192    4.2598    0.9351 H   0  0  0  0  0  0  0  0  0  0  0  0
    0.9017    4.6726    2.6442 H   0  0  0  0  0  0  0  0  0  0  0  0
   -0.4689   -0.5751   -2.3210 H   0  0  0  0  0  0  0  0  0  0  0  0
    5.2499   -2.2873   -2.9262 H   0  0  0  0  0  0  0  0  0  0  0  0
    6.0309   -2.0364   -0.6364 H   0  0  0  0  0  0  0  0  0  0  0  0
    5.5633   -1.4330    1.6939 H   0  0  0  0  0  0  0  0  0  0  0  0
    3.9886   -0.6558    3.3743 H   0  0  0  0  0  0  0  0  0  0  0  0
  1  2  1  0
  2  3  1  0
  2  4  2  3
  4  5  1  0
  5  6  1  0
  6  7  1  0
  7  8  1  0
  8  9  2  0
  8 10  1  0
 10 11  1  0
 10 12  1  0
  6 13  1  0
 13 14  2  0
 14 15  1  0
 15 16  2  0
 15 17  1  0
 17 18  2  0
 18 19  1  0
 18 20  1  0
 20 21  2  0
 21 22  1  0
 22 23  1  0
 22 24  2  0
 24 25  1  0
 25 26  2  0
 25 13  1  0
 24 17  1  0
  1 27  1  0
  1 28  1  0
  1 29  1  0
  3 30  1  0
  3 31  1  0
  3 32  1  0
  4 33  1  0
  5 34  1  0
  5 35  1  0
  6 36  1  6
 10 37  1  0
 11 38  1  0
 11 39  1  0
 11 40  1  0
 12 41  1  0
 12 42  1  0
 12 43  1  0
 14 44  1  0
 19 45  1  0
 20 46  1  0
 21 47  1  0
 23 48  1  0
M  END
$$$$
