
     RDKit          3D

 51 52  0  0  0  0  0  0  0  0999 V2000
    4.7827   -1.5763    3.0776 C   0  0  0  0  0  0  0  0  0  0  0  0
    4.3105   -0.2023    2.6058 C   0  0  0  0  0  0  0  0  0  0  0  0
    3.4021   -0.3232    1.3787 C   0  0  0  0  0  0  0  0  0  0  0  0
    2.9199    1.0535    0.9065 C   0  0  0  0  0  0  0  0  0  0  0  0
    2.0217    0.9006   -0.2775 C   0  0  0  0  0  0  0  0  0  0  0  0
    2.5158    0.8550   -1.4362 O   0  0  0  0  0  0  0  0  0  0  0  0
    0.6476    0.7419   -0.0744 O   0  0  0  0  0  0  0  0  0  0  0  0
   -0.2903    0.4391   -1.1136 C   0  0  2  0  0  0  0  0  0  0  0  0
   -0.8929    1.7265   -1.7106 C   0  0  0  0  0  0  0  0  0  0  0  0
    0.1568    2.5753   -2.3828 C   0  0  0  0  0  0  0  0  0  0  0  0
    0.7155    3.6798   -1.8383 C   0  0  0  0  0  0  0  0  0  0  0  0
    0.2900    4.2155   -0.4903 C   0  0  0  0  0  0  0  0  0  0  0  0
    1.8015    4.3861   -2.6060 C   0  0  0  0  0  0  0  0  0  0  0  0
   -1.3940   -0.4278   -0.5388 C   0  0  0  0  0  0  0  0  0  0  0  0
   -1.9820   -0.0823    0.6162 C   0  0  0  0  0  0  0  0  0  0  0  0
   -3.0530   -0.8946    1.2120 C   0  0  0  0  0  0  0  0  0  0  0  0
   -3.4603   -0.5872    2.3605 O   0  0  0  0  0  0  0  0  0  0  0  0
   -3.5482   -2.1149    0.5117 C   0  0  0  0  0  0  0  0  0  0  0  0
   -4.6526   -2.8740    0.9821 C   0  0  0  0  0  0  0  0  0  0  0  0
   -5.5243   -2.4183    1.9748 O   0  0  0  0  0  0  0  0  0  0  0  0
   -4.9248   -4.1211    0.4192 C   0  0  0  0  0  0  0  0  0  0  0  0
   -4.1495   -4.6151   -0.6250 C   0  0  0  0  0  0  0  0  0  0  0  0
   -3.1007   -3.8600   -1.1493 C   0  0  0  0  0  0  0  0  0  0  0  0
   -2.3285   -4.4512   -2.1510 O   0  0  0  0  0  0  0  0  0  0  0  0
   -2.8343   -2.5644   -0.6277 C   0  0  0  0  0  0  0  0  0  0  0  0
   -1.8661   -1.6279   -1.2674 C   0  0  0  0  0  0  0  0  0  0  0  0
   -1.5215   -1.7891   -2.4694 O   0  0  0  0  0  0  0  0  0  0  0  0
    5.3547   -2.0859    2.2710 H   0  0  0  0  0  0  0  0  0  0  0  0
    3.9118   -2.2080    3.3673 H   0  0  0  0  0  0  0  0  0  0  0  0
    5.4434   -1.4577    3.9607 H   0  0  0  0  0  0  0  0  0  0  0  0
    5.1999    0.4185    2.3524 H   0  0  0  0  0  0  0  0  0  0  0  0
    3.7569    0.2920    3.4355 H   0  0  0  0  0  0  0  0  0  0  0  0
    2.5211   -0.9539    1.6351 H   0  0  0  0  0  0  0  0  0  0  0  0
    3.9630   -0.8156    0.5544 H   0  0  0  0  0  0  0  0  0  0  0  0
    3.7899    1.6926    0.6309 H   0  0  0  0  0  0  0  0  0  0  0  0
    2.3605    1.5593    1.7259 H   0  0  0  0  0  0  0  0  0  0  0  0
    0.2276   -0.1265   -1.9199 H   0  0  0  0  0  0  0  0  0  0  0  0
   -1.4462    2.2961   -0.9327 H   0  0  0  0  0  0  0  0  0  0  0  0
   -1.6390    1.4442   -2.4860 H   0  0  0  0  0  0  0  0  0  0  0  0
    0.5196    2.2233   -3.3468 H   0  0  0  0  0  0  0  0  0  0  0  0
    0.8972    5.0949   -0.1888 H   0  0  0  0  0  0  0  0  0  0  0  0
    0.4184    3.4347    0.2892 H   0  0  0  0  0  0  0  0  0  0  0  0
   -0.7738    4.5352   -0.5295 H   0  0  0  0  0  0  0  0  0  0  0  0
    1.4178    4.7012   -3.6010 H   0  0  0  0  0  0  0  0  0  0  0  0
    2.6676    3.7025   -2.7494 H   0  0  0  0  0  0  0  0  0  0  0  0
    2.1579    5.2893   -2.0700 H   0  0  0  0  0  0  0  0  0  0  0  0
   -1.6559    0.8061    1.1475 H   0  0  0  0  0  0  0  0  0  0  0  0
   -5.6109   -1.4477    2.2433 H   0  0  0  0  0  0  0  0  0  0  0  0
   -5.7526   -4.7125    0.7901 H   0  0  0  0  0  0  0  0  0  0  0  0
   -4.3618   -5.5979   -1.0256 H   0  0  0  0  0  0  0  0  0  0  0  0
   -1.4082   -4.1279   -2.4190 H   0  0  0  0  0  0  0  0  0  0  0  0
  1  2  1  0
  2  3  1  0
  3  4  1  0
  4  5  1  0
  5  6  2  0
  5  7  1  0
  7  8  1  0
  8  9  1  0
  9 10  1  0
 10 11  2  3
 11 12  1  0
 11 13  1  0
  8 14  1  0
 14 15  2  0
 15 16  1  0
 16 17  2  0
 16 18  1  0
 18 19  2  0
 19 20  1  0
 19 21  1  0
 21 22  2  0
 22 23  1  0
 23 24  1  0
 23 25  2  0
 25 26  1  0
 26 27  2  0
 26 14  1  0
 25 18  1  0
  1 28  1  0
  1 29  1  0
  1 30  1  0
  2 31  1  0
  2 32  1  0
  3 33  1  0
  3 34  1  0
  4 35  1  0
  4 36  1  0
  8 37  1  6
  9 38  1  0
  9 39  1  0
 10 40  1  0
 12 41  1  0
 12 42  1  0
 12 43  1  0
 13 44  1  0
 13 45  1  0
 13 46  1  0
 15 47  1  0
 20 48  1  0
 21 49  1  0
 22 50  1  0
 24 51  1  0
M  END
$$$$
