
     RDKit          3D

 56 59  0  0  0  0  0  0  0  0999 V2000
   -4.3980    3.0367    1.5962 C   0  0  0  0  0  0  0  0  0  0  0  0
   -4.7121    2.1770    0.3700 C   0  0  0  0  0  0  0  0  0  0  0  0
   -3.6257    1.1195    0.0918 C   0  0  0  0  0  0  0  0  0  0  0  0
   -2.2502    1.6125   -0.3620 C   0  0  0  0  0  0  0  0  0  0  0  0
   -2.0838    2.9342   -0.8193 C   0  0  0  0  0  0  0  0  0  0  0  0
   -0.8181    3.4017   -1.1530 C   0  0  0  0  0  0  0  0  0  0  0  0
   -0.6667    4.5933   -1.5303 O   0  0  0  0  0  0  0  0  0  0  0  0
    0.2330    2.6048   -1.0737 O   0  0  0  0  0  0  0  0  0  0  0  0
    0.1548    1.3290   -0.7100 C   0  0  0  0  0  0  0  0  0  0  0  0
    1.3372    0.5599   -0.6801 C   0  0  0  0  0  0  0  0  0  0  0  0
    1.2792   -0.7779   -0.2510 C   0  0  0  0  0  0  0  0  0  0  0  0
    0.0436   -1.3779    0.0168 C   0  0  0  0  0  0  0  0  0  0  0  0
   -1.1435   -0.6326   -0.0647 C   0  0  0  0  0  0  0  0  0  0  0  0
   -1.1023    0.7562   -0.3645 C   0  0  0  0  0  0  0  0  0  0  0  0
   -2.3536   -1.3007    0.1635 O   0  0  0  0  0  0  0  0  0  0  0  0
   -2.4981   -2.7257    0.1427 C   0  0  0  0  0  0  0  0  0  0  0  0
   -2.8740   -3.1615   -1.2794 C   0  0  0  0  0  0  0  0  0  0  0  0
   -3.6149   -3.1082    1.1199 C   0  0  0  0  0  0  0  0  0  0  0  0
   -1.2118   -3.4097    0.5489 C   0  0  0  0  0  0  0  0  0  0  0  0
   -0.0345   -2.7936    0.4321 C   0  0  0  0  0  0  0  0  0  0  0  0
    2.4542   -1.5242   -0.1019 O   0  0  0  0  0  0  0  0  0  0  0  0
    3.7454   -0.9227   -0.0632 C   0  0  2  0  0  0  0  0  0  0  0  0
    4.0220   -0.3968    1.3707 C   0  0  0  0  0  0  0  0  0  0  0  0
    5.4527   -0.6730    1.8348 C   0  0  0  0  0  0  0  0  0  0  0  0
    3.8177    0.1523   -1.1746 C   0  0  2  0  0  0  0  0  0  0  0  0
    5.1931    0.8306   -1.2514 C   0  0  0  0  0  0  0  0  0  0  0  0
    2.6720    1.1923   -1.0527 C   0  0  1  0  0  0  0  0  0  0  0  0
    2.5353    1.8577   -2.2848 O   0  0  0  0  0  0  0  0  0  0  0  0
   -3.4552    3.6044    1.4615 H   0  0  0  0  0  0  0  0  0  0  0  0
   -5.2230    3.7615    1.7599 H   0  0  0  0  0  0  0  0  0  0  0  0
   -4.3068    2.3973    2.4999 H   0  0  0  0  0  0  0  0  0  0  0  0
   -4.9013    2.8095   -0.5217 H   0  0  0  0  0  0  0  0  0  0  0  0
   -5.6653    1.6413    0.5720 H   0  0  0  0  0  0  0  0  0  0  0  0
   -3.5100    0.5510    1.0388 H   0  0  0  0  0  0  0  0  0  0  0  0
   -4.0182    0.4314   -0.6878 H   0  0  0  0  0  0  0  0  0  0  0  0
   -2.9110    3.6223   -0.9046 H   0  0  0  0  0  0  0  0  0  0  0  0
   -3.8141   -2.6624   -1.5986 H   0  0  0  0  0  0  0  0  0  0  0  0
   -3.0194   -4.2624   -1.3293 H   0  0  0  0  0  0  0  0  0  0  0  0
   -2.0714   -2.8765   -1.9935 H   0  0  0  0  0  0  0  0  0  0  0  0
   -4.5619   -2.5984    0.8403 H   0  0  0  0  0  0  0  0  0  0  0  0
   -3.7872   -4.2065    1.1153 H   0  0  0  0  0  0  0  0  0  0  0  0
   -3.3438   -2.7942    2.1510 H   0  0  0  0  0  0  0  0  0  0  0  0
   -1.2311   -4.4548    0.8353 H   0  0  0  0  0  0  0  0  0  0  0  0
    0.8684   -3.3484    0.6550 H   0  0  0  0  0  0  0  0  0  0  0  0
    4.4778   -1.7242   -0.3061 H   0  0  0  0  0  0  0  0  0  0  0  0
    3.8155    0.6893    1.4562 H   0  0  0  0  0  0  0  0  0  0  0  0
    3.3401   -0.9063    2.0865 H   0  0  0  0  0  0  0  0  0  0  0  0
    6.1906   -0.1729    1.1765 H   0  0  0  0  0  0  0  0  0  0  0  0
    5.6509   -1.7659    1.8398 H   0  0  0  0  0  0  0  0  0  0  0  0
    5.5876   -0.2874    2.8673 H   0  0  0  0  0  0  0  0  0  0  0  0
    3.6744   -0.3879   -2.1386 H   0  0  0  0  0  0  0  0  0  0  0  0
    5.3625    1.4894   -0.3741 H   0  0  0  0  0  0  0  0  0  0  0  0
    5.9968    0.0654   -1.2971 H   0  0  0  0  0  0  0  0  0  0  0  0
    5.2634    1.4487   -2.1710 H   0  0  0  0  0  0  0  0  0  0  0  0
    2.9156    1.9261   -0.2488 H   0  0  0  0  0  0  0  0  0  0  0  0
    3.1232    2.6571   -2.2548 H   0  0  0  0  0  0  0  0  0  0  0  0
  1  2  1  0
  2  3  1  0
  3  4  1  0
  4  5  2  0
  5  6  1  0
  6  7  2  0
  6  8  1  0
  8  9  1  0
  9 10  2  0
 10 11  1  0
 11 12  2  0
 12 13  1  0
 13 14  2  0
 13 15  1  0
 15 16  1  0
 16 17  1  0
 16 18  1  0
 16 19  1  0
 19 20  2  0
 11 21  1  0
 21 22  1  0
 22 23  1  0
 23 24  1  0
 22 25  1  0
 25 26  1  0
 25 27  1  0
 27 28  1  0
 14  4  1  0
 14  9  1  0
 27 10  1  0
 20 12  1  0
  1 29  1  0
  1 30  1  0
  1 31  1  0
  2 32  1  0
  2 33  1  0
  3 34  1  0
  3 35  1  0
  5 36  1  0
 17 37  1  0
 17 38  1  0
 17 39  1  0
 18 40  1  0
 18 41  1  0
 18 42  1  0
 19 43  1  0
 20 44  1  0
 22 45  1  6
 23 46  1  0
 23 47  1  0
 24 48  1  0
 24 49  1  0
 24 50  1  0
 25 51  1  6
 26 52  1  0
 26 53  1  0
 26 54  1  0
 27 55  1  1
 28 56  1  0
M  END
$$$$
