
     RDKit          3D

 42 44  0  0  0  0  0  0  0  0999 V2000
    5.5244   -1.8389   -0.7050 C   0  0  0  0  0  0  0  0  0  0  0  0
    4.9175   -0.7877    0.1835 C   0  0  0  0  0  0  0  0  0  0  0  0
    5.5416   -0.4568    1.3932 C   0  0  0  0  0  0  0  0  0  0  0  0
    4.9754    0.5132    2.2165 C   0  0  0  0  0  0  0  0  0  0  0  0
    5.7346    0.9464    3.7349 Cl  0  0  0  0  0  0  0  0  0  0  0  0
    3.8263    1.1244    1.8371 N   0  0  0  0  0  0  0  0  0  0  0  0
    3.2228    0.8174    0.6887 N   0  0  0  0  0  0  0  0  0  0  0  0
    3.7236   -0.1198   -0.1633 C   0  0  0  0  0  0  0  0  0  0  0  0
    3.0211   -0.4179   -1.3821 N   0  0  0  0  0  0  0  0  0  0  0  0
    1.5561    0.4021   -1.8201 S   0  0  0  0  0  6  0  0  0  0  0  0
    1.2419    0.0850   -3.2551 O   0  0  0  0  0  0  0  0  0  0  0  0
    1.7747    1.8829   -1.6782 O   0  0  0  0  0  0  0  0  0  0  0  0
    0.1997   -0.1189   -0.8000 C   0  0  0  0  0  0  0  0  0  0  0  0
    0.4115   -1.1723    0.1023 C   0  0  0  0  0  0  0  0  0  0  0  0
   -0.6082   -1.6097    0.9422 C   0  0  0  0  0  0  0  0  0  0  0  0
   -1.8617   -1.0077    0.8999 C   0  0  0  0  0  0  0  0  0  0  0  0
   -2.1192    0.0454    0.0040 C   0  0  0  0  0  0  0  0  0  0  0  0
   -3.3966    0.6528   -0.0493 C   0  0  0  0  0  0  0  0  0  0  0  0
   -4.4481    0.2508    0.8452 N   0  0  0  0  0  0  0  0  0  0  0  0
   -4.4516    0.7789    2.2085 C   0  0  0  0  0  0  0  0  0  0  0  0
   -5.6980   -0.2673    0.2917 C   0  0  0  0  0  0  0  0  0  0  0  0
   -3.6430    1.6708   -0.9783 C   0  0  0  0  0  0  0  0  0  0  0  0
   -2.6403    2.0940   -1.8452 C   0  0  0  0  0  0  0  0  0  0  0  0
   -1.3739    1.5137   -1.7960 C   0  0  0  0  0  0  0  0  0  0  0  0
   -1.0846    0.4880   -0.8714 C   0  0  0  0  0  0  0  0  0  0  0  0
    4.8134   -2.6828   -0.8277 H   0  0  0  0  0  0  0  0  0  0  0  0
    5.7588   -1.4022   -1.6985 H   0  0  0  0  0  0  0  0  0  0  0  0
    6.4667   -2.2426   -0.2771 H   0  0  0  0  0  0  0  0  0  0  0  0
    6.4588   -0.9470    1.6961 H   0  0  0  0  0  0  0  0  0  0  0  0
    3.3702   -1.1482   -2.0399 H   0  0  0  0  0  0  0  0  0  0  0  0
    1.3699   -1.6688    0.1604 H   0  0  0  0  0  0  0  0  0  0  0  0
   -0.4253   -2.4242    1.6315 H   0  0  0  0  0  0  0  0  0  0  0  0
   -2.6302   -1.3811    1.5645 H   0  0  0  0  0  0  0  0  0  0  0  0
   -4.9249    0.0486    2.8983 H   0  0  0  0  0  0  0  0  0  0  0  0
   -3.4145    0.9667    2.5602 H   0  0  0  0  0  0  0  0  0  0  0  0
   -5.0196    1.7325    2.2380 H   0  0  0  0  0  0  0  0  0  0  0  0
   -5.5037   -0.8172   -0.6542 H   0  0  0  0  0  0  0  0  0  0  0  0
   -6.3966    0.5717    0.0897 H   0  0  0  0  0  0  0  0  0  0  0  0
   -6.1699   -0.9707    1.0099 H   0  0  0  0  0  0  0  0  0  0  0  0
   -4.6167    2.1423   -1.0236 H   0  0  0  0  0  0  0  0  0  0  0  0
   -2.8452    2.8802   -2.5606 H   0  0  0  0  0  0  0  0  0  0  0  0
   -0.6373    1.8735   -2.4984 H   0  0  0  0  0  0  0  0  0  0  0  0
  1  2  1  0
  2  3  2  0
  3  4  1  0
  4  5  1  0
  4  6  2  0
  6  7  1  0
  7  8  2  0
  8  9  1  0
  9 10  1  0
 10 11  2  0
 10 12  2  0
 10 13  1  0
 13 14  2  0
 14 15  1  0
 15 16  2  0
 16 17  1  0
 17 18  2  0
 18 19  1  0
 19 20  1  0
 19 21  1  0
 18 22  1  0
 22 23  2  0
 23 24  1  0
 24 25  2  0
  8  2  1  0
 25 13  1  0
 25 17  1  0
  1 26  1  0
  1 27  1  0
  1 28  1  0
  3 29  1  0
  9 30  1  0
 14 31  1  0
 15 32  1  0
 16 33  1  0
 20 34  1  0
 20 35  1  0
 20 36  1  0
 21 37  1  0
 21 38  1  0
 21 39  1  0
 22 40  1  0
 23 41  1  0
 24 42  1  0
M  END
$$$$
