
     RDKit          3D

 56 59  0  0  0  0  0  0  0  0999 V2000
    5.0293    2.0563   -0.9372 C   0  0  0  0  0  0  0  0  0  0  0  0
    5.0258    1.1811    0.3178 C   0  0  0  0  0  0  0  0  0  0  0  0
    3.7191    0.3799    0.4795 C   0  0  0  0  0  0  0  0  0  0  0  0
    2.4352    1.1634    0.7581 C   0  0  0  0  0  0  0  0  0  0  0  0
    2.4997    2.4967    1.2063 C   0  0  0  0  0  0  0  0  0  0  0  0
    1.3326    3.2356    1.3622 C   0  0  0  0  0  0  0  0  0  0  0  0
    1.3936    4.4386    1.7284 O   0  0  0  0  0  0  0  0  0  0  0  0
    0.1547    2.6859    1.1231 O   0  0  0  0  0  0  0  0  0  0  0  0
    0.0025    1.4163    0.7616 C   0  0  0  0  0  0  0  0  0  0  0  0
   -1.3023    0.9213    0.5535 C   0  0  0  0  0  0  0  0  0  0  0  0
   -1.4781   -0.4075    0.1339 C   0  0  0  0  0  0  0  0  0  0  0  0
   -0.3780   -1.2680    0.0425 C   0  0  0  0  0  0  0  0  0  0  0  0
    0.9202   -0.7934    0.2871 C   0  0  0  0  0  0  0  0  0  0  0  0
    1.1398    0.5761    0.5961 C   0  0  0  0  0  0  0  0  0  0  0  0
    1.9699   -1.7204    0.2641 O   0  0  0  0  0  0  0  0  0  0  0  0
    1.8975   -2.9877   -0.4004 C   0  0  0  0  0  0  0  0  0  0  0  0
    2.3858   -2.8157   -1.8447 C   0  0  0  0  0  0  0  0  0  0  0  0
    2.8045   -3.9728    0.3447 C   0  0  0  0  0  0  0  0  0  0  0  0
    0.4801   -3.5154   -0.4157 C   0  0  0  0  0  0  0  0  0  0  0  0
   -0.5658   -2.7013   -0.2643 C   0  0  0  0  0  0  0  0  0  0  0  0
   -2.7544   -0.8888   -0.1814 O   0  0  0  0  0  0  0  0  0  0  0  0
   -3.8852   -0.0425   -0.3874 C   0  0  0  0  0  0  0  0  0  0  0  0
   -5.1377   -0.9283   -0.2585 C   0  0  0  0  0  0  0  0  0  0  0  0
   -3.8168    0.5195   -1.8234 C   0  0  0  0  0  0  0  0  0  0  0  0
   -3.8682    1.0735    0.7044 C   0  0  2  0  0  0  0  0  0  0  0  0
   -5.0374    2.0724    0.5975 C   0  0  0  0  0  0  0  0  0  0  0  0
   -2.5124    1.8345    0.7235 C   0  0  1  0  0  0  0  0  0  0  0  0
   -2.4090    2.5827    1.9116 O   0  0  0  0  0  0  0  0  0  0  0  0
    4.2231    2.8166   -0.9013 H   0  0  0  0  0  0  0  0  0  0  0  0
    6.0035    2.5828   -1.0173 H   0  0  0  0  0  0  0  0  0  0  0  0
    4.8927    1.4286   -1.8434 H   0  0  0  0  0  0  0  0  0  0  0  0
    5.8615    0.4540    0.2220 H   0  0  0  0  0  0  0  0  0  0  0  0
    5.2480    1.7834    1.2226 H   0  0  0  0  0  0  0  0  0  0  0  0
    3.8667   -0.3464    1.3076 H   0  0  0  0  0  0  0  0  0  0  0  0
    3.5972   -0.1851   -0.4683 H   0  0  0  0  0  0  0  0  0  0  0  0
    3.4377    2.9885    1.4147 H   0  0  0  0  0  0  0  0  0  0  0  0
    3.4277   -2.4300   -1.8559 H   0  0  0  0  0  0  0  0  0  0  0  0
    1.7416   -2.0881   -2.3839 H   0  0  0  0  0  0  0  0  0  0  0  0
    2.3592   -3.7850   -2.3883 H   0  0  0  0  0  0  0  0  0  0  0  0
    3.8466   -3.5879    0.3755 H   0  0  0  0  0  0  0  0  0  0  0  0
    2.4511   -4.1010    1.3905 H   0  0  0  0  0  0  0  0  0  0  0  0
    2.8067   -4.9658   -0.1550 H   0  0  0  0  0  0  0  0  0  0  0  0
    0.3030   -4.5572   -0.6565 H   0  0  0  0  0  0  0  0  0  0  0  0
   -1.5631   -3.1142   -0.3531 H   0  0  0  0  0  0  0  0  0  0  0  0
   -6.0577   -0.3800   -0.5496 H   0  0  0  0  0  0  0  0  0  0  0  0
   -5.2501   -1.2959    0.7838 H   0  0  0  0  0  0  0  0  0  0  0  0
   -5.0476   -1.8136   -0.9244 H   0  0  0  0  0  0  0  0  0  0  0  0
   -4.7209    1.1148   -2.0683 H   0  0  0  0  0  0  0  0  0  0  0  0
   -2.9182    1.1540   -1.9658 H   0  0  0  0  0  0  0  0  0  0  0  0
   -3.7519   -0.3162   -2.5528 H   0  0  0  0  0  0  0  0  0  0  0  0
   -3.9725    0.5615    1.6882 H   0  0  0  0  0  0  0  0  0  0  0  0
   -4.9985    2.7924    1.4422 H   0  0  0  0  0  0  0  0  0  0  0  0
   -6.0149    1.5536    0.6605 H   0  0  0  0  0  0  0  0  0  0  0  0
   -4.9882    2.6516   -0.3476 H   0  0  0  0  0  0  0  0  0  0  0  0
   -2.4950    2.5528   -0.1244 H   0  0  0  0  0  0  0  0  0  0  0  0
   -2.3327    1.9398    2.6652 H   0  0  0  0  0  0  0  0  0  0  0  0
  1  2  1  0
  2  3  1  0
  3  4  1  0
  4  5  2  0
  5  6  1  0
  6  7  2  0
  6  8  1  0
  8  9  1  0
  9 10  2  0
 10 11  1  0
 11 12  2  0
 12 13  1  0
 13 14  2  0
 13 15  1  0
 15 16  1  0
 16 17  1  0
 16 18  1  0
 16 19  1  0
 19 20  2  0
 11 21  1  0
 21 22  1  0
 22 23  1  0
 22 24  1  0
 22 25  1  0
 25 26  1  0
 25 27  1  0
 27 28  1  0
 14  4  1  0
 14  9  1  0
 27 10  1  0
 20 12  1  0
  1 29  1  0
  1 30  1  0
  1 31  1  0
  2 32  1  0
  2 33  1  0
  3 34  1  0
  3 35  1  0
  5 36  1  0
 17 37  1  0
 17 38  1  0
 17 39  1  0
 18 40  1  0
 18 41  1  0
 18 42  1  0
 19 43  1  0
 20 44  1  0
 23 45  1  0
 23 46  1  0
 23 47  1  0
 24 48  1  0
 24 49  1  0
 24 50  1  0
 25 51  1  1
 26 52  1  0
 26 53  1  0
 26 54  1  0
 27 55  1  6
 28 56  1  0
M  END
$$$$
