
     RDKit          3D

 56 59  0  0  0  0  0  0  0  0999 V2000
   -4.2564   -3.3779    0.1249 C   0  0  0  0  0  0  0  0  0  0  0  0
   -4.4359   -2.3037   -0.9497 C   0  0  0  0  0  0  0  0  0  0  0  0
   -3.4055   -1.1638   -0.8282 C   0  0  0  0  0  0  0  0  0  0  0  0
   -1.9366   -1.5076   -1.0811 C   0  0  0  0  0  0  0  0  0  0  0  0
   -1.5930   -2.6836   -1.7748 C   0  0  0  0  0  0  0  0  0  0  0  0
   -0.2575   -3.0418   -1.9172 C   0  0  0  0  0  0  0  0  0  0  0  0
    0.0480   -4.1083   -2.5124 O   0  0  0  0  0  0  0  0  0  0  0  0
    0.6982   -2.2743   -1.4229 O   0  0  0  0  0  0  0  0  0  0  0  0
    0.4618   -1.1206   -0.8068 C   0  0  0  0  0  0  0  0  0  0  0  0
    1.5558   -0.3730   -0.3207 C   0  0  0  0  0  0  0  0  0  0  0  0
    1.3329    0.9176    0.1945 C   0  0  0  0  0  0  0  0  0  0  0  0
    0.0299    1.4161    0.3099 C   0  0  0  0  0  0  0  0  0  0  0  0
   -1.0671    0.6501   -0.1154 C   0  0  0  0  0  0  0  0  0  0  0  0
   -0.8728   -0.6491   -0.6566 C   0  0  0  0  0  0  0  0  0  0  0  0
   -2.3369    1.2381   -0.0530 O   0  0  0  0  0  0  0  0  0  0  0  0
   -2.6554    2.3556    0.7845 C   0  0  0  0  0  0  0  0  0  0  0  0
   -3.7832    3.1498    0.1169 C   0  0  0  0  0  0  0  0  0  0  0  0
   -3.1202    1.8321    2.1498 C   0  0  0  0  0  0  0  0  0  0  0  0
   -1.4510    3.2490    0.9784 C   0  0  0  0  0  0  0  0  0  0  0  0
   -0.2111    2.7873    0.8069 C   0  0  0  0  0  0  0  0  0  0  0  0
    2.4112    1.7177    0.5939 O   0  0  0  0  0  0  0  0  0  0  0  0
    3.7623    1.4163    0.2552 C   0  0  2  0  0  0  0  0  0  0  0  0
    4.0560    1.9735   -1.1473 C   0  0  0  0  0  0  0  0  0  0  0  0
    4.0122   -0.1146    0.4169 C   0  0  0  0  0  0  0  0  0  0  0  0
    5.4525   -0.4824   -0.0110 C   0  0  0  0  0  0  0  0  0  0  0  0
    3.8580   -0.4777    1.9173 C   0  0  0  0  0  0  0  0  0  0  0  0
    2.9776   -0.9126   -0.4449 C   0  0  1  0  0  0  0  0  0  0  0  0
    2.9993   -2.2729   -0.0812 O   0  0  0  0  0  0  0  0  0  0  0  0
   -5.0469   -4.1491    0.0114 H   0  0  0  0  0  0  0  0  0  0  0  0
   -4.3458   -2.9280    1.1366 H   0  0  0  0  0  0  0  0  0  0  0  0
   -3.2689   -3.8745    0.0373 H   0  0  0  0  0  0  0  0  0  0  0  0
   -4.4279   -2.7527   -1.9640 H   0  0  0  0  0  0  0  0  0  0  0  0
   -5.4483   -1.8631   -0.8186 H   0  0  0  0  0  0  0  0  0  0  0  0
   -3.7002   -0.3605   -1.5373 H   0  0  0  0  0  0  0  0  0  0  0  0
   -3.5122   -0.7780    0.2073 H   0  0  0  0  0  0  0  0  0  0  0  0
   -2.3388   -3.3441   -2.1903 H   0  0  0  0  0  0  0  0  0  0  0  0
   -3.4479    3.5316   -0.8714 H   0  0  0  0  0  0  0  0  0  0  0  0
   -4.6686    2.4980   -0.0452 H   0  0  0  0  0  0  0  0  0  0  0  0
   -4.0876    4.0129    0.7479 H   0  0  0  0  0  0  0  0  0  0  0  0
   -2.3104    1.2427    2.6316 H   0  0  0  0  0  0  0  0  0  0  0  0
   -4.0040    1.1698    2.0277 H   0  0  0  0  0  0  0  0  0  0  0  0
   -3.3954    2.6735    2.8221 H   0  0  0  0  0  0  0  0  0  0  0  0
   -1.5887    4.2529    1.3631 H   0  0  0  0  0  0  0  0  0  0  0  0
    0.6223    3.4430    1.0270 H   0  0  0  0  0  0  0  0  0  0  0  0
    4.4193    1.9701    0.9619 H   0  0  0  0  0  0  0  0  0  0  0  0
    3.4584    1.4548   -1.9242 H   0  0  0  0  0  0  0  0  0  0  0  0
    3.7899    3.0514   -1.1762 H   0  0  0  0  0  0  0  0  0  0  0  0
    5.1353    1.8916   -1.3901 H   0  0  0  0  0  0  0  0  0  0  0  0
    6.1909    0.1702    0.5029 H   0  0  0  0  0  0  0  0  0  0  0  0
    5.5885   -0.3757   -1.1077 H   0  0  0  0  0  0  0  0  0  0  0  0
    5.6866   -1.5367    0.2499 H   0  0  0  0  0  0  0  0  0  0  0  0
    2.8245   -0.2868    2.2758 H   0  0  0  0  0  0  0  0  0  0  0  0
    4.5559    0.1238    2.5390 H   0  0  0  0  0  0  0  0  0  0  0  0
    4.0879   -1.5495    2.0979 H   0  0  0  0  0  0  0  0  0  0  0  0
    3.2477   -0.8168   -1.5230 H   0  0  0  0  0  0  0  0  0  0  0  0
    3.7114   -2.7099   -0.6172 H   0  0  0  0  0  0  0  0  0  0  0  0
  1  2  1  0
  2  3  1  0
  3  4  1  0
  4  5  2  0
  5  6  1  0
  6  7  2  0
  6  8  1  0
  8  9  1  0
  9 10  2  0
 10 11  1  0
 11 12  2  0
 12 13  1  0
 13 14  2  0
 13 15  1  0
 15 16  1  0
 16 17  1  0
 16 18  1  0
 16 19  1  0
 19 20  2  0
 11 21  1  0
 21 22  1  0
 22 23  1  0
 22 24  1  0
 24 25  1  0
 24 26  1  0
 24 27  1  0
 27 28  1  0
 14  4  1  0
 14  9  1  0
 27 10  1  0
 20 12  1  0
  1 29  1  0
  1 30  1  0
  1 31  1  0
  2 32  1  0
  2 33  1  0
  3 34  1  0
  3 35  1  0
  5 36  1  0
 17 37  1  0
 17 38  1  0
 17 39  1  0
 18 40  1  0
 18 41  1  0
 18 42  1  0
 19 43  1  0
 20 44  1  0
 22 45  1  1
 23 46  1  0
 23 47  1  0
 23 48  1  0
 25 49  1  0
 25 50  1  0
 25 51  1  0
 26 52  1  0
 26 53  1  0
 26 54  1  0
 27 55  1  6
 28 56  1  0
M  END
$$$$
