
     RDKit          3D

 65 69  0  0  0  0  0  0  0  0999 V2000
   -4.9750    1.6888    3.1853 C   0  0  0  0  0  0  0  0  0  0  0  0
   -5.2558    1.3576    1.7595 C   0  0  0  0  0  0  0  0  0  0  0  0
   -6.1430    1.9982    1.1327 O   0  0  0  0  0  0  0  0  0  0  0  0
   -4.5036    0.3642    1.1238 O   0  0  0  0  0  0  0  0  0  0  0  0
   -4.6289    0.0401   -0.2632 C   0  0  0  0  0  0  0  0  0  0  0  0
   -3.9742    1.1239   -1.1348 C   0  0  0  0  0  0  0  0  0  0  0  0
   -2.4475    1.1717   -0.9427 C   0  0  0  0  0  0  0  0  0  0  0  0
   -1.7353   -0.1979   -1.1997 C   0  0  0  0  0  0  0  0  0  0  0  0
   -1.8753   -0.5380   -2.7158 C   0  0  0  0  0  0  0  0  0  0  0  0
   -2.4534   -1.2802   -0.3215 C   0  0  0  0  0  0  0  0  0  0  0  0
   -1.8339   -2.6841   -0.4981 C   0  0  0  0  0  0  0  0  0  0  0  0
   -0.2903   -2.6776   -0.5148 C   0  0  0  0  0  0  0  0  0  0  0  0
    0.3028   -1.3587    0.0317 C   0  0  0  0  0  0  0  0  0  0  0  0
   -0.1677   -0.1634   -0.8549 C   0  0  0  0  0  0  0  0  0  0  0  0
    0.3595    1.1430   -0.2287 C   0  0  0  0  0  0  0  0  0  0  0  0
    1.8892    1.1320   -0.1828 C   0  0  0  0  0  0  0  0  0  0  0  0
    2.4840   -0.0392    0.6625 C   0  0  0  0  0  0  0  0  0  0  0  0
    2.2780    0.2620    2.1704 C   0  0  0  0  0  0  0  0  0  0  0  0
    4.0030   -0.2330    0.3459 C   0  0  2  0  0  0  0  0  0  0  0  0
    4.7785    1.0434    0.0692 C   0  0  0  0  0  0  0  0  0  0  0  0
    5.1601    1.8847    1.0253 C   0  0  0  0  0  0  0  0  0  0  0  0
    5.8486    2.9718    0.3766 C   0  0  0  0  0  0  0  0  0  0  0  0
    6.3488    3.9703    0.9567 O   0  0  0  0  0  0  0  0  0  0  0  0
    5.8813    2.7735   -0.9886 O   0  0  0  0  0  0  0  0  0  0  0  0
    5.2411    1.5379   -1.2852 C   0  0  0  0  0  0  0  0  0  0  0  0
    3.9891   -1.1987   -0.7951 C   0  0  0  0  0  0  0  0  0  0  0  0
    4.9863   -1.5204   -1.4232 O   0  0  0  0  0  0  0  0  0  0  0  0
    2.6610   -1.8232   -1.0241 C   0  0  0  0  0  0  0  0  0  0  0  0
    1.8589   -1.4209    0.2414 C   0  0  0  0  0  0  0  0  0  0  0  0
    2.1372   -2.3425    1.2810 O   0  0  0  0  0  0  0  0  0  0  0  0
   -3.9845   -1.3274   -0.5252 C   0  0  0  0  0  0  0  0  0  0  0  0
   -4.2929    2.5629    3.2337 H   0  0  0  0  0  0  0  0  0  0  0  0
   -4.4942    0.8239    3.6880 H   0  0  0  0  0  0  0  0  0  0  0  0
   -5.9210    1.9301    3.7140 H   0  0  0  0  0  0  0  0  0  0  0  0
   -5.7078   -0.0342   -0.5255 H   0  0  0  0  0  0  0  0  0  0  0  0
   -4.2282    0.9511   -2.2013 H   0  0  0  0  0  0  0  0  0  0  0  0
   -4.3969    2.1175   -0.8745 H   0  0  0  0  0  0  0  0  0  0  0  0
   -2.2597    1.5078    0.0995 H   0  0  0  0  0  0  0  0  0  0  0  0
   -2.0464    1.9489   -1.6286 H   0  0  0  0  0  0  0  0  0  0  0  0
   -1.4401    0.2781   -3.3320 H   0  0  0  0  0  0  0  0  0  0  0  0
   -2.9241   -0.6725   -3.0396 H   0  0  0  0  0  0  0  0  0  0  0  0
   -1.3327   -1.4708   -2.9726 H   0  0  0  0  0  0  0  0  0  0  0  0
   -2.3075   -0.9958    0.7449 H   0  0  0  0  0  0  0  0  0  0  0  0
   -2.1844   -3.3281    0.3386 H   0  0  0  0  0  0  0  0  0  0  0  0
   -2.2024   -3.1510   -1.4375 H   0  0  0  0  0  0  0  0  0  0  0  0
    0.0682   -2.8383   -1.5544 H   0  0  0  0  0  0  0  0  0  0  0  0
    0.0551   -3.5457    0.0823 H   0  0  0  0  0  0  0  0  0  0  0  0
   -0.1189   -1.2141    1.0506 H   0  0  0  0  0  0  0  0  0  0  0  0
    0.3762   -0.2489   -1.8193 H   0  0  0  0  0  0  0  0  0  0  0  0
   -0.0546    1.2889    0.7912 H   0  0  0  0  0  0  0  0  0  0  0  0
    0.0686    2.0142   -0.8515 H   0  0  0  0  0  0  0  0  0  0  0  0
    2.2565    1.0700   -1.2296 H   0  0  0  0  0  0  0  0  0  0  0  0
    2.2355    2.1105    0.2169 H   0  0  0  0  0  0  0  0  0  0  0  0
    2.8288   -0.4609    2.8086 H   0  0  0  0  0  0  0  0  0  0  0  0
    1.2053    0.2061    2.4455 H   0  0  0  0  0  0  0  0  0  0  0  0
    2.6428    1.2788    2.4239 H   0  0  0  0  0  0  0  0  0  0  0  0
    4.5089   -0.7600    1.1861 H   0  0  0  0  0  0  0  0  0  0  0  0
    4.9843    1.7732    2.0871 H   0  0  0  0  0  0  0  0  0  0  0  0
    4.3865    1.7060   -1.9717 H   0  0  0  0  0  0  0  0  0  0  0  0
    5.9776    0.8392   -1.7336 H   0  0  0  0  0  0  0  0  0  0  0  0
    2.2345   -1.4106   -1.9590 H   0  0  0  0  0  0  0  0  0  0  0  0
    2.7578   -2.9246   -1.1346 H   0  0  0  0  0  0  0  0  0  0  0  0
    2.0533   -3.2686    0.9392 H   0  0  0  0  0  0  0  0  0  0  0  0
   -4.4256   -2.0647    0.1813 H   0  0  0  0  0  0  0  0  0  0  0  0
   -4.2417   -1.6764   -1.5469 H   0  0  0  0  0  0  0  0  0  0  0  0
  1  2  1  0
  2  3  2  0
  2  4  1  0
  4  5  1  0
  5  6  1  0
  6  7  1  0
  7  8  1  0
  8  9  1  0
  8 10  1  0
 10 11  1  0
 11 12  1  0
 12 13  1  0
 13 14  1  0
 14 15  1  0
 15 16  1  0
 16 17  1  0
 17 18  1  0
 17 19  1  0
 19 20  1  0
 20 21  2  0
 21 22  1  0
 22 23  2  0
 22 24  1  0
 24 25  1  0
 19 26  1  0
 26 27  2  0
 26 28  1  0
 28 29  1  0
 29 30  1  0
 10 31  1  0
 31  5  1  0
 14  8  1  0
 29 17  1  0
 29 13  1  0
 25 20  1  0
  1 32  1  0
  1 33  1  0
  1 34  1  0
  5 35  1  0
  6 36  1  0
  6 37  1  0
  7 38  1  0
  7 39  1  0
  9 40  1  0
  9 41  1  0
  9 42  1  0
 10 43  1  0
 11 44  1  0
 11 45  1  0
 12 46  1  0
 12 47  1  0
 13 48  1  0
 14 49  1  0
 15 50  1  0
 15 51  1  0
 16 52  1  0
 16 53  1  0
 18 54  1  0
 18 55  1  0
 18 56  1  0
 19 57  1  1
 21 58  1  0
 25 59  1  0
 25 60  1  0
 28 61  1  0
 28 62  1  0
 30 63  1  0
 31 64  1  0
 31 65  1  0
M  END
$$$$
