
     RDKit          3D

 48 51  0  0  0  0  0  0  0  0999 V2000
   -4.3960   -0.2650    2.8898 C   0  0  0  0  0  0  0  0  0  0  0  0
   -4.8010    0.8362    1.9150 C   0  0  0  0  0  0  0  0  0  0  0  0
   -3.8811    0.8870    0.7779 N   0  0  0  0  0  0  0  0  0  0  0  0
   -3.7437   -0.1597   -0.2051 C   0  0  0  0  0  0  0  0  0  0  0  0
   -4.7773   -1.0850   -0.4402 C   0  0  0  0  0  0  0  0  0  0  0  0
   -4.6431   -2.0512   -1.4374 C   0  0  0  0  0  0  0  0  0  0  0  0
   -3.4789   -2.0882   -2.2022 C   0  0  0  0  0  0  0  0  0  0  0  0
   -2.4825   -1.1966   -1.9660 N   0  0  0  0  0  0  0  0  0  0  0  0
   -2.5772   -0.2469   -0.9954 C   0  0  0  0  0  0  0  0  0  0  0  0
   -1.4704    0.6369   -0.7802 N   0  0  0  0  0  0  0  0  0  0  0  0
   -0.6150    0.4447    0.3985 C   0  0  0  0  0  0  0  0  0  0  0  0
    0.5252    1.4665    0.4296 C   0  0  0  0  0  0  0  0  0  0  0  0
    1.1521    1.5590   -0.8957 N   0  0  0  0  0  0  0  0  0  0  0  0
    2.5749    1.7254   -1.0156 C   0  0  0  0  0  0  0  0  0  0  0  0
    3.0348    2.6753   -1.7046 O   0  0  0  0  0  0  0  0  0  0  0  0
    3.5162    0.7931   -0.3739 C   0  0  0  0  0  0  0  0  0  0  0  0
    3.2039   -0.4640    0.1422 C   0  0  0  0  0  0  0  0  0  0  0  0
    4.4041   -0.9480    0.6068 C   0  0  0  0  0  0  0  0  0  0  0  0
    4.7245   -2.1558    1.2225 C   0  0  0  0  0  0  0  0  0  0  0  0
    6.0677   -2.3688    1.5850 C   0  0  0  0  0  0  0  0  0  0  0  0
    7.0447   -1.3814    1.3239 C   0  0  0  0  0  0  0  0  0  0  0  0
    6.6869   -0.1728    0.6974 C   0  0  0  0  0  0  0  0  0  0  0  0
    5.3499    0.0084    0.3509 C   0  0  0  0  0  0  0  0  0  0  0  0
    4.8069    1.0445   -0.2392 O   0  0  0  0  0  0  0  0  0  0  0  0
    0.3190    1.6915   -2.1007 C   0  0  0  0  0  0  0  0  0  0  0  0
   -1.1768    1.6843   -1.7630 C   0  0  0  0  0  0  0  0  0  0  0  0
   -4.4623   -1.2613    2.4053 H   0  0  0  0  0  0  0  0  0  0  0  0
   -5.0752   -0.2527    3.7682 H   0  0  0  0  0  0  0  0  0  0  0  0
   -3.3547   -0.0988    3.2392 H   0  0  0  0  0  0  0  0  0  0  0  0
   -5.8439    0.6871    1.5662 H   0  0  0  0  0  0  0  0  0  0  0  0
   -4.7696    1.8089    2.4524 H   0  0  0  0  0  0  0  0  0  0  0  0
   -3.2800    1.7378    0.6950 H   0  0  0  0  0  0  0  0  0  0  0  0
   -5.6958   -1.0576    0.1283 H   0  0  0  0  0  0  0  0  0  0  0  0
   -5.4399   -2.7602   -1.6221 H   0  0  0  0  0  0  0  0  0  0  0  0
   -3.3648   -2.8286   -2.9827 H   0  0  0  0  0  0  0  0  0  0  0  0
   -0.1848   -0.5792    0.3687 H   0  0  0  0  0  0  0  0  0  0  0  0
   -1.2149    0.5402    1.3281 H   0  0  0  0  0  0  0  0  0  0  0  0
    1.2603    1.1776    1.2102 H   0  0  0  0  0  0  0  0  0  0  0  0
    0.1196    2.4635    0.7072 H   0  0  0  0  0  0  0  0  0  0  0  0
    2.2442   -0.9617    0.1577 H   0  0  0  0  0  0  0  0  0  0  0  0
    3.9679   -2.9052    1.4164 H   0  0  0  0  0  0  0  0  0  0  0  0
    6.3540   -3.2949    2.0664 H   0  0  0  0  0  0  0  0  0  0  0  0
    8.0748   -1.5561    1.6060 H   0  0  0  0  0  0  0  0  0  0  0  0
    7.4263    0.5898    0.4903 H   0  0  0  0  0  0  0  0  0  0  0  0
    0.5607    2.6387   -2.6300 H   0  0  0  0  0  0  0  0  0  0  0  0
    0.5392    0.8422   -2.7831 H   0  0  0  0  0  0  0  0  0  0  0  0
   -1.4652    2.6692   -1.3362 H   0  0  0  0  0  0  0  0  0  0  0  0
   -1.7643    1.5317   -2.6953 H   0  0  0  0  0  0  0  0  0  0  0  0
  1  2  1  0
  2  3  1  0
  3  4  1  0
  4  5  2  0
  5  6  1  0
  6  7  2  0
  7  8  1  0
  8  9  2  0
  9 10  1  0
 10 11  1  0
 11 12  1  0
 12 13  1  0
 13 14  1  0
 14 15  2  0
 14 16  1  0
 16 17  2  0
 17 18  1  0
 18 19  2  0
 19 20  1  0
 20 21  2  0
 21 22  1  0
 22 23  2  0
 23 24  1  0
 13 25  1  0
 25 26  1  0
  9  4  1  0
 26 10  1  0
 24 16  1  0
 23 18  1  0
  1 27  1  0
  1 28  1  0
  1 29  1  0
  2 30  1  0
  2 31  1  0
  3 32  1  0
  5 33  1  0
  6 34  1  0
  7 35  1  0
 11 36  1  0
 11 37  1  0
 12 38  1  0
 12 39  1  0
 17 40  1  0
 19 41  1  0
 20 42  1  0
 21 43  1  0
 22 44  1  0
 25 45  1  0
 25 46  1  0
 26 47  1  0
 26 48  1  0
M  END
$$$$
