
     RDKit          3D

 58 61  0  0  0  0  0  0  0  0999 V2000
   -6.9537   -1.7679   -1.8882 C   0  0  0  0  0  0  0  0  0  0  0  0
   -5.6462   -1.4788   -1.1566 C   0  0  0  0  0  0  0  0  0  0  0  0
   -4.6217   -0.8200   -2.0946 C   0  0  0  0  0  0  0  0  0  0  0  0
   -3.2860   -0.5451   -1.3900 C   0  0  0  0  0  0  0  0  0  0  0  0
   -3.4214    0.4927   -0.3102 C   0  0  0  0  0  0  0  0  0  0  0  0
   -4.1262    1.6020   -0.4534 O   0  0  0  0  0  0  0  0  0  0  0  0
   -3.9958    2.3029    0.6465 C   0  0  0  0  0  0  0  0  0  0  0  0
   -4.5609    3.5432    0.9329 C   0  0  0  0  0  0  0  0  0  0  0  0
   -4.2714    4.1261    2.1798 C   0  0  0  0  0  0  0  0  0  0  0  0
   -3.4249    3.4665    3.0987 C   0  0  0  0  0  0  0  0  0  0  0  0
   -2.8635    2.2157    2.7810 C   0  0  0  0  0  0  0  0  0  0  0  0
   -3.1817    1.6567    1.5414 C   0  0  0  0  0  0  0  0  0  0  0  0
   -2.8036    0.4716    0.9433 C   0  0  0  0  0  0  0  0  0  0  0  0
   -1.8410   -0.5482    1.4709 C   0  0  0  0  0  0  0  0  0  0  0  0
   -0.5815   -0.3758    0.8276 O   0  0  0  0  0  0  0  0  0  0  0  0
    0.5591   -1.1471    1.0932 C   0  0  0  0  0  0  0  0  0  0  0  0
    0.5571   -2.2010    2.0254 C   0  0  0  0  0  0  0  0  0  0  0  0
    1.7229   -2.9334    2.2588 C   0  0  0  0  0  0  0  0  0  0  0  0
    2.8978   -2.6235    1.5712 C   0  0  0  0  0  0  0  0  0  0  0  0
    2.9182   -1.5744    0.6349 C   0  0  0  0  0  0  0  0  0  0  0  0
    4.1624   -1.2420   -0.1059 C   0  0  0  0  0  0  0  0  0  0  0  0
    4.0698   -0.9337   -1.5801 C   0  0  0  0  0  0  0  0  0  0  0  0
    5.3289   -1.1433    0.5636 C   0  0  0  0  0  0  0  0  0  0  0  0
    6.6390   -0.7615   -0.0697 C   0  0  0  0  0  0  0  0  0  0  0  0
    6.5907    0.6121   -0.5654 N   0  0  0  0  0  0  0  0  0  0  0  0
    6.1681    1.6415    0.1080 O   0  0  0  0  0  0  0  0  0  0  0  0
    6.3027    2.7094   -0.6455 C   0  0  0  0  0  0  0  0  0  0  0  0
    5.9740    3.8705   -0.2868 O   0  0  0  0  0  0  0  0  0  0  0  0
    6.8329    2.4147   -1.8499 N   0  0  0  0  0  0  0  0  0  0  0  0
    7.0048    1.0845   -1.7576 C   0  0  0  0  0  0  0  0  0  0  0  0
    7.4925    0.3724   -2.6761 O   0  0  0  0  0  0  0  0  0  0  0  0
    1.7387   -0.8456    0.4018 C   0  0  0  0  0  0  0  0  0  0  0  0
   -7.6830   -2.2233   -1.1840 H   0  0  0  0  0  0  0  0  0  0  0  0
   -7.3878   -0.8261   -2.2889 H   0  0  0  0  0  0  0  0  0  0  0  0
   -6.7780   -2.4762   -2.7257 H   0  0  0  0  0  0  0  0  0  0  0  0
   -5.2338   -2.4345   -0.7629 H   0  0  0  0  0  0  0  0  0  0  0  0
   -5.8618   -0.8087   -0.2964 H   0  0  0  0  0  0  0  0  0  0  0  0
   -5.0346    0.1305   -2.5023 H   0  0  0  0  0  0  0  0  0  0  0  0
   -4.4278   -1.4989   -2.9544 H   0  0  0  0  0  0  0  0  0  0  0  0
   -2.5535   -0.1727   -2.1386 H   0  0  0  0  0  0  0  0  0  0  0  0
   -2.8870   -1.4966   -0.9772 H   0  0  0  0  0  0  0  0  0  0  0  0
   -5.2017    4.0431    0.2184 H   0  0  0  0  0  0  0  0  0  0  0  0
   -4.6957    5.0884    2.4346 H   0  0  0  0  0  0  0  0  0  0  0  0
   -3.2076    3.9252    4.0540 H   0  0  0  0  0  0  0  0  0  0  0  0
   -2.2191    1.7065    3.4844 H   0  0  0  0  0  0  0  0  0  0  0  0
   -2.2345   -1.5678    1.2727 H   0  0  0  0  0  0  0  0  0  0  0  0
   -1.7225   -0.4280    2.5681 H   0  0  0  0  0  0  0  0  0  0  0  0
   -0.3377   -2.4620    2.5735 H   0  0  0  0  0  0  0  0  0  0  0  0
    1.7155   -3.7461    2.9736 H   0  0  0  0  0  0  0  0  0  0  0  0
    3.7871   -3.2123    1.7590 H   0  0  0  0  0  0  0  0  0  0  0  0
    3.1265   -1.3378   -2.0062 H   0  0  0  0  0  0  0  0  0  0  0  0
    4.9047   -1.4040   -2.1401 H   0  0  0  0  0  0  0  0  0  0  0  0
    4.0866    0.1659   -1.7361 H   0  0  0  0  0  0  0  0  0  0  0  0
    5.3445   -1.3261    1.6316 H   0  0  0  0  0  0  0  0  0  0  0  0
    7.4458   -0.8350    0.6908 H   0  0  0  0  0  0  0  0  0  0  0  0
    6.8852   -1.4711   -0.8883 H   0  0  0  0  0  0  0  0  0  0  0  0
    7.0543    3.0532   -2.6462 H   0  0  0  0  0  0  0  0  0  0  0  0
    1.7358   -0.0267   -0.3072 H   0  0  0  0  0  0  0  0  0  0  0  0
  1  2  1  0
  2  3  1  0
  3  4  1  0
  4  5  1  0
  5  6  1  0
  6  7  1  0
  7  8  2  0
  8  9  1  0
  9 10  2  0
 10 11  1  0
 11 12  2  0
 12 13  1  0
 13 14  1  0
 14 15  1  0
 15 16  1  0
 16 17  2  0
 17 18  1  0
 18 19  2  0
 19 20  1  0
 20 21  1  0
 21 22  1  0
 21 23  2  0
 23 24  1  0
 24 25  1  0
 25 26  1  0
 26 27  1  0
 27 28  2  0
 27 29  1  0
 29 30  1  0
 30 31  2  0
 20 32  2  0
 13  5  2  0
 32 16  1  0
 12  7  1  0
 30 25  1  0
  1 33  1  0
  1 34  1  0
  1 35  1  0
  2 36  1  0
  2 37  1  0
  3 38  1  0
  3 39  1  0
  4 40  1  0
  4 41  1  0
  8 42  1  0
  9 43  1  0
 10 44  1  0
 11 45  1  0
 14 46  1  0
 14 47  1  0
 17 48  1  0
 18 49  1  0
 19 50  1  0
 22 51  1  0
 22 52  1  0
 22 53  1  0
 23 54  1  0
 24 55  1  0
 24 56  1  0
 29 57  1  0
 32 58  1  0
M  END
$$$$
