
     RDKit          3D

 38 40  0  0  0  0  0  0  0  0999 V2000
   -4.2472   -3.3028   -0.6776 C   0  0  0  0  0  0  0  0  0  0  0  0
   -3.7287   -1.8972   -0.6064 C   0  0  0  0  0  0  0  0  0  0  0  0
   -4.4971   -0.8897   -0.0021 C   0  0  0  0  0  0  0  0  0  0  0  0
   -4.0295    0.4275    0.0321 C   0  0  0  0  0  0  0  0  0  0  0  0
   -2.7952    0.7505   -0.5437 C   0  0  0  0  0  0  0  0  0  0  0  0
   -2.1966    2.4406   -0.4921 S   0  0  0  0  0  0  0  0  0  0  0  0
   -1.3894    2.2084    1.0967 C   0  0  0  0  0  0  0  0  0  0  0  0
   -2.1082    2.4177    2.2883 C   0  0  0  0  0  0  0  0  0  0  0  0
   -1.5104    2.2289    3.5029 N   0  0  0  0  0  0  0  0  0  0  0  0
   -0.2094    1.8391    3.6127 C   0  0  0  0  0  0  0  0  0  0  0  0
    0.5220    1.6340    2.4488 C   0  0  0  0  0  0  0  0  0  0  0  0
    2.1242    1.1606    2.2912 S   0  0  0  0  0  0  0  0  0  0  0  0
    2.1108    1.1882    0.6008 C   0  0  0  0  0  0  0  0  0  0  0  0
    3.2649    0.8504   -0.2385 C   0  0  0  0  0  0  0  0  0  0  0  0
    3.1677    0.8819   -1.5340 N   0  0  0  0  0  0  0  0  0  0  0  0
    4.1896    0.5704   -2.4190 O   0  0  0  0  0  0  0  0  0  0  0  0
    5.4749    0.0852   -2.0283 C   0  0  0  0  0  0  0  0  0  0  0  0
    5.3725   -1.3117   -1.5047 C   0  0  0  0  0  0  0  0  0  0  0  0
    4.8636   -2.2163   -2.2191 O   0  0  0  0  0  0  0  0  0  0  0  0
    5.8507   -1.6149   -0.2337 O   0  0  0  0  0  0  0  0  0  0  0  0
    0.8467    1.5713    0.1470 C   0  0  0  0  0  0  0  0  0  0  0  0
   -0.0469    1.8170    1.1990 C   0  0  0  0  0  0  0  0  0  0  0  0
   -2.0371   -0.2465   -1.1692 C   0  0  0  0  0  0  0  0  0  0  0  0
   -2.5029   -1.5643   -1.2043 C   0  0  0  0  0  0  0  0  0  0  0  0
   -3.4076   -4.0300   -0.6943 H   0  0  0  0  0  0  0  0  0  0  0  0
   -4.8520   -3.4265   -1.6001 H   0  0  0  0  0  0  0  0  0  0  0  0
   -4.8815   -3.5312    0.2052 H   0  0  0  0  0  0  0  0  0  0  0  0
   -5.4564   -1.1236    0.4428 H   0  0  0  0  0  0  0  0  0  0  0  0
   -4.6264    1.1953    0.5077 H   0  0  0  0  0  0  0  0  0  0  0  0
   -3.1452    2.7241    2.2491 H   0  0  0  0  0  0  0  0  0  0  0  0
    0.2394    1.6965    4.5865 H   0  0  0  0  0  0  0  0  0  0  0  0
    4.1892    0.5754    0.2488 H   0  0  0  0  0  0  0  0  0  0  0  0
    6.1367    0.0792   -2.9193 H   0  0  0  0  0  0  0  0  0  0  0  0
    5.9323    0.7621   -1.2758 H   0  0  0  0  0  0  0  0  0  0  0  0
    5.7895   -2.5571    0.1332 H   0  0  0  0  0  0  0  0  0  0  0  0
    0.5924    1.6704   -0.9000 H   0  0  0  0  0  0  0  0  0  0  0  0
   -1.0904   -0.0033   -1.6327 H   0  0  0  0  0  0  0  0  0  0  0  0
   -1.9091   -2.3236   -1.6980 H   0  0  0  0  0  0  0  0  0  0  0  0
  1  2  1  0
  2  3  2  0
  3  4  1  0
  4  5  2  0
  5  6  1  0
  6  7  1  0
  7  8  2  0
  8  9  1  0
  9 10  2  0
 10 11  1  0
 11 12  1  0
 12 13  1  0
 13 14  1  0
 14 15  2  0
 15 16  1  0
 16 17  1  0
 17 18  1  0
 18 19  2  0
 18 20  1  0
 13 21  2  0
 21 22  1  0
  5 23  1  0
 23 24  2  0
 24  2  1  0
 22  7  1  0
 22 11  2  0
  1 25  1  0
  1 26  1  0
  1 27  1  0
  3 28  1  0
  4 29  1  0
  8 30  1  0
 10 31  1  0
 14 32  1  0
 17 33  1  0
 17 34  1  0
 20 35  1  0
 21 36  1  0
 23 37  1  0
 24 38  1  0
M  END
$$$$
