
     RDKit          3D

 48 51  0  0  0  0  0  0  0  0999 V2000
   -3.6626   -1.1304    2.2237 C   0  0  0  0  0  0  0  0  0  0  0  0
   -2.8042    0.1219    2.0865 C   0  0  0  0  0  0  0  0  0  0  0  0
   -2.3357    0.2804    0.7085 N   0  0  0  0  0  0  0  0  0  0  0  0
   -3.1925    0.5598   -0.4191 C   0  0  0  0  0  0  0  0  0  0  0  0
   -4.4661    1.1359   -0.2508 C   0  0  0  0  0  0  0  0  0  0  0  0
   -5.2526    1.4405   -1.3630 C   0  0  0  0  0  0  0  0  0  0  0  0
   -4.7633    1.1736   -2.6416 C   0  0  0  0  0  0  0  0  0  0  0  0
   -3.5344    0.6141   -2.7969 N   0  0  0  0  0  0  0  0  0  0  0  0
   -2.7455    0.2985   -1.7329 C   0  0  0  0  0  0  0  0  0  0  0  0
   -1.4711   -0.3126   -1.9659 N   0  0  0  0  0  0  0  0  0  0  0  0
   -1.3293   -1.7647   -1.8070 C   0  0  0  0  0  0  0  0  0  0  0  0
    0.0975   -2.2154   -2.1380 C   0  0  0  0  0  0  0  0  0  0  0  0
    1.0646   -1.3163   -1.4822 N   0  0  0  0  0  0  0  0  0  0  0  0
    2.0539   -1.8561   -0.5693 C   0  0  0  0  0  0  0  0  0  0  0  0
    2.1972   -3.1049   -0.4679 O   0  0  0  0  0  0  0  0  0  0  0  0
    2.8638   -1.0054    0.3230 C   0  0  0  0  0  0  0  0  0  0  0  0
    3.6178    0.1172   -0.0393 C   0  0  0  0  0  0  0  0  0  0  0  0
    4.3147    0.6630    1.0436 C   0  0  0  0  0  0  0  0  0  0  0  0
    5.1540    1.7814    1.0058 C   0  0  0  0  0  0  0  0  0  0  0  0
    5.7907    2.1900    2.1894 C   0  0  0  0  0  0  0  0  0  0  0  0
    5.5896    1.4769    3.3909 C   0  0  0  0  0  0  0  0  0  0  0  0
    4.7527    0.3487    3.4162 C   0  0  0  0  0  0  0  0  0  0  0  0
    4.1276   -0.0313    2.2313 C   0  0  0  0  0  0  0  0  0  0  0  0
    3.1073   -1.3355    1.9640 S   0  0  0  0  0  0  0  0  0  0  0  0
    0.9258    0.1398   -1.6827 C   0  0  0  0  0  0  0  0  0  0  0  0
   -0.3529    0.4994   -2.4530 C   0  0  0  0  0  0  0  0  0  0  0  0
   -4.6041   -1.0238    1.6398 H   0  0  0  0  0  0  0  0  0  0  0  0
   -3.9229   -1.2900    3.2948 H   0  0  0  0  0  0  0  0  0  0  0  0
   -3.1026   -2.0174    1.8508 H   0  0  0  0  0  0  0  0  0  0  0  0
   -3.3651    1.0219    2.4152 H   0  0  0  0  0  0  0  0  0  0  0  0
   -1.9246    0.0157    2.7594 H   0  0  0  0  0  0  0  0  0  0  0  0
   -1.3110    0.1528    0.5444 H   0  0  0  0  0  0  0  0  0  0  0  0
   -4.8525    1.3676    0.7325 H   0  0  0  0  0  0  0  0  0  0  0  0
   -6.2311    1.8872   -1.2349 H   0  0  0  0  0  0  0  0  0  0  0  0
   -5.3616    1.4096   -3.5122 H   0  0  0  0  0  0  0  0  0  0  0  0
   -2.0482   -2.2884   -2.4745 H   0  0  0  0  0  0  0  0  0  0  0  0
   -1.5607   -2.0429   -0.7556 H   0  0  0  0  0  0  0  0  0  0  0  0
    0.2542   -2.1780   -3.2381 H   0  0  0  0  0  0  0  0  0  0  0  0
    0.2200   -3.2737   -1.8228 H   0  0  0  0  0  0  0  0  0  0  0  0
    3.6949    0.5045   -1.0441 H   0  0  0  0  0  0  0  0  0  0  0  0
    5.3204    2.3224    0.0803 H   0  0  0  0  0  0  0  0  0  0  0  0
    6.4452    3.0540    2.1768 H   0  0  0  0  0  0  0  0  0  0  0  0
    6.0890    1.7953    4.2976 H   0  0  0  0  0  0  0  0  0  0  0  0
    4.6049   -0.2152    4.3305 H   0  0  0  0  0  0  0  0  0  0  0  0
    1.7954    0.5227   -2.2562 H   0  0  0  0  0  0  0  0  0  0  0  0
    0.8858    0.6472   -0.6939 H   0  0  0  0  0  0  0  0  0  0  0  0
   -0.2067    0.3032   -3.5385 H   0  0  0  0  0  0  0  0  0  0  0  0
   -0.5658    1.5844   -2.3245 H   0  0  0  0  0  0  0  0  0  0  0  0
  1  2  1  0
  2  3  1  0
  3  4  1  0
  4  5  2  0
  5  6  1  0
  6  7  2  0
  7  8  1  0
  8  9  2  0
  9 10  1  0
 10 11  1  0
 11 12  1  0
 12 13  1  0
 13 14  1  0
 14 15  2  0
 14 16  1  0
 16 17  2  0
 17 18  1  0
 18 19  2  0
 19 20  1  0
 20 21  2  0
 21 22  1  0
 22 23  2  0
 23 24  1  0
 13 25  1  0
 25 26  1  0
  9  4  1  0
 26 10  1  0
 24 16  1  0
 23 18  1  0
  1 27  1  0
  1 28  1  0
  1 29  1  0
  2 30  1  0
  2 31  1  0
  3 32  1  0
  5 33  1  0
  6 34  1  0
  7 35  1  0
 11 36  1  0
 11 37  1  0
 12 38  1  0
 12 39  1  0
 17 40  1  0
 19 41  1  0
 20 42  1  0
 21 43  1  0
 22 44  1  0
 25 45  1  0
 25 46  1  0
 26 47  1  0
 26 48  1  0
M  END
$$$$
