
     RDKit          3D

 53 56  0  0  0  0  0  0  0  0999 V2000
    6.5212   -1.5294    1.8185 C   0  0  0  0  0  0  0  0  0  0  0  0
    5.4104   -1.6665    0.7814 C   0  0  0  0  0  0  0  0  0  0  0  0
    4.4166   -0.5031    0.8770 C   0  0  0  0  0  0  0  0  0  0  0  0
    3.3019   -0.6438   -0.1700 C   0  0  0  0  0  0  0  0  0  0  0  0
    2.2781    0.4654   -0.0946 C   0  0  0  0  0  0  0  0  0  0  0  0
    2.4939    1.4658    0.6444 O   0  0  0  0  0  0  0  0  0  0  0  0
    1.0451    0.3991   -0.8390 N   0  0  0  0  0  0  0  0  0  0  0  0
    0.0501    1.3457   -0.5216 N   0  0  0  0  0  0  0  0  0  0  0  0
   -1.1752    1.0279   -0.2105 C   0  0  0  0  0  0  0  0  0  0  0  0
   -2.1333    2.1114    0.1309 C   0  0  0  0  0  0  0  0  0  0  0  0
   -1.6679    3.3419    0.6311 C   0  0  0  0  0  0  0  0  0  0  0  0
   -2.5658    4.3660    0.9458 C   0  0  0  0  0  0  0  0  0  0  0  0
   -3.9417    4.1814    0.7599 C   0  0  0  0  0  0  0  0  0  0  0  0
   -4.8591    5.2300    1.0820 N   0  0  0  0  0  0  0  0  0  0  0  0
   -4.4123    2.9636    0.2529 C   0  0  0  0  0  0  0  0  0  0  0  0
   -3.5168    1.9376   -0.0624 C   0  0  0  0  0  0  0  0  0  0  0  0
   -1.5923   -0.3984   -0.1659 C   0  0  0  0  0  0  0  0  0  0  0  0
   -2.3007   -0.8900    0.9539 C   0  0  0  0  0  0  0  0  0  0  0  0
   -2.6392   -2.2383    0.9752 C   0  0  0  0  0  0  0  0  0  0  0  0
   -2.3083   -3.0792   -0.0349 C   0  0  0  0  0  0  0  0  0  0  0  0
   -1.6126   -2.6460   -1.1580 C   0  0  0  0  0  0  0  0  0  0  0  0
   -1.2534   -1.2818   -1.2311 C   0  0  0  0  0  0  0  0  0  0  0  0
   -0.5130   -0.7572   -2.4321 C   0  0  0  0  0  0  0  0  0  0  0  0
    0.9440   -0.4083   -2.0749 C   0  0  0  0  0  0  0  0  0  0  0  0
    1.6035    0.3401   -3.2380 C   0  0  0  0  0  0  0  0  0  0  0  0
   -2.7644   -4.3505    0.2559 O   0  0  0  0  0  0  0  0  0  0  0  0
   -3.4231   -4.3043    1.5292 C   0  0  0  0  0  0  0  0  0  0  0  0
   -3.3195   -2.9379    1.9531 O   0  0  0  0  0  0  0  0  0  0  0  0
    7.0858   -0.5865    1.6570 H   0  0  0  0  0  0  0  0  0  0  0  0
    6.0940   -1.5305    2.8440 H   0  0  0  0  0  0  0  0  0  0  0  0
    7.2239   -2.3842    1.7258 H   0  0  0  0  0  0  0  0  0  0  0  0
    4.8790   -2.6287    0.9492 H   0  0  0  0  0  0  0  0  0  0  0  0
    5.8660   -1.6882   -0.2327 H   0  0  0  0  0  0  0  0  0  0  0  0
    3.9659   -0.4879    1.8941 H   0  0  0  0  0  0  0  0  0  0  0  0
    4.9584    0.4546    0.7118 H   0  0  0  0  0  0  0  0  0  0  0  0
    2.7832   -1.6133   -0.0075 H   0  0  0  0  0  0  0  0  0  0  0  0
    3.7552   -0.6480   -1.1839 H   0  0  0  0  0  0  0  0  0  0  0  0
   -0.6098    3.5088    0.7903 H   0  0  0  0  0  0  0  0  0  0  0  0
   -2.1888    5.3034    1.3353 H   0  0  0  0  0  0  0  0  0  0  0  0
   -5.8867    5.1020    0.9457 H   0  0  0  0  0  0  0  0  0  0  0  0
   -4.5175    6.1420    1.4594 H   0  0  0  0  0  0  0  0  0  0  0  0
   -5.4729    2.8106    0.0975 H   0  0  0  0  0  0  0  0  0  0  0  0
   -3.9073    1.0141   -0.4706 H   0  0  0  0  0  0  0  0  0  0  0  0
   -2.5642   -0.2475    1.7845 H   0  0  0  0  0  0  0  0  0  0  0  0
   -1.3626   -3.3422   -1.9483 H   0  0  0  0  0  0  0  0  0  0  0  0
   -1.0440    0.1408   -2.8187 H   0  0  0  0  0  0  0  0  0  0  0  0
   -0.5198   -1.5076   -3.2535 H   0  0  0  0  0  0  0  0  0  0  0  0
    1.4758   -1.3740   -1.9385 H   0  0  0  0  0  0  0  0  0  0  0  0
    1.0900    1.3092   -3.4160 H   0  0  0  0  0  0  0  0  0  0  0  0
    2.6706    0.5437   -3.0112 H   0  0  0  0  0  0  0  0  0  0  0  0
    1.5559   -0.2705   -4.1649 H   0  0  0  0  0  0  0  0  0  0  0  0
   -4.4899   -4.5914    1.4194 H   0  0  0  0  0  0  0  0  0  0  0  0
   -2.9065   -4.9699    2.2521 H   0  0  0  0  0  0  0  0  0  0  0  0
  1  2  1  0
  2  3  1  0
  3  4  1  0
  4  5  1  0
  5  6  2  0
  5  7  1  0
  7  8  1  0
  8  9  2  0
  9 10  1  0
 10 11  2  0
 11 12  1  0
 12 13  2  0
 13 14  1  0
 13 15  1  0
 15 16  2  0
  9 17  1  0
 17 18  2  0
 18 19  1  0
 19 20  2  0
 20 21  1  0
 21 22  2  0
 22 23  1  0
 23 24  1  0
 24 25  1  0
 20 26  1  0
 26 27  1  0
 27 28  1  0
 24  7  1  0
 16 10  1  0
 22 17  1  0
 28 19  1  0
  1 29  1  0
  1 30  1  0
  1 31  1  0
  2 32  1  0
  2 33  1  0
  3 34  1  0
  3 35  1  0
  4 36  1  0
  4 37  1  0
 11 38  1  0
 12 39  1  0
 14 40  1  0
 14 41  1  0
 15 42  1  0
 16 43  1  0
 18 44  1  0
 21 45  1  0
 23 46  1  0
 23 47  1  0
 24 48  1  0
 25 49  1  0
 25 50  1  0
 25 51  1  0
 27 52  1  0
 27 53  1  0
M  END
$$$$
