
     RDKit          3D

 50 53  0  0  0  0  0  0  0  0999 V2000
    3.9884   -2.4239    1.0124 C   0  0  0  0  0  0  0  0  0  0  0  0
    3.7001   -1.0950    0.3156 C   0  0  0  0  0  0  0  0  0  0  0  0
    2.9626   -1.2854   -1.0209 C   0  0  0  0  0  0  0  0  0  0  0  0
    1.5222   -1.7249   -0.8271 C   0  0  0  0  0  0  0  0  0  0  0  0
    1.2537   -3.0930   -0.9824 C   0  0  0  0  0  0  0  0  0  0  0  0
   -0.0412   -3.5686   -0.8147 C   0  0  0  0  0  0  0  0  0  0  0  0
   -0.2842   -4.7957   -0.9555 O   0  0  0  0  0  0  0  0  0  0  0  0
   -1.0240   -2.7383   -0.5073 O   0  0  0  0  0  0  0  0  0  0  0  0
   -0.8476   -1.4310   -0.3368 C   0  0  0  0  0  0  0  0  0  0  0  0
   -1.9623   -0.6368   -0.0103 C   0  0  0  0  0  0  0  0  0  0  0  0
   -1.7972    0.7399    0.2212 C   0  0  0  0  0  0  0  0  0  0  0  0
   -0.5340    1.3273    0.0800 C   0  0  0  0  0  0  0  0  0  0  0  0
    0.5803    0.5478   -0.2740 C   0  0  0  0  0  0  0  0  0  0  0  0
    0.4449   -0.8517   -0.4800 C   0  0  0  0  0  0  0  0  0  0  0  0
    1.8194    1.1891   -0.3814 O   0  0  0  0  0  0  0  0  0  0  0  0
    1.9803    2.6048   -0.5248 C   0  0  0  0  0  0  0  0  0  0  0  0
    2.0179    2.9463   -2.0198 C   0  0  0  0  0  0  0  0  0  0  0  0
    3.3032    3.0044    0.1374 C   0  0  0  0  0  0  0  0  0  0  0  0
    0.8396    3.3532    0.1276 C   0  0  0  0  0  0  0  0  0  0  0  0
   -0.3372    2.7662    0.3511 C   0  0  0  0  0  0  0  0  0  0  0  0
   -2.8976    1.5367    0.5704 O   0  0  0  0  0  0  0  0  0  0  0  0
   -4.1700    0.9946    0.9146 C   0  0  0  0  0  0  0  0  0  0  0  0
   -4.4740   -0.2324    0.0456 C   0  0  2  0  0  0  0  0  0  0  0  0
   -5.8394   -0.8356    0.3979 C   0  0  0  0  0  0  0  0  0  0  0  0
   -3.3327   -1.2737    0.1588 C   0  0  2  0  0  0  0  0  0  0  0  0
   -3.3945   -1.9862    1.3714 O   0  0  0  0  0  0  0  0  0  0  0  0
    4.5789   -2.2380    1.9341 H   0  0  0  0  0  0  0  0  0  0  0  0
    3.0407   -2.9259    1.2997 H   0  0  0  0  0  0  0  0  0  0  0  0
    4.5733   -3.0931    0.3463 H   0  0  0  0  0  0  0  0  0  0  0  0
    3.1134   -0.4508    1.0036 H   0  0  0  0  0  0  0  0  0  0  0  0
    4.6669   -0.5840    0.1169 H   0  0  0  0  0  0  0  0  0  0  0  0
    3.0125   -0.3654   -1.6360 H   0  0  0  0  0  0  0  0  0  0  0  0
    3.5189   -2.0326   -1.6295 H   0  0  0  0  0  0  0  0  0  0  0  0
    2.0467   -3.7896   -1.2302 H   0  0  0  0  0  0  0  0  0  0  0  0
    1.0644    2.6473   -2.5063 H   0  0  0  0  0  0  0  0  0  0  0  0
    2.8469    2.3995   -2.5184 H   0  0  0  0  0  0  0  0  0  0  0  0
    2.1676    4.0373   -2.1718 H   0  0  0  0  0  0  0  0  0  0  0  0
    4.1474    2.4480   -0.3240 H   0  0  0  0  0  0  0  0  0  0  0  0
    3.2773    2.7575    1.2207 H   0  0  0  0  0  0  0  0  0  0  0  0
    3.4905    4.0943    0.0240 H   0  0  0  0  0  0  0  0  0  0  0  0
    0.9414    4.4148    0.3212 H   0  0  0  0  0  0  0  0  0  0  0  0
   -1.1485    3.3625    0.7500 H   0  0  0  0  0  0  0  0  0  0  0  0
   -4.9446    1.7751    0.7574 H   0  0  0  0  0  0  0  0  0  0  0  0
   -4.1709    0.7227    1.9916 H   0  0  0  0  0  0  0  0  0  0  0  0
   -4.5216    0.1086   -1.0135 H   0  0  0  0  0  0  0  0  0  0  0  0
   -6.0383   -1.7255   -0.2364 H   0  0  0  0  0  0  0  0  0  0  0  0
   -6.6424   -0.0905    0.2131 H   0  0  0  0  0  0  0  0  0  0  0  0
   -5.8765   -1.1383    1.4662 H   0  0  0  0  0  0  0  0  0  0  0  0
   -3.4819   -2.0044   -0.6664 H   0  0  0  0  0  0  0  0  0  0  0  0
   -3.1387   -1.3675    2.1040 H   0  0  0  0  0  0  0  0  0  0  0  0
  1  2  1  0
  2  3  1  0
  3  4  1  0
  4  5  2  0
  5  6  1  0
  6  7  2  0
  6  8  1  0
  8  9  1  0
  9 10  2  0
 10 11  1  0
 11 12  2  0
 12 13  1  0
 13 14  2  0
 13 15  1  0
 15 16  1  0
 16 17  1  0
 16 18  1  0
 16 19  1  0
 19 20  2  0
 11 21  1  0
 21 22  1  0
 22 23  1  0
 23 24  1  0
 23 25  1  0
 25 26  1  0
 14  4  1  0
 14  9  1  0
 25 10  1  0
 20 12  1  0
  1 27  1  0
  1 28  1  0
  1 29  1  0
  2 30  1  0
  2 31  1  0
  3 32  1  0
  3 33  1  0
  5 34  1  0
 17 35  1  0
 17 36  1  0
 17 37  1  0
 18 38  1  0
 18 39  1  0
 18 40  1  0
 19 41  1  0
 20 42  1  0
 22 43  1  0
 22 44  1  0
 23 45  1  6
 24 46  1  0
 24 47  1  0
 24 48  1  0
 25 49  1  6
 26 50  1  0
M  END
$$$$
