
     RDKit          3D

 45 47  0  0  0  0  0  0  0  0999 V2000
    8.1875    2.3045    0.0009 C   0  0  0  0  0  0  0  0  0  0  0  0
    6.9939    1.5327    0.0569 O   0  0  0  0  0  0  0  0  0  0  0  0
    5.9847    1.6310   -0.9075 C   0  0  0  0  0  0  0  0  0  0  0  0
    6.1138    2.4293   -1.8767 O   0  0  0  0  0  0  0  0  0  0  0  0
    4.7675    0.7980   -0.7882 C   0  0  0  0  0  0  0  0  0  0  0  0
    4.6196   -0.0929    0.2881 C   0  0  0  0  0  0  0  0  0  0  0  0
    3.4710   -0.8815    0.4053 C   0  0  0  0  0  0  0  0  0  0  0  0
    2.4447   -0.7899   -0.5537 C   0  0  0  0  0  0  0  0  0  0  0  0
    1.2695   -1.5558   -0.4872 O   0  0  0  0  0  0  0  0  0  0  0  0
    0.8824   -2.3934    0.6036 C   0  0  0  0  0  0  0  0  0  0  0  0
    0.4129   -1.5645    1.8075 C   0  0  0  0  0  0  0  0  0  0  0  0
   -0.7700   -0.6571    1.4646 C   0  0  0  0  0  0  0  0  0  0  0  0
   -1.8902   -1.4438    1.0655 O   0  0  0  0  0  0  0  0  0  0  0  0
   -3.1304   -0.9173    0.6749 C   0  0  0  0  0  0  0  0  0  0  0  0
   -3.3843    0.4750    0.6585 C   0  0  0  0  0  0  0  0  0  0  0  0
   -4.6427    0.9156    0.2564 C   0  0  0  0  0  0  0  0  0  0  0  0
   -5.6240    0.0467   -0.1170 C   0  0  0  0  0  0  0  0  0  0  0  0
   -5.4115   -1.3305   -0.1134 C   0  0  0  0  0  0  0  0  0  0  0  0
   -4.1510   -1.8159    0.2870 C   0  0  0  0  0  0  0  0  0  0  0  0
   -3.9015   -3.1869    0.3026 O   0  0  0  0  0  0  0  0  0  0  0  0
   -6.8501    0.7975   -0.4929 C   0  0  0  0  0  0  0  0  0  0  0  0
   -6.4235    2.2705   -0.2764 C   0  0  0  0  0  0  0  0  0  0  0  0
   -5.0706    2.2225    0.1770 O   0  0  0  0  0  0  0  0  0  0  0  0
    2.5954    0.0932   -1.6279 C   0  0  0  0  0  0  0  0  0  0  0  0
    3.7428    0.8822   -1.7469 C   0  0  0  0  0  0  0  0  0  0  0  0
    8.8271    2.0502    0.8708 H   0  0  0  0  0  0  0  0  0  0  0  0
    7.9424    3.3870    0.0386 H   0  0  0  0  0  0  0  0  0  0  0  0
    8.7436    2.0775   -0.9333 H   0  0  0  0  0  0  0  0  0  0  0  0
    5.3923   -0.1835    1.0412 H   0  0  0  0  0  0  0  0  0  0  0  0
    3.3981   -1.5596    1.2433 H   0  0  0  0  0  0  0  0  0  0  0  0
    0.0503   -3.0465    0.2655 H   0  0  0  0  0  0  0  0  0  0  0  0
    1.7170   -3.0657    0.8944 H   0  0  0  0  0  0  0  0  0  0  0  0
    1.2484   -0.9380    2.1837 H   0  0  0  0  0  0  0  0  0  0  0  0
    0.1158   -2.2546    2.6266 H   0  0  0  0  0  0  0  0  0  0  0  0
   -1.0375   -0.0642    2.3660 H   0  0  0  0  0  0  0  0  0  0  0  0
   -0.4852    0.0416    0.6481 H   0  0  0  0  0  0  0  0  0  0  0  0
   -2.6339    1.1976    0.9477 H   0  0  0  0  0  0  0  0  0  0  0  0
   -6.2008   -2.0081   -0.4127 H   0  0  0  0  0  0  0  0  0  0  0  0
   -4.6108   -3.8575    0.0304 H   0  0  0  0  0  0  0  0  0  0  0  0
   -7.1105    0.6071   -1.5561 H   0  0  0  0  0  0  0  0  0  0  0  0
   -7.6937    0.5215    0.1755 H   0  0  0  0  0  0  0  0  0  0  0  0
   -7.0600    2.7563    0.4938 H   0  0  0  0  0  0  0  0  0  0  0  0
   -6.4801    2.8413   -1.2277 H   0  0  0  0  0  0  0  0  0  0  0  0
    1.8151    0.1711   -2.3745 H   0  0  0  0  0  0  0  0  0  0  0  0
    3.8263    1.5575   -2.5892 H   0  0  0  0  0  0  0  0  0  0  0  0
  1  2  1  0
  2  3  1  0
  3  4  2  0
  3  5  1  0
  5  6  2  0
  6  7  1  0
  7  8  2  0
  8  9  1  0
  9 10  1  0
 10 11  1  0
 11 12  1  0
 12 13  1  0
 13 14  1  0
 14 15  2  0
 15 16  1  0
 16 17  2  0
 17 18  1  0
 18 19  2  0
 19 20  1  0
 17 21  1  0
 21 22  1  0
 22 23  1  0
  8 24  1  0
 24 25  2  0
 25  5  1  0
 19 14  1  0
 23 16  1  0
  1 26  1  0
  1 27  1  0
  1 28  1  0
  6 29  1  0
  7 30  1  0
 10 31  1  0
 10 32  1  0
 11 33  1  0
 11 34  1  0
 12 35  1  0
 12 36  1  0
 15 37  1  0
 18 38  1  0
 20 39  1  0
 21 40  1  0
 21 41  1  0
 22 42  1  0
 22 43  1  0
 24 44  1  0
 25 45  1  0
M  END
$$$$
