
     RDKit          3D

 56 59  0  0  0  0  0  0  0  0999 V2000
    4.7808    2.5183    1.7239 C   0  0  0  0  0  0  0  0  0  0  0  0
    4.6892    2.3344    0.2077 C   0  0  0  0  0  0  0  0  0  0  0  0
    3.5048    1.4416   -0.2117 C   0  0  0  0  0  0  0  0  0  0  0  0
    2.0914    1.9788    0.0213 C   0  0  0  0  0  0  0  0  0  0  0  0
    1.8850    3.3489    0.2710 C   0  0  0  0  0  0  0  0  0  0  0  0
    0.6133    3.8152    0.5817 C   0  0  0  0  0  0  0  0  0  0  0  0
    0.4362    5.0343    0.8417 O   0  0  0  0  0  0  0  0  0  0  0  0
   -0.4154    2.9862    0.6119 O   0  0  0  0  0  0  0  0  0  0  0  0
   -0.3201    1.6929    0.3225 C   0  0  0  0  0  0  0  0  0  0  0  0
   -1.4868    0.8977    0.3603 C   0  0  0  0  0  0  0  0  0  0  0  0
   -1.3866   -0.4850    0.1110 C   0  0  0  0  0  0  0  0  0  0  0  0
   -0.1705   -1.0402   -0.3014 C   0  0  0  0  0  0  0  0  0  0  0  0
    0.9821   -0.2446   -0.3903 C   0  0  0  0  0  0  0  0  0  0  0  0
    0.9410    1.1274   -0.0225 C   0  0  0  0  0  0  0  0  0  0  0  0
    2.1464   -0.8366   -0.8962 O   0  0  0  0  0  0  0  0  0  0  0  0
    2.3759   -2.2507   -0.9174 C   0  0  0  0  0  0  0  0  0  0  0  0
    3.0697   -2.6573    0.3893 C   0  0  0  0  0  0  0  0  0  0  0  0
    3.2803   -2.5722   -2.1120 C   0  0  0  0  0  0  0  0  0  0  0  0
    1.0757   -3.0123   -1.0463 C   0  0  0  0  0  0  0  0  0  0  0  0
   -0.0896   -2.4591   -0.7063 C   0  0  0  0  0  0  0  0  0  0  0  0
   -2.5093   -1.3129    0.2454 O   0  0  0  0  0  0  0  0  0  0  0  0
   -3.7332   -0.8588    0.8204 C   0  0  2  0  0  0  0  0  0  0  0  0
   -4.8859   -1.8610    0.5639 C   0  0  0  0  0  0  0  0  0  0  0  0
   -4.7031   -2.7176   -0.6931 C   0  0  0  0  0  0  0  0  0  0  0  0
   -4.0276    0.5864    0.3540 C   0  0  2  0  0  0  0  0  0  0  0  0
   -4.3102    0.6743   -1.1596 C   0  0  0  0  0  0  0  0  0  0  0  0
   -2.8331    1.4889    0.7712 C   0  0  2  0  0  0  0  0  0  0  0  0
   -2.9948    2.7783    0.2343 O   0  0  0  0  0  0  0  0  0  0  0  0
    3.8771    3.0197    2.1253 H   0  0  0  0  0  0  0  0  0  0  0  0
    5.6654    3.1438    1.9670 H   0  0  0  0  0  0  0  0  0  0  0  0
    4.8982    1.5332    2.2236 H   0  0  0  0  0  0  0  0  0  0  0  0
    4.6629    3.3149   -0.3107 H   0  0  0  0  0  0  0  0  0  0  0  0
    5.6257    1.8371   -0.1268 H   0  0  0  0  0  0  0  0  0  0  0  0
    3.6283    0.4962    0.3569 H   0  0  0  0  0  0  0  0  0  0  0  0
    3.6152    1.2199   -1.2951 H   0  0  0  0  0  0  0  0  0  0  0  0
    2.6929    4.0644    0.2567 H   0  0  0  0  0  0  0  0  0  0  0  0
    3.2785   -3.7491    0.4020 H   0  0  0  0  0  0  0  0  0  0  0  0
    4.0302   -2.1101    0.5022 H   0  0  0  0  0  0  0  0  0  0  0  0
    2.4253   -2.4086    1.2600 H   0  0  0  0  0  0  0  0  0  0  0  0
    2.7786   -2.2810   -3.0599 H   0  0  0  0  0  0  0  0  0  0  0  0
    4.2335   -2.0059   -2.0359 H   0  0  0  0  0  0  0  0  0  0  0  0
    3.5140   -3.6583   -2.1514 H   0  0  0  0  0  0  0  0  0  0  0  0
    1.0980   -4.0602   -1.3223 H   0  0  0  0  0  0  0  0  0  0  0  0
   -0.9855   -3.0663   -0.7501 H   0  0  0  0  0  0  0  0  0  0  0  0
   -3.5886   -0.8168    1.9240 H   0  0  0  0  0  0  0  0  0  0  0  0
   -4.9543   -2.5547    1.4304 H   0  0  0  0  0  0  0  0  0  0  0  0
   -5.8591   -1.3269    0.5085 H   0  0  0  0  0  0  0  0  0  0  0  0
   -3.8313   -3.3953   -0.5730 H   0  0  0  0  0  0  0  0  0  0  0  0
   -4.5497   -2.0909   -1.5937 H   0  0  0  0  0  0  0  0  0  0  0  0
   -5.6080   -3.3419   -0.8490 H   0  0  0  0  0  0  0  0  0  0  0  0
   -4.9334    0.9516    0.8878 H   0  0  0  0  0  0  0  0  0  0  0  0
   -4.4732    1.7276   -1.4689 H   0  0  0  0  0  0  0  0  0  0  0  0
   -5.2412    0.1269   -1.4111 H   0  0  0  0  0  0  0  0  0  0  0  0
   -3.4675    0.2581   -1.7508 H   0  0  0  0  0  0  0  0  0  0  0  0
   -2.8202    1.5596    1.8843 H   0  0  0  0  0  0  0  0  0  0  0  0
   -3.7176    3.2175    0.7545 H   0  0  0  0  0  0  0  0  0  0  0  0
  1  2  1  0
  2  3  1  0
  3  4  1  0
  4  5  2  0
  5  6  1  0
  6  7  2  0
  6  8  1  0
  8  9  1  0
  9 10  2  0
 10 11  1  0
 11 12  2  0
 12 13  1  0
 13 14  2  0
 13 15  1  0
 15 16  1  0
 16 17  1  0
 16 18  1  0
 16 19  1  0
 19 20  2  0
 11 21  1  0
 21 22  1  0
 22 23  1  0
 23 24  1  0
 22 25  1  0
 25 26  1  0
 25 27  1  0
 27 28  1  0
 14  4  1  0
 14  9  1  0
 27 10  1  0
 20 12  1  0
  1 29  1  0
  1 30  1  0
  1 31  1  0
  2 32  1  0
  2 33  1  0
  3 34  1  0
  3 35  1  0
  5 36  1  0
 17 37  1  0
 17 38  1  0
 17 39  1  0
 18 40  1  0
 18 41  1  0
 18 42  1  0
 19 43  1  0
 20 44  1  0
 22 45  1  1
 23 46  1  0
 23 47  1  0
 24 48  1  0
 24 49  1  0
 24 50  1  0
 25 51  1  1
 26 52  1  0
 26 53  1  0
 26 54  1  0
 27 55  1  1
 28 56  1  0
M  END
$$$$
