
     RDKit          3D

 39 41  0  0  0  0  0  0  0  0999 V2000
   -4.7337   -1.3235   -0.2816 C   0  0  0  0  0  0  0  0  0  0  0  0
   -3.8745   -0.5260   -1.1554 N   0  0  0  0  0  0  0  0  0  0  0  0
   -4.0970   -0.5199   -2.5998 C   0  0  0  0  0  0  0  0  0  0  0  0
   -2.9150    0.3783   -0.5868 C   0  0  0  0  0  0  0  0  0  0  0  0
   -3.2325    1.7380   -0.5052 C   0  0  0  0  0  0  0  0  0  0  0  0
   -2.3373    2.6390    0.0631 C   0  0  0  0  0  0  0  0  0  0  0  0
   -1.1090    2.1985    0.5539 C   0  0  0  0  0  0  0  0  0  0  0  0
   -0.7465    0.8369    0.4769 C   0  0  0  0  0  0  0  0  0  0  0  0
    0.5055    0.3638    0.9586 C   0  0  0  0  0  0  0  0  0  0  0  0
    1.7240    1.4467    1.6622 S   0  0  0  0  0  6  0  0  0  0  0  0
    2.0457    2.5583    0.7023 O   0  0  0  0  0  0  0  0  0  0  0  0
    1.1832    2.0346    2.9351 O   0  0  0  0  0  0  0  0  0  0  0  0
    3.1886    0.5927    2.0294 N   0  0  0  0  0  0  0  0  0  0  0  0
    4.0881    0.1471    1.0093 C   0  0  0  0  0  0  0  0  0  0  0  0
    3.7965    0.3441   -0.3057 N   0  0  0  0  0  0  0  0  0  0  0  0
    4.6367   -0.0860   -1.2821 C   0  0  0  0  0  0  0  0  0  0  0  0
    5.8191   -0.7425   -0.9410 C   0  0  0  0  0  0  0  0  0  0  0  0
    6.9212   -1.3090   -2.1821 Cl  0  0  0  0  0  0  0  0  0  0  0  0
    6.1039   -0.9387    0.4105 C   0  0  0  0  0  0  0  0  0  0  0  0
    5.2366   -0.4934    1.3565 N   0  0  0  0  0  0  0  0  0  0  0  0
    0.7965   -1.0066    0.8817 C   0  0  0  0  0  0  0  0  0  0  0  0
   -0.1082   -1.8986    0.3138 C   0  0  0  0  0  0  0  0  0  0  0  0
   -1.3276   -1.4457   -0.1795 C   0  0  0  0  0  0  0  0  0  0  0  0
   -1.6700   -0.0843   -0.0982 C   0  0  0  0  0  0  0  0  0  0  0  0
   -4.3610   -1.3039    0.7653 H   0  0  0  0  0  0  0  0  0  0  0  0
   -5.7660   -0.9156   -0.3019 H   0  0  0  0  0  0  0  0  0  0  0  0
   -4.7483   -2.3782   -0.6285 H   0  0  0  0  0  0  0  0  0  0  0  0
   -3.1634   -0.8196   -3.1206 H   0  0  0  0  0  0  0  0  0  0  0  0
   -4.3917    0.4969   -2.9342 H   0  0  0  0  0  0  0  0  0  0  0  0
   -4.9031   -1.2313   -2.8803 H   0  0  0  0  0  0  0  0  0  0  0  0
   -4.1858    2.0962   -0.8733 H   0  0  0  0  0  0  0  0  0  0  0  0
   -2.5991    3.6873    0.1290 H   0  0  0  0  0  0  0  0  0  0  0  0
   -0.4589    2.9382    0.9961 H   0  0  0  0  0  0  0  0  0  0  0  0
    3.4185    0.4066    3.0308 H   0  0  0  0  0  0  0  0  0  0  0  0
    4.3832    0.0824   -2.3203 H   0  0  0  0  0  0  0  0  0  0  0  0
    7.0117   -1.4450    0.7109 H   0  0  0  0  0  0  0  0  0  0  0  0
    1.7304   -1.3975    1.2601 H   0  0  0  0  0  0  0  0  0  0  0  0
    0.1391   -2.9509    0.2543 H   0  0  0  0  0  0  0  0  0  0  0  0
   -1.9998   -2.1693   -0.6223 H   0  0  0  0  0  0  0  0  0  0  0  0
  1  2  1  0
  2  3  1  0
  2  4  1  0
  4  5  2  0
  5  6  1  0
  6  7  2  0
  7  8  1  0
  8  9  2  0
  9 10  1  0
 10 11  2  0
 10 12  2  0
 10 13  1  0
 13 14  1  0
 14 15  2  0
 15 16  1  0
 16 17  2  0
 17 18  1  0
 17 19  1  0
 19 20  2  0
  9 21  1  0
 21 22  2  0
 22 23  1  0
 23 24  2  0
 24  4  1  0
 24  8  1  0
 20 14  1  0
  1 25  1  0
  1 26  1  0
  1 27  1  0
  3 28  1  0
  3 29  1  0
  3 30  1  0
  5 31  1  0
  6 32  1  0
  7 33  1  0
 13 34  1  0
 16 35  1  0
 19 36  1  0
 21 37  1  0
 22 38  1  0
 23 39  1  0
M  END
$$$$
