
     RDKit          3D

 54 57  0  0  0  0  0  0  0  0999 V2000
    6.9140    3.1112   -0.4655 C   0  0  0  0  0  0  0  0  0  0  0  0
    6.1783    2.5504    0.7473 C   0  0  0  0  0  0  0  0  0  0  0  0
    4.8227    2.1208    0.3745 N   0  0  0  0  0  0  0  0  0  0  0  0
    4.8056    0.7184   -0.0668 C   0  0  0  0  0  0  0  0  0  0  0  0
    3.4359    0.3652   -0.6720 C   0  0  0  0  0  0  0  0  0  0  0  0
    3.4156   -1.0390   -1.2907 C   0  0  0  0  0  0  0  0  0  0  0  0
    1.9882   -1.5408   -1.1117 C   0  0  0  0  0  0  0  0  0  0  0  0
    1.4241   -0.7181   -0.0569 N   0  0  0  0  0  0  0  0  0  0  0  0
    0.1548   -0.9808    0.5568 C   0  0  0  0  0  0  0  0  0  0  0  0
    0.0977   -1.3974    1.8891 C   0  0  0  0  0  0  0  0  0  0  0  0
    1.2366   -1.5593    2.6083 F   0  0  0  0  0  0  0  0  0  0  0  0
   -1.1240   -1.7300    2.4653 C   0  0  0  0  0  0  0  0  0  0  0  0
   -2.3204   -1.6045    1.7351 C   0  0  0  0  0  0  0  0  0  0  0  0
   -3.5382   -2.0453    2.2795 C   0  0  0  0  0  0  0  0  0  0  0  0
   -3.5742   -2.5073    3.4542 O   0  0  0  0  0  0  0  0  0  0  0  0
   -4.7055   -2.0030    1.5000 C   0  0  0  0  0  0  0  0  0  0  0  0
   -6.0013   -2.5555    1.9808 C   0  0  0  0  0  0  0  0  0  0  0  0
   -6.0784   -3.1595    3.0847 O   0  0  0  0  0  0  0  0  0  0  0  0
   -7.1521   -2.4142    1.2087 O   0  0  0  0  0  0  0  0  0  0  0  0
   -4.6401   -1.4077    0.2332 C   0  0  0  0  0  0  0  0  0  0  0  0
   -3.4943   -0.8130   -0.2312 N   0  0  0  0  0  0  0  0  0  0  0  0
   -3.5721    0.0150   -1.4686 C   0  0  0  0  0  0  0  0  0  0  0  0
   -4.9001    0.7699   -1.6930 C   0  0  0  0  0  0  0  0  0  0  0  0
   -4.1729    2.1005   -1.6324 C   0  0  0  0  0  0  0  0  0  0  0  0
   -2.8697    1.3788   -1.3483 C   0  0  0  0  0  0  0  0  0  0  0  0
   -2.2973   -1.0644    0.4206 C   0  0  0  0  0  0  0  0  0  0  0  0
   -1.0292   -0.8384   -0.1834 C   0  0  0  0  0  0  0  0  0  0  0  0
   -0.9144   -0.5587   -1.5048 F   0  0  0  0  0  0  0  0  0  0  0  0
    2.2989    0.3647    0.3533 C   0  0  0  0  0  0  0  0  0  0  0  0
    7.9018    3.5086   -0.1503 H   0  0  0  0  0  0  0  0  0  0  0  0
    6.3257    3.9364   -0.9203 H   0  0  0  0  0  0  0  0  0  0  0  0
    7.0803    2.3198   -1.2255 H   0  0  0  0  0  0  0  0  0  0  0  0
    6.1106    3.3604    1.5074 H   0  0  0  0  0  0  0  0  0  0  0  0
    6.7657    1.7204    1.2016 H   0  0  0  0  0  0  0  0  0  0  0  0
    4.2242    2.1920    1.2309 H   0  0  0  0  0  0  0  0  0  0  0  0
    5.5778    0.5569   -0.8506 H   0  0  0  0  0  0  0  0  0  0  0  0
    5.0339    0.0409    0.7877 H   0  0  0  0  0  0  0  0  0  0  0  0
    3.1933    1.0997   -1.4737 H   0  0  0  0  0  0  0  0  0  0  0  0
    4.1090   -1.7178   -0.7454 H   0  0  0  0  0  0  0  0  0  0  0  0
    3.7034   -1.0119   -2.3643 H   0  0  0  0  0  0  0  0  0  0  0  0
    1.4109   -1.4044   -2.0506 H   0  0  0  0  0  0  0  0  0  0  0  0
    1.9811   -2.6119   -0.8142 H   0  0  0  0  0  0  0  0  0  0  0  0
   -1.1267   -2.1108    3.4795 H   0  0  0  0  0  0  0  0  0  0  0  0
   -8.0399   -2.7867    1.5240 H   0  0  0  0  0  0  0  0  0  0  0  0
   -5.5335   -1.4085   -0.3771 H   0  0  0  0  0  0  0  0  0  0  0  0
   -3.2670   -0.5564   -2.3731 H   0  0  0  0  0  0  0  0  0  0  0  0
   -5.3359    0.5728   -2.6967 H   0  0  0  0  0  0  0  0  0  0  0  0
   -5.6450    0.7200   -0.8715 H   0  0  0  0  0  0  0  0  0  0  0  0
   -4.5037    2.7360   -0.7816 H   0  0  0  0  0  0  0  0  0  0  0  0
   -4.1647    2.6258   -2.6126 H   0  0  0  0  0  0  0  0  0  0  0  0
   -2.4937    1.6057   -0.3263 H   0  0  0  0  0  0  0  0  0  0  0  0
   -2.1204    1.5527   -2.1510 H   0  0  0  0  0  0  0  0  0  0  0  0
    1.7515    1.3320    0.3303 H   0  0  0  0  0  0  0  0  0  0  0  0
    2.6728    0.1702    1.3813 H   0  0  0  0  0  0  0  0  0  0  0  0
  1  2  1  0
  2  3  1  0
  3  4  1  0
  4  5  1  0
  5  6  1  0
  6  7  1  0
  7  8  1  0
  8  9  1  0
  9 10  2  0
 10 11  1  0
 10 12  1  0
 12 13  2  0
 13 14  1  0
 14 15  2  0
 14 16  1  0
 16 17  1  0
 17 18  2  0
 17 19  1  0
 16 20  2  0
 20 21  1  0
 21 22  1  0
 22 23  1  0
 23 24  1  0
 24 25  1  0
 21 26  1  0
 26 27  2  0
 27 28  1  0
  8 29  1  0
 29  5  1  0
 27  9  1  0
 26 13  1  0
 25 22  1  0
  1 30  1  0
  1 31  1  0
  1 32  1  0
  2 33  1  0
  2 34  1  0
  3 35  1  0
  4 36  1  0
  4 37  1  0
  5 38  1  0
  6 39  1  0
  6 40  1  0
  7 41  1  0
  7 42  1  0
 12 43  1  0
 19 44  1  0
 20 45  1  0
 22 46  1  0
 23 47  1  0
 23 48  1  0
 24 49  1  0
 24 50  1  0
 25 51  1  0
 25 52  1  0
 29 53  1  0
 29 54  1  0
M  END
$$$$
