
     RDKit          3D

 50 53  0  0  0  0  0  0  0  0999 V2000
   -6.2552   -1.2247    0.6742 C   0  0  0  0  0  0  0  0  0  0  0  0
   -5.9155    0.2586    0.7793 C   0  0  0  0  0  0  0  0  0  0  0  0
   -4.5491    0.5115    0.3204 N   0  0  0  0  0  0  0  0  0  0  0  0
   -4.1046    0.3546   -1.0433 C   0  0  0  0  0  0  0  0  0  0  0  0
   -5.0126    0.3691   -2.1181 C   0  0  0  0  0  0  0  0  0  0  0  0
   -4.5508    0.2695   -3.4306 C   0  0  0  0  0  0  0  0  0  0  0  0
   -3.1823    0.1611   -3.6682 C   0  0  0  0  0  0  0  0  0  0  0  0
   -2.3116    0.1423   -2.6266 N   0  0  0  0  0  0  0  0  0  0  0  0
   -2.7288    0.2292   -1.3340 C   0  0  0  0  0  0  0  0  0  0  0  0
   -1.7545    0.1713   -0.2857 N   0  0  0  0  0  0  0  0  0  0  0  0
   -1.6168   -1.0603    0.5013 C   0  0  0  0  0  0  0  0  0  0  0  0
   -0.6011   -0.8875    1.6350 C   0  0  0  0  0  0  0  0  0  0  0  0
    0.6298   -0.2634    1.1314 N   0  0  0  0  0  0  0  0  0  0  0  0
    1.8799   -0.5543    1.7845 C   0  0  0  0  0  0  0  0  0  0  0  0
    1.8895   -0.8154    3.0187 O   0  0  0  0  0  0  0  0  0  0  0  0
    3.1585   -0.5472    1.0412 C   0  0  0  0  0  0  0  0  0  0  0  0
    3.2245   -1.0130   -0.2817 C   0  0  0  0  0  0  0  0  0  0  0  0
    4.4069   -1.0154   -0.9524 N   0  0  0  0  0  0  0  0  0  0  0  0
    5.5583   -0.5792   -0.3770 C   0  0  0  0  0  0  0  0  0  0  0  0
    6.7559   -0.5931   -1.1014 C   0  0  0  0  0  0  0  0  0  0  0  0
    7.9400   -0.1500   -0.5033 C   0  0  0  0  0  0  0  0  0  0  0  0
    7.9321    0.3074    0.8185 C   0  0  0  0  0  0  0  0  0  0  0  0
    6.7401    0.3248    1.5502 C   0  0  0  0  0  0  0  0  0  0  0  0
    5.5476   -0.1176    0.9575 C   0  0  0  0  0  0  0  0  0  0  0  0
    4.3384   -0.1121    1.6638 C   0  0  0  0  0  0  0  0  0  0  0  0
    0.5581    0.8552    0.1748 C   0  0  0  0  0  0  0  0  0  0  0  0
   -0.8839    1.3236   -0.0408 C   0  0  0  0  0  0  0  0  0  0  0  0
   -7.2746   -1.4026    1.0763 H   0  0  0  0  0  0  0  0  0  0  0  0
   -5.5280   -1.8231    1.2633 H   0  0  0  0  0  0  0  0  0  0  0  0
   -6.2283   -1.5594   -0.3834 H   0  0  0  0  0  0  0  0  0  0  0  0
   -6.0038    0.5632    1.8447 H   0  0  0  0  0  0  0  0  0  0  0  0
   -6.6403    0.8698    0.2025 H   0  0  0  0  0  0  0  0  0  0  0  0
   -3.8584    0.8141    1.0439 H   0  0  0  0  0  0  0  0  0  0  0  0
   -6.0756    0.4725   -1.9548 H   0  0  0  0  0  0  0  0  0  0  0  0
   -5.2484    0.2851   -4.2580 H   0  0  0  0  0  0  0  0  0  0  0  0
   -2.8108    0.0887   -4.6816 H   0  0  0  0  0  0  0  0  0  0  0  0
   -1.2788   -1.8804   -0.1685 H   0  0  0  0  0  0  0  0  0  0  0  0
   -2.5974   -1.3490    0.9362 H   0  0  0  0  0  0  0  0  0  0  0  0
   -0.3809   -1.8870    2.0704 H   0  0  0  0  0  0  0  0  0  0  0  0
   -1.0365   -0.2471    2.4326 H   0  0  0  0  0  0  0  0  0  0  0  0
    2.3410   -1.3961   -0.7753 H   0  0  0  0  0  0  0  0  0  0  0  0
    6.7718   -0.9474   -2.1246 H   0  0  0  0  0  0  0  0  0  0  0  0
    8.8653   -0.1618   -1.0647 H   0  0  0  0  0  0  0  0  0  0  0  0
    8.8516    0.6482    1.2768 H   0  0  0  0  0  0  0  0  0  0  0  0
    6.7500    0.6819    2.5731 H   0  0  0  0  0  0  0  0  0  0  0  0
    4.3114    0.2414    2.6885 H   0  0  0  0  0  0  0  0  0  0  0  0
    0.9761    0.5368   -0.8024 H   0  0  0  0  0  0  0  0  0  0  0  0
    1.1573    1.7133    0.5503 H   0  0  0  0  0  0  0  0  0  0  0  0
   -1.2405    1.8613    0.8641 H   0  0  0  0  0  0  0  0  0  0  0  0
   -0.9150    2.0330   -0.8971 H   0  0  0  0  0  0  0  0  0  0  0  0
  1  2  1  0
  2  3  1  0
  3  4  1  0
  4  5  2  0
  5  6  1  0
  6  7  2  0
  7  8  1  0
  8  9  2  0
  9 10  1  0
 10 11  1  0
 11 12  1  0
 12 13  1  0
 13 14  1  0
 14 15  2  0
 14 16  1  0
 16 17  2  0
 17 18  1  0
 18 19  2  0
 19 20  1  0
 20 21  2  0
 21 22  1  0
 22 23  2  0
 23 24  1  0
 24 25  2  0
 13 26  1  0
 26 27  1  0
  9  4  1  0
 27 10  1  0
 25 16  1  0
 24 19  1  0
  1 28  1  0
  1 29  1  0
  1 30  1  0
  2 31  1  0
  2 32  1  0
  3 33  1  0
  5 34  1  0
  6 35  1  0
  7 36  1  0
 11 37  1  0
 11 38  1  0
 12 39  1  0
 12 40  1  0
 17 41  1  0
 20 42  1  0
 21 43  1  0
 22 44  1  0
 23 45  1  0
 25 46  1  0
 26 47  1  0
 26 48  1  0
 27 49  1  0
 27 50  1  0
M  END
$$$$
