
     RDKit          3D

 54 57  0  0  0  0  0  0  0  0999 V2000
    4.9204   -0.4022    4.1720 C   0  0  0  0  0  0  0  0  0  0  0  0
    5.5226   -0.0062    2.9437 O   0  0  0  0  0  0  0  0  0  0  0  0
    4.8280    0.1687    1.7358 C   0  0  0  0  0  0  0  0  0  0  0  0
    3.4440   -0.0497    1.6338 C   0  0  0  0  0  0  0  0  0  0  0  0
    2.7823    0.1377    0.4180 C   0  0  0  0  0  0  0  0  0  0  0  0
    1.4467   -0.0975    0.3490 N   0  0  0  0  0  0  0  0  0  0  0  0
    0.7345    0.0549   -0.7974 C   0  0  0  0  0  0  0  0  0  0  0  0
   -0.6824   -0.2191   -0.7952 N   0  0  0  0  0  0  0  0  0  0  0  0
   -1.3699   -0.6531   -2.0172 C   0  0  0  0  0  0  0  0  0  0  0  0
   -2.5093   -1.6202   -1.6734 C   0  0  0  0  0  0  0  0  0  0  0  0
   -3.4089   -1.0814   -0.6343 N   0  0  0  0  0  0  0  0  0  0  0  0
   -4.2558    0.0234   -1.1357 C   0  0  0  0  0  0  0  0  0  0  0  0
   -5.4486    0.2253   -0.2392 C   0  0  0  0  0  0  0  0  0  0  0  0
   -5.5403    1.3601    0.5846 C   0  0  0  0  0  0  0  0  0  0  0  0
   -6.6419    1.5290    1.4291 C   0  0  0  0  0  0  0  0  0  0  0  0
   -7.6559    0.5673    1.4593 C   0  0  0  0  0  0  0  0  0  0  0  0
   -7.5689   -0.5663    0.6464 C   0  0  0  0  0  0  0  0  0  0  0  0
   -6.4686   -0.7396   -0.1990 C   0  0  0  0  0  0  0  0  0  0  0  0
   -2.6584   -0.7421    0.5948 C   0  0  0  0  0  0  0  0  0  0  0  0
   -1.4994    0.2320    0.3374 C   0  0  0  0  0  0  0  0  0  0  0  0
    1.3931    0.4903   -1.9566 C   0  0  0  0  0  0  0  0  0  0  0  0
    2.7704    0.7531   -1.9363 C   0  0  0  0  0  0  0  0  0  0  0  0
    3.3871    1.2252   -3.1452 N   0  0  0  0  0  0  0  0  0  0  0  0
    3.4933    0.5611   -0.7297 C   0  0  0  0  0  0  0  0  0  0  0  0
    4.8853    0.7626   -0.6226 C   0  0  0  0  0  0  0  0  0  0  0  0
    5.5512    0.5706    0.6048 C   0  0  0  0  0  0  0  0  0  0  0  0
    6.9352    0.7683    0.7418 O   0  0  0  0  0  0  0  0  0  0  0  0
    7.8048    1.1769   -0.3092 C   0  0  0  0  0  0  0  0  0  0  0  0
    4.1566    0.3427    4.4802 H   0  0  0  0  0  0  0  0  0  0  0  0
    4.4559   -1.4049    4.0640 H   0  0  0  0  0  0  0  0  0  0  0  0
    5.7012   -0.4557    4.9580 H   0  0  0  0  0  0  0  0  0  0  0  0
    2.8711   -0.3687    2.4948 H   0  0  0  0  0  0  0  0  0  0  0  0
   -1.7654    0.2335   -2.5569 H   0  0  0  0  0  0  0  0  0  0  0  0
   -0.6652   -1.1865   -2.6917 H   0  0  0  0  0  0  0  0  0  0  0  0
   -3.0812   -1.8672   -2.5943 H   0  0  0  0  0  0  0  0  0  0  0  0
   -2.0714   -2.5764   -1.3115 H   0  0  0  0  0  0  0  0  0  0  0  0
   -4.6433   -0.2198   -2.1500 H   0  0  0  0  0  0  0  0  0  0  0  0
   -3.6770    0.9650   -1.2436 H   0  0  0  0  0  0  0  0  0  0  0  0
   -4.7581    2.1093    0.5776 H   0  0  0  0  0  0  0  0  0  0  0  0
   -6.7081    2.4042    2.0627 H   0  0  0  0  0  0  0  0  0  0  0  0
   -8.5074    0.6992    2.1142 H   0  0  0  0  0  0  0  0  0  0  0  0
   -8.3529   -1.3122    0.6732 H   0  0  0  0  0  0  0  0  0  0  0  0
   -6.4087   -1.6247   -0.8202 H   0  0  0  0  0  0  0  0  0  0  0  0
   -3.3367   -0.3159    1.3643 H   0  0  0  0  0  0  0  0  0  0  0  0
   -2.2450   -1.6779    1.0310 H   0  0  0  0  0  0  0  0  0  0  0  0
   -1.8869    1.2508    0.1289 H   0  0  0  0  0  0  0  0  0  0  0  0
   -0.8920    0.2977    1.2654 H   0  0  0  0  0  0  0  0  0  0  0  0
    0.8359    0.6542   -2.8699 H   0  0  0  0  0  0  0  0  0  0  0  0
    4.3603    1.5906   -3.1910 H   0  0  0  0  0  0  0  0  0  0  0  0
    2.8323    1.2820   -4.0285 H   0  0  0  0  0  0  0  0  0  0  0  0
    5.4671    1.0544   -1.4788 H   0  0  0  0  0  0  0  0  0  0  0  0
    7.7934    0.4269   -1.1280 H   0  0  0  0  0  0  0  0  0  0  0  0
    7.4968    2.1716   -0.6951 H   0  0  0  0  0  0  0  0  0  0  0  0
    8.8384    1.2545    0.0857 H   0  0  0  0  0  0  0  0  0  0  0  0
  1  2  1  0
  2  3  1  0
  3  4  2  0
  4  5  1  0
  5  6  2  0
  6  7  1  0
  7  8  1  0
  8  9  1  0
  9 10  1  0
 10 11  1  0
 11 12  1  0
 12 13  1  0
 13 14  2  0
 14 15  1  0
 15 16  2  0
 16 17  1  0
 17 18  2  0
 11 19  1  0
 19 20  1  0
  7 21  2  0
 21 22  1  0
 22 23  1  0
 22 24  2  0
 24 25  1  0
 25 26  2  0
 26 27  1  0
 27 28  1  0
 26  3  1  0
 24  5  1  0
 20  8  1  0
 18 13  1  0
  1 29  1  0
  1 30  1  0
  1 31  1  0
  4 32  1  0
  9 33  1  0
  9 34  1  0
 10 35  1  0
 10 36  1  0
 12 37  1  0
 12 38  1  0
 14 39  1  0
 15 40  1  0
 16 41  1  0
 17 42  1  0
 18 43  1  0
 19 44  1  0
 19 45  1  0
 20 46  1  0
 20 47  1  0
 21 48  1  0
 23 49  1  0
 23 50  1  0
 25 51  1  0
 28 52  1  0
 28 53  1  0
 28 54  1  0
M  END
$$$$
