
     RDKit          3D

 55 57  0  0  0  0  0  0  0  0999 V2000
    0.6879    0.0000    0.0000 Cl  0  0  0  0  0  0  0  0  0  0  0  0
   -2.6533   -0.7322   -1.4986 O   0  0  0  0  0  0  0  0  0  0  0  0
   -2.6633   -0.7302   -0.2364 C   0  0  0  0  0  0  0  0  0  0  0  0
   -3.6272    0.1723    0.5131 C   0  0  1  0  0  0  0  0  0  0  0  0
   -2.9189    1.4458    0.9497 C   0  0  0  0  0  0  0  0  0  0  0  0
   -3.1701    2.4240   -0.1800 C   0  0  0  0  0  0  0  0  0  0  0  0
   -4.3885    1.8817   -0.9198 C   0  0  0  0  0  0  0  0  0  0  0  0
   -4.7620    0.6034   -0.3114 N   0  0  0  0  0  0  0  0  0  0  0  0
   -1.6726   -1.4944    0.4770 N   0  0  0  0  0  0  0  0  0  0  0  0
   -1.8256   -1.9324    1.8554 C   0  0  0  0  0  0  0  0  0  0  0  0
   -0.5353   -2.6669    2.1985 C   0  0  0  0  0  0  0  0  0  0  0  0
    0.1379   -2.9612    0.8613 C   0  0  0  0  0  0  0  0  0  0  0  0
   -0.4102   -1.9199   -0.1113 C   0  0  0  0  0  0  0  0  0  0  0  0
    0.6924   -0.4635   -0.2835 P   0  0  0  0  0  5  0  0  0  0  0  0
    0.8421    0.2098    1.0612 O   0  0  0  0  0  0  0  0  0  0  0  0
   -0.0758    0.6029   -1.3979 O   0  0  0  0  0  0  0  0  0  0  0  0
    0.3640    1.8995   -1.6904 C   0  0  0  0  0  0  0  0  0  0  0  0
    0.2668    2.3480   -3.0166 C   0  0  0  0  0  0  0  0  0  0  0  0
    0.6618    3.6467   -3.3539 C   0  0  0  0  0  0  0  0  0  0  0  0
    1.1401    4.5132   -2.3650 C   0  0  0  0  0  0  0  0  0  0  0  0
    1.2192    4.0832   -1.0373 C   0  0  0  0  0  0  0  0  0  0  0  0
    0.8367    2.7815   -0.6971 C   0  0  0  0  0  0  0  0  0  0  0  0
    2.2225   -0.8903   -0.9614 O   0  0  0  0  0  0  0  0  0  0  0  0
    3.2746   -1.5481   -0.3065 C   0  0  0  0  0  0  0  0  0  0  0  0
    3.4602   -1.5149    1.0916 C   0  0  0  0  0  0  0  0  0  0  0  0
    4.5415   -2.1853    1.6750 C   0  0  0  0  0  0  0  0  0  0  0  0
    5.4418   -2.8965    0.8749 C   0  0  0  0  0  0  0  0  0  0  0  0
    5.2710   -2.9270   -0.5118 C   0  0  0  0  0  0  0  0  0  0  0  0
    4.2013   -2.2426   -1.0983 C   0  0  0  0  0  0  0  0  0  0  0  0
   -0.6879    0.0000    0.0000 H   0  0  0  0  0  0  0  0  0  0  0  0
   -4.0206   -0.3675    1.4015 H   0  0  0  0  0  0  0  0  0  0  0  0
   -1.8318    1.3032    1.1361 H   0  0  0  0  0  0  0  0  0  0  0  0
   -3.3918    1.8275    1.8800 H   0  0  0  0  0  0  0  0  0  0  0  0
   -2.2948    2.4492   -0.8634 H   0  0  0  0  0  0  0  0  0  0  0  0
   -3.3515    3.4478    0.2117 H   0  0  0  0  0  0  0  0  0  0  0  0
   -4.1547    1.7499   -2.0007 H   0  0  0  0  0  0  0  0  0  0  0  0
   -5.2377    2.5909   -0.8269 H   0  0  0  0  0  0  0  0  0  0  0  0
   -5.0033   -0.0992   -1.0489 H   0  0  0  0  0  0  0  0  0  0  0  0
   -1.9623   -1.0604    2.5306 H   0  0  0  0  0  0  0  0  0  0  0  0
   -2.6976   -2.6177    1.9352 H   0  0  0  0  0  0  0  0  0  0  0  0
   -0.7367   -3.6021    2.7644 H   0  0  0  0  0  0  0  0  0  0  0  0
    0.1231   -2.0063    2.8054 H   0  0  0  0  0  0  0  0  0  0  0  0
   -0.1743   -3.9731    0.5187 H   0  0  0  0  0  0  0  0  0  0  0  0
    1.2401   -2.9566    0.9481 H   0  0  0  0  0  0  0  0  0  0  0  0
   -0.5771   -2.3816   -1.1087 H   0  0  0  0  0  0  0  0  0  0  0  0
   -0.1107    1.6850   -3.7875 H   0  0  0  0  0  0  0  0  0  0  0  0
    0.5986    3.9809   -4.3827 H   0  0  0  0  0  0  0  0  0  0  0  0
    1.4423    5.5192   -2.6259 H   0  0  0  0  0  0  0  0  0  0  0  0
    1.5737    4.7605   -0.2705 H   0  0  0  0  0  0  0  0  0  0  0  0
    0.8673    2.4955    0.3430 H   0  0  0  0  0  0  0  0  0  0  0  0
    2.7978   -0.9648    1.7404 H   0  0  0  0  0  0  0  0  0  0  0  0
    4.6878   -2.1482    2.7486 H   0  0  0  0  0  0  0  0  0  0  0  0
    6.2771   -3.4153    1.3286 H   0  0  0  0  0  0  0  0  0  0  0  0
    5.9785   -3.4625   -1.1321 H   0  0  0  0  0  0  0  0  0  0  0  0
    4.0876   -2.2610   -2.1737 H   0  0  0  0  0  0  0  0  0  0  0  0
  2  3  2  0
  3  4  1  0
  4  5  1  0
  5  6  1  0
  6  7  1  0
  7  8  1  0
  3  9  1  0
  9 10  1  0
 10 11  1  0
 11 12  1  0
 12 13  1  0
 13 14  1  0
 14 15  2  0
 14 16  1  0
 16 17  1  0
 17 18  2  0
 18 19  1  0
 19 20  2  0
 20 21  1  0
 21 22  2  0
 14 23  1  0
 23 24  1  0
 24 25  2  0
 25 26  1  0
 26 27  2  0
 27 28  1  0
 28 29  2  0
  8  4  1  0
 13  9  1  0
 22 17  1  0
 29 24  1  0
  1 30  1  0
  4 31  1  1
  5 32  1  0
  5 33  1  0
  6 34  1  0
  6 35  1  0
  7 36  1  0
  7 37  1  0
  8 38  1  0
 10 39  1  0
 10 40  1  0
 11 41  1  0
 11 42  1  0
 12 43  1  0
 12 44  1  0
 13 45  1  0
 18 46  1  0
 19 47  1  0
 20 48  1  0
 21 49  1  0
 22 50  1  0
 25 51  1  0
 26 52  1  0
 27 53  1  0
 28 54  1  0
 29 55  1  0
M  END
$$$$
