
     RDKit          3D

 45 47  0  0  0  0  0  0  0  0999 V2000
   -3.1363   -2.0293    0.9596 C   0  0  0  0  0  0  0  0  0  0  0  0
   -3.7700   -0.7006    0.5129 C   0  0  0  0  0  0  0  0  0  0  0  0
   -3.8981    0.2427    1.7185 C   0  0  0  0  0  0  0  0  0  0  0  0
   -5.1216   -0.9978    0.0225 N   0  0  0  0  0  0  0  0  0  0  0  0
   -5.6452   -0.4532   -1.0323 C   0  0  0  0  0  0  0  0  0  0  0  0
   -6.9867   -0.7657   -1.3998 N   0  0  0  0  0  0  0  0  0  0  0  0
   -4.8756    0.4296   -1.8496 N   0  0  0  0  0  0  0  0  0  0  0  0
   -3.6133    0.6287   -1.6355 C   0  0  0  0  0  0  0  0  0  0  0  0
   -2.8932    1.5023   -2.5120 N   0  0  0  0  0  0  0  0  0  0  0  0
   -2.9546   -0.0518   -0.5446 N   0  0  0  0  0  0  0  0  0  0  0  0
   -1.5269    0.0544   -0.4051 C   0  0  0  0  0  0  0  0  0  0  0  0
   -0.9590    1.1354    0.2823 C   0  0  0  0  0  0  0  0  0  0  0  0
    0.4293    1.2404    0.4027 C   0  0  0  0  0  0  0  0  0  0  0  0
    1.2675    0.2753   -0.1682 C   0  0  0  0  0  0  0  0  0  0  0  0
    2.6537    0.4245   -0.0165 O   0  0  0  0  0  0  0  0  0  0  0  0
    3.6239   -0.4797   -0.5381 C   0  0  0  0  0  0  0  0  0  0  0  0
    4.9953    0.0024   -0.1657 C   0  0  0  0  0  0  0  0  0  0  0  0
    5.6605    0.9334   -0.9773 C   0  0  0  0  0  0  0  0  0  0  0  0
    6.9207    1.4133   -0.6111 C   0  0  0  0  0  0  0  0  0  0  0  0
    7.5250    0.9780    0.5739 C   0  0  0  0  0  0  0  0  0  0  0  0
    9.1106    1.6058    1.0027 Cl  0  0  0  0  0  0  0  0  0  0  0  0
    6.8572    0.0584    1.4006 C   0  0  0  0  0  0  0  0  0  0  0  0
    7.5736   -0.5015    2.9058 Cl  0  0  0  0  0  0  0  0  0  0  0  0
    5.5946   -0.4211    1.0312 C   0  0  0  0  0  0  0  0  0  0  0  0
    0.6953   -0.8030   -0.8712 C   0  0  0  0  0  0  0  0  0  0  0  0
   -0.6937   -0.9068   -0.9908 C   0  0  0  0  0  0  0  0  0  0  0  0
   -2.1455   -1.8631    1.4337 H   0  0  0  0  0  0  0  0  0  0  0  0
   -3.0061   -2.7016    0.0845 H   0  0  0  0  0  0  0  0  0  0  0  0
   -3.7906   -2.5409    1.6989 H   0  0  0  0  0  0  0  0  0  0  0  0
   -4.2984    1.2271    1.3925 H   0  0  0  0  0  0  0  0  0  0  0  0
   -4.5921   -0.1858    2.4741 H   0  0  0  0  0  0  0  0  0  0  0  0
   -2.9130    0.4016    2.2052 H   0  0  0  0  0  0  0  0  0  0  0  0
   -7.5590   -1.4177   -0.8188 H   0  0  0  0  0  0  0  0  0  0  0  0
   -7.4095   -0.3431   -2.2560 H   0  0  0  0  0  0  0  0  0  0  0  0
   -1.8755    1.6948   -2.3882 H   0  0  0  0  0  0  0  0  0  0  0  0
   -3.3876    1.9726   -3.3031 H   0  0  0  0  0  0  0  0  0  0  0  0
   -1.5919    1.8987    0.7160 H   0  0  0  0  0  0  0  0  0  0  0  0
    0.8570    2.0782    0.9394 H   0  0  0  0  0  0  0  0  0  0  0  0
    3.4523   -1.4969   -0.1224 H   0  0  0  0  0  0  0  0  0  0  0  0
    3.5302   -0.5350   -1.6449 H   0  0  0  0  0  0  0  0  0  0  0  0
    5.2016    1.2908   -1.8915 H   0  0  0  0  0  0  0  0  0  0  0  0
    7.4256    2.1287   -1.2479 H   0  0  0  0  0  0  0  0  0  0  0  0
    5.0803   -1.1225    1.6769 H   0  0  0  0  0  0  0  0  0  0  0  0
    1.3131   -1.5634   -1.3283 H   0  0  0  0  0  0  0  0  0  0  0  0
   -1.1237   -1.7369   -1.5374 H   0  0  0  0  0  0  0  0  0  0  0  0
  1  2  1  0
  2  3  1  0
  2  4  1  0
  4  5  2  0
  5  6  1  0
  5  7  1  0
  7  8  2  0
  8  9  1  0
  8 10  1  0
 10 11  1  0
 11 12  2  0
 12 13  1  0
 13 14  2  0
 14 15  1  0
 15 16  1  0
 16 17  1  0
 17 18  2  0
 18 19  1  0
 19 20  2  0
 20 21  1  0
 20 22  1  0
 22 23  1  0
 22 24  2  0
 14 25  1  0
 25 26  2  0
 10  2  1  0
 26 11  1  0
 24 17  1  0
  1 27  1  0
  1 28  1  0
  1 29  1  0
  3 30  1  0
  3 31  1  0
  3 32  1  0
  6 33  1  0
  6 34  1  0
  9 35  1  0
  9 36  1  0
 12 37  1  0
 13 38  1  0
 16 39  1  0
 16 40  1  0
 18 41  1  0
 19 42  1  0
 24 43  1  0
 25 44  1  0
 26 45  1  0
M  END
$$$$
