
     RDKit          3D

 42 44  0  0  0  0  0  0  0  0999 V2000
   -2.4688    4.6058    0.2975 C   0  0  0  0  0  0  0  0  0  0  0  0
   -2.0568    3.6112   -0.6318 O   0  0  0  0  0  0  0  0  0  0  0  0
   -0.7808    3.0415   -0.6078 C   0  0  0  0  0  0  0  0  0  0  0  0
    0.0767    3.4192    0.2369 O   0  0  0  0  0  0  0  0  0  0  0  0
   -0.4247    1.9814   -1.6036 C   0  0  0  0  0  0  0  0  0  0  0  0
   -0.0089    0.7409   -0.9162 N   0  0  0  0  0  0  0  0  0  0  0  0
    1.3338    0.4952   -0.8368 C   0  0  0  0  0  0  0  0  0  0  0  0
    1.8350   -0.6501   -0.2142 C   0  0  0  0  0  0  0  0  0  0  0  0
    3.3027   -0.8737   -0.1713 C   0  0  0  0  0  0  0  0  0  0  0  0
    3.8533   -2.0965   -0.5951 C   0  0  0  0  0  0  0  0  0  0  0  0
    5.2363   -2.2974   -0.5618 C   0  0  0  0  0  0  0  0  0  0  0  0
    6.0820   -1.2813   -0.1101 C   0  0  0  0  0  0  0  0  0  0  0  0
    5.5463   -0.0591    0.3076 C   0  0  0  0  0  0  0  0  0  0  0  0
    6.6091    1.2166    0.8731 Cl  0  0  0  0  0  0  0  0  0  0  0  0
    4.1623    0.1459    0.2753 C   0  0  0  0  0  0  0  0  0  0  0  0
    0.9374   -1.5588    0.3634 C   0  0  0  0  0  0  0  0  0  0  0  0
    1.3881   -2.5782    0.9558 O   0  0  0  0  0  0  0  0  0  0  0  0
   -0.4528   -1.3160    0.3025 C   0  0  0  0  0  0  0  0  0  0  0  0
   -1.3912   -2.2114    0.8769 C   0  0  0  0  0  0  0  0  0  0  0  0
   -0.9739   -3.3835    1.5109 O   0  0  0  0  0  0  0  0  0  0  0  0
   -2.7593   -1.9308    0.8156 C   0  0  0  0  0  0  0  0  0  0  0  0
   -3.2235   -0.7667    0.1927 C   0  0  0  0  0  0  0  0  0  0  0  0
   -4.5882   -0.4473    0.1188 O   0  0  0  0  0  0  0  0  0  0  0  0
   -5.6349   -1.2491    0.6566 C   0  0  0  0  0  0  0  0  0  0  0  0
   -2.3078    0.1164   -0.3785 C   0  0  0  0  0  0  0  0  0  0  0  0
   -0.9154   -0.1340   -0.3456 C   0  0  0  0  0  0  0  0  0  0  0  0
   -1.8192    5.5022    0.2083 H   0  0  0  0  0  0  0  0  0  0  0  0
   -2.4154    4.2044    1.3317 H   0  0  0  0  0  0  0  0  0  0  0  0
   -3.5165    4.8973    0.0787 H   0  0  0  0  0  0  0  0  0  0  0  0
    0.3865    2.3768   -2.2543 H   0  0  0  0  0  0  0  0  0  0  0  0
   -1.2696    1.7840   -2.2964 H   0  0  0  0  0  0  0  0  0  0  0  0
    2.0392    1.1915   -1.2780 H   0  0  0  0  0  0  0  0  0  0  0  0
    3.2144   -2.8888   -0.9649 H   0  0  0  0  0  0  0  0  0  0  0  0
    5.6532   -3.2406   -0.8906 H   0  0  0  0  0  0  0  0  0  0  0  0
    7.1521   -1.4437   -0.0874 H   0  0  0  0  0  0  0  0  0  0  0  0
    3.7571    1.0938    0.6084 H   0  0  0  0  0  0  0  0  0  0  0  0
   -1.6329   -4.0323    1.9256 H   0  0  0  0  0  0  0  0  0  0  0  0
   -3.4554   -2.6281    1.2617 H   0  0  0  0  0  0  0  0  0  0  0  0
   -5.5102   -1.3533    1.7552 H   0  0  0  0  0  0  0  0  0  0  0  0
   -6.6084   -0.7570    0.4551 H   0  0  0  0  0  0  0  0  0  0  0  0
   -5.6359   -2.2495    0.1745 H   0  0  0  0  0  0  0  0  0  0  0  0
   -2.7150    1.0030   -0.8385 H   0  0  0  0  0  0  0  0  0  0  0  0
  1  2  1  0
  2  3  1  0
  3  4  2  0
  3  5  1  0
  5  6  1  0
  6  7  1  0
  7  8  2  0
  8  9  1  0
  9 10  2  0
 10 11  1  0
 11 12  2  0
 12 13  1  0
 13 14  1  0
 13 15  2  0
  8 16  1  0
 16 17  2  0
 16 18  1  0
 18 19  2  0
 19 20  1  0
 19 21  1  0
 21 22  2  0
 22 23  1  0
 23 24  1  0
 22 25  1  0
 25 26  2  0
 26  6  1  0
 15  9  1  0
 26 18  1  0
  1 27  1  0
  1 28  1  0
  1 29  1  0
  5 30  1  0
  5 31  1  0
  7 32  1  0
 10 33  1  0
 11 34  1  0
 12 35  1  0
 15 36  1  0
 20 37  1  0
 21 38  1  0
 24 39  1  0
 24 40  1  0
 24 41  1  0
 25 42  1  0
M  END
$$$$
