
     RDKit          3D

 39 41  0  0  0  0  0  0  0  0999 V2000
   -3.2253    0.9403    2.0408 C   0  0  0  0  0  0  0  0  0  0  0  0
   -3.3182    0.7323    0.5964 N   0  0  0  0  0  0  0  0  0  0  0  0
   -4.6240    0.6987   -0.0591 C   0  0  0  0  0  0  0  0  0  0  0  0
   -2.1261    0.7138   -0.2041 C   0  0  0  0  0  0  0  0  0  0  0  0
   -1.7830    1.8568   -0.9340 C   0  0  0  0  0  0  0  0  0  0  0  0
   -0.6255    1.8806   -1.7061 C   0  0  0  0  0  0  0  0  0  0  0  0
    0.2110    0.7667   -1.7571 C   0  0  0  0  0  0  0  0  0  0  0  0
   -0.0976   -0.4019   -1.0297 C   0  0  0  0  0  0  0  0  0  0  0  0
    0.7445   -1.5468   -1.0557 C   0  0  0  0  0  0  0  0  0  0  0  0
    2.2895   -1.5737   -1.9291 S   0  0  0  0  0  6  0  0  0  0  0  0
    2.0145   -1.4615   -3.4023 O   0  0  0  0  0  0  0  0  0  0  0  0
    3.0287   -2.8583   -1.6766 O   0  0  0  0  0  0  0  0  0  0  0  0
    3.2872   -0.2463   -1.4239 N   0  0  0  0  0  0  0  0  0  0  0  0
    3.4560    0.1349   -0.0490 C   0  0  0  0  0  0  0  0  0  0  0  0
    3.2233   -0.7558    1.0098 C   0  0  0  0  0  0  0  0  0  0  0  0
    3.3912   -0.3447    2.2932 N   0  0  0  0  0  0  0  0  0  0  0  0
    3.7881    0.9226    2.5751 C   0  0  0  0  0  0  0  0  0  0  0  0
    4.0100    1.4692    4.3865 Br  0  0  0  0  0  0  0  0  0  0  0  0
    4.0319    1.7991    1.5675 N   0  0  0  0  0  0  0  0  0  0  0  0
    3.8788    1.4304    0.2695 C   0  0  0  0  0  0  0  0  0  0  0  0
    0.3669   -2.6948   -0.3439 C   0  0  0  0  0  0  0  0  0  0  0  0
   -0.8113   -2.7203    0.3964 C   0  0  0  0  0  0  0  0  0  0  0  0
   -1.6347   -1.5996    0.4469 C   0  0  0  0  0  0  0  0  0  0  0  0
   -1.2923   -0.4287   -0.2531 C   0  0  0  0  0  0  0  0  0  0  0  0
   -2.1751    0.8365    2.3895 H   0  0  0  0  0  0  0  0  0  0  0  0
   -3.5871    1.9588    2.2941 H   0  0  0  0  0  0  0  0  0  0  0  0
   -3.8466    0.1875    2.5702 H   0  0  0  0  0  0  0  0  0  0  0  0
   -4.7338   -0.2535   -0.6195 H   0  0  0  0  0  0  0  0  0  0  0  0
   -5.4446    0.7673    0.6869 H   0  0  0  0  0  0  0  0  0  0  0  0
   -4.7169    1.5508   -0.7648 H   0  0  0  0  0  0  0  0  0  0  0  0
   -2.4153    2.7351   -0.8971 H   0  0  0  0  0  0  0  0  0  0  0  0
   -0.3731    2.7701   -2.2689 H   0  0  0  0  0  0  0  0  0  0  0  0
    1.0895    0.8352   -2.3802 H   0  0  0  0  0  0  0  0  0  0  0  0
    3.6601    0.3801   -2.1721 H   0  0  0  0  0  0  0  0  0  0  0  0
    2.9235   -1.7767    0.8255 H   0  0  0  0  0  0  0  0  0  0  0  0
    4.0761    2.1503   -0.5140 H   0  0  0  0  0  0  0  0  0  0  0  0
    0.9901   -3.5792   -0.3527 H   0  0  0  0  0  0  0  0  0  0  0  0
   -1.0865   -3.6154    0.9394 H   0  0  0  0  0  0  0  0  0  0  0  0
   -2.5438   -1.6598    1.0311 H   0  0  0  0  0  0  0  0  0  0  0  0
  1  2  1  0
  2  3  1  0
  2  4  1  0
  4  5  2  0
  5  6  1  0
  6  7  2  0
  7  8  1  0
  8  9  2  0
  9 10  1  0
 10 11  2  0
 10 12  2  0
 10 13  1  0
 13 14  1  0
 14 15  2  0
 15 16  1  0
 16 17  2  0
 17 18  1  0
 17 19  1  0
 19 20  2  0
  9 21  1  0
 21 22  2  0
 22 23  1  0
 23 24  2  0
 24  4  1  0
 24  8  1  0
 20 14  1  0
  1 25  1  0
  1 26  1  0
  1 27  1  0
  3 28  1  0
  3 29  1  0
  3 30  1  0
  5 31  1  0
  6 32  1  0
  7 33  1  0
 13 34  1  0
 15 35  1  0
 20 36  1  0
 21 37  1  0
 22 38  1  0
 23 39  1  0
M  END
$$$$
