
     RDKit          3D

 52 56  0  0  0  0  0  0  0  0999 V2000
    1.9939   -0.2952   -4.0619 C   0  0  0  0  0  0  0  0  0  0  0  0
    1.6885   -0.9696   -2.8011 N   0  0  0  0  0  0  0  0  0  0  0  0
    0.4330   -1.7090   -2.6463 C   0  0  0  0  0  0  0  0  0  0  0  0
   -0.4578   -1.0002   -1.6627 C   0  0  0  0  0  0  0  0  0  0  0  0
   -1.2830    0.0515   -2.0897 C   0  0  0  0  0  0  0  0  0  0  0  0
   -2.0367    0.7771   -1.1628 C   0  0  0  0  0  0  0  0  0  0  0  0
   -1.9601    0.4701    0.2023 C   0  0  0  0  0  0  0  0  0  0  0  0
   -2.9067    1.3774    1.3747 S   0  0  0  0  0  6  0  0  0  0  0  0
   -3.2779    2.7224    0.8142 O   0  0  0  0  0  0  0  0  0  0  0  0
   -2.0924    1.5986    2.6191 O   0  0  0  0  0  0  0  0  0  0  0  0
   -4.3653    0.4715    1.7573 C   0  0  0  0  0  0  0  0  0  0  0  0
   -4.3917   -0.3946    2.8601 C   0  0  0  0  0  0  0  0  0  0  0  0
   -5.5466   -1.1290    3.1481 C   0  0  0  0  0  0  0  0  0  0  0  0
   -6.6761   -1.0062    2.3334 C   0  0  0  0  0  0  0  0  0  0  0  0
   -6.6509   -0.1508    1.2279 C   0  0  0  0  0  0  0  0  0  0  0  0
   -5.4976    0.5850    0.9377 C   0  0  0  0  0  0  0  0  0  0  0  0
   -1.1390   -0.5805    0.6312 C   0  0  0  0  0  0  0  0  0  0  0  0
   -0.3876   -1.3087   -0.2948 C   0  0  0  0  0  0  0  0  0  0  0  0
    2.6050   -0.8879   -1.6995 C   0  0  0  0  0  0  0  0  0  0  0  0
    3.3607   -2.0356   -1.3198 C   0  0  0  0  0  0  0  0  0  0  0  0
    4.2326   -1.9991   -0.2033 C   0  0  0  0  0  0  0  0  0  0  0  0
    4.3262   -0.8036    0.5082 C   0  0  0  0  0  0  0  0  0  0  0  0
    3.5958    0.2700    0.1301 C   0  0  0  0  0  0  0  0  0  0  0  0
    3.7986    1.2866    0.9940 C   0  0  0  0  0  0  0  0  0  0  0  0
    3.1075    2.4892    0.8436 C   0  0  0  0  0  0  0  0  0  0  0  0
    2.2026    2.5929   -0.2425 C   0  0  0  0  0  0  0  0  0  0  0  0
    2.0066    1.5027   -1.1346 C   0  0  0  0  0  0  0  0  0  0  0  0
    2.7241    0.3012   -0.9394 C   0  0  0  0  0  0  0  0  0  0  0  0
    4.7543    0.7392    1.9669 C   0  0  0  0  0  0  0  0  0  0  0  0
    5.2773    1.4437    3.0905 N   0  0  0  0  0  0  0  0  0  0  0  0
    5.0729   -0.4995    1.6907 N   0  0  0  0  0  0  0  0  0  0  0  0
    2.9736    0.2268   -4.0064 H   0  0  0  0  0  0  0  0  0  0  0  0
    1.2047    0.4526   -4.2873 H   0  0  0  0  0  0  0  0  0  0  0  0
    2.0367   -1.0409   -4.8832 H   0  0  0  0  0  0  0  0  0  0  0  0
    0.6472   -2.7448   -2.3041 H   0  0  0  0  0  0  0  0  0  0  0  0
   -0.0894   -1.7973   -3.6246 H   0  0  0  0  0  0  0  0  0  0  0  0
   -1.3317    0.3181   -3.1382 H   0  0  0  0  0  0  0  0  0  0  0  0
   -2.6722    1.5815   -1.5103 H   0  0  0  0  0  0  0  0  0  0  0  0
   -3.5203   -0.5050    3.4930 H   0  0  0  0  0  0  0  0  0  0  0  0
   -5.5649   -1.7953    4.0009 H   0  0  0  0  0  0  0  0  0  0  0  0
   -7.5688   -1.5760    2.5566 H   0  0  0  0  0  0  0  0  0  0  0  0
   -7.5239   -0.0599    0.5947 H   0  0  0  0  0  0  0  0  0  0  0  0
   -5.4857    1.2380    0.0742 H   0  0  0  0  0  0  0  0  0  0  0  0
   -1.0755   -0.8310    1.6825 H   0  0  0  0  0  0  0  0  0  0  0  0
    0.2626   -2.1008    0.0559 H   0  0  0  0  0  0  0  0  0  0  0  0
    3.2639   -2.9536   -1.8850 H   0  0  0  0  0  0  0  0  0  0  0  0
    4.7977   -2.8723    0.0947 H   0  0  0  0  0  0  0  0  0  0  0  0
    3.2491    3.3087    1.5355 H   0  0  0  0  0  0  0  0  0  0  0  0
    1.6458    3.5092   -0.3883 H   0  0  0  0  0  0  0  0  0  0  0  0
    1.2977    1.6004   -1.9457 H   0  0  0  0  0  0  0  0  0  0  0  0
    5.9512    0.9778    3.7377 H   0  0  0  0  0  0  0  0  0  0  0  0
    4.9917    2.4306    3.2755 H   0  0  0  0  0  0  0  0  0  0  0  0
  1  2  1  0
  2  3  1  0
  3  4  1  0
  4  5  2  0
  5  6  1  0
  6  7  2  0
  7  8  1  0
  8  9  2  0
  8 10  2  0
  8 11  1  0
 11 12  2  0
 12 13  1  0
 13 14  2  0
 14 15  1  0
 15 16  2  0
  7 17  1  0
 17 18  2  0
  2 19  1  0
 19 20  2  0
 20 21  1  0
 21 22  2  0
 22 23  1  0
 23 24  2  0
 24 25  1  0
 25 26  2  0
 26 27  1  0
 27 28  2  0
 24 29  1  0
 29 30  1  0
 29 31  2  0
 18  4  1  0
 28 19  1  0
 16 11  1  0
 31 22  1  0
 28 23  1  0
  1 32  1  0
  1 33  1  0
  1 34  1  0
  3 35  1  0
  3 36  1  0
  5 37  1  0
  6 38  1  0
 12 39  1  0
 13 40  1  0
 14 41  1  0
 15 42  1  0
 16 43  1  0
 17 44  1  0
 18 45  1  0
 20 46  1  0
 21 47  1  0
 25 48  1  0
 26 49  1  0
 27 50  1  0
 30 51  1  0
 30 52  1  0
M  END
$$$$
