
     RDKit          3D

 59 62  0  0  0  0  0  0  0  0999 V2000
    7.6296   -1.9795   -0.5564 C   0  0  0  0  0  0  0  0  0  0  0  0
    6.4130   -1.8105    0.3534 C   0  0  0  0  0  0  0  0  0  0  0  0
    5.4984   -0.7670   -0.1639 N   0  0  0  0  0  0  0  0  0  0  0  0
    6.0607    0.5978    0.0148 C   0  0  0  0  0  0  0  0  0  0  0  0
    6.3110    1.2301   -1.3488 C   0  0  0  0  0  0  0  0  0  0  0  0
    4.1621   -0.8939    0.4612 C   0  0  0  0  0  0  0  0  0  0  0  0
    3.0945   -0.1869   -0.3828 C   0  0  0  0  0  0  0  0  0  0  0  0
    1.7748   -0.3630    0.2215 N   0  0  0  0  0  0  0  0  0  0  0  0
    1.0876    0.6825    0.9326 C   0  0  0  0  0  0  0  0  0  0  0  0
    1.8309    1.6126    1.7263 C   0  0  0  0  0  0  0  0  0  0  0  0
    1.1834    2.6104    2.4890 C   0  0  0  0  0  0  0  0  0  0  0  0
   -0.2044    2.6540    2.4425 C   0  0  0  0  0  0  0  0  0  0  0  0
   -1.0541    3.5004    3.0640 N   0  0  0  0  0  0  0  0  0  0  0  0
   -2.2804    3.0788    2.6342 C   0  0  0  0  0  0  0  0  0  0  0  0
   -2.1979    2.0230    1.7844 N   0  0  0  0  0  0  0  0  0  0  0  0
   -3.1212    1.2916    1.1014 C   0  0  0  0  0  0  0  0  0  0  0  0
   -4.4930    1.5442    1.2060 C   0  0  0  0  0  0  0  0  0  0  0  0
   -5.4078    0.7767    0.4836 C   0  0  0  0  0  0  0  0  0  0  0  0
   -4.9786   -0.2675   -0.3690 C   0  0  0  0  0  0  0  0  0  0  0  0
   -5.9641   -1.1342   -1.1823 C   0  0  0  0  0  0  0  0  0  0  0  0
   -7.4452   -0.7420   -0.9611 C   0  0  0  0  0  0  0  0  0  0  0  0
   -5.6611   -0.9832   -2.6892 C   0  0  0  0  0  0  0  0  0  0  0  0
   -5.8074   -2.6153   -0.7732 C   0  0  0  0  0  0  0  0  0  0  0  0
   -3.5899   -0.5133   -0.4696 C   0  0  0  0  0  0  0  0  0  0  0  0
   -2.6539    0.2481    0.2534 C   0  0  0  0  0  0  0  0  0  0  0  0
   -1.2487    0.0016    0.1472 C   0  0  0  0  0  0  0  0  0  0  0  0
   -0.8273   -0.8925   -0.6352 O   0  0  0  0  0  0  0  0  0  0  0  0
   -0.3374    0.7822    0.9069 C   0  0  0  0  0  0  0  0  0  0  0  0
   -0.8981    1.7792    1.6875 C   0  0  0  0  0  0  0  0  0  0  0  0
    8.2813   -1.0824   -0.5204 H   0  0  0  0  0  0  0  0  0  0  0  0
    7.3013   -2.1531   -1.6031 H   0  0  0  0  0  0  0  0  0  0  0  0
    8.2264   -2.8536   -0.2203 H   0  0  0  0  0  0  0  0  0  0  0  0
    5.9031   -2.7991    0.3776 H   0  0  0  0  0  0  0  0  0  0  0  0
    6.7390   -1.5784    1.3924 H   0  0  0  0  0  0  0  0  0  0  0  0
    5.3805    1.2684    0.5865 H   0  0  0  0  0  0  0  0  0  0  0  0
    7.0180    0.5940    0.5828 H   0  0  0  0  0  0  0  0  0  0  0  0
    7.0337    0.6205   -1.9300 H   0  0  0  0  0  0  0  0  0  0  0  0
    5.3608    1.3027   -1.9181 H   0  0  0  0  0  0  0  0  0  0  0  0
    6.7283    2.2508   -1.2180 H   0  0  0  0  0  0  0  0  0  0  0  0
    4.1709   -0.4964    1.5008 H   0  0  0  0  0  0  0  0  0  0  0  0
    3.8594   -1.9631    0.5240 H   0  0  0  0  0  0  0  0  0  0  0  0
    3.0835   -0.6324   -1.4007 H   0  0  0  0  0  0  0  0  0  0  0  0
    3.3222    0.8933   -0.4993 H   0  0  0  0  0  0  0  0  0  0  0  0
    1.3703   -1.3255    0.2155 H   0  0  0  0  0  0  0  0  0  0  0  0
    2.9092    1.5533    1.7749 H   0  0  0  0  0  0  0  0  0  0  0  0
    1.7473    3.3100    3.0921 H   0  0  0  0  0  0  0  0  0  0  0  0
   -3.2063    3.5475    2.9387 H   0  0  0  0  0  0  0  0  0  0  0  0
   -4.8644    2.3336    1.8452 H   0  0  0  0  0  0  0  0  0  0  0  0
   -6.4522    1.0197    0.6074 H   0  0  0  0  0  0  0  0  0  0  0  0
   -7.7325   -0.8644    0.1057 H   0  0  0  0  0  0  0  0  0  0  0  0
   -7.6280    0.3089   -1.2739 H   0  0  0  0  0  0  0  0  0  0  0  0
   -8.1191   -1.3898   -1.5632 H   0  0  0  0  0  0  0  0  0  0  0  0
   -4.6462   -1.3543   -2.9423 H   0  0  0  0  0  0  0  0  0  0  0  0
   -5.7275    0.0844   -2.9912 H   0  0  0  0  0  0  0  0  0  0  0  0
   -6.3876   -1.5643   -3.2978 H   0  0  0  0  0  0  0  0  0  0  0  0
   -5.9773   -2.7342    0.3189 H   0  0  0  0  0  0  0  0  0  0  0  0
   -6.5410   -3.2534   -1.3123 H   0  0  0  0  0  0  0  0  0  0  0  0
   -4.7948   -3.0018   -1.0124 H   0  0  0  0  0  0  0  0  0  0  0  0
   -3.2340   -1.3049   -1.1150 H   0  0  0  0  0  0  0  0  0  0  0  0
  1  2  1  0
  2  3  1  0
  3  4  1  0
  4  5  1  0
  3  6  1  0
  6  7  1  0
  7  8  1  0
  8  9  1  0
  9 10  2  0
 10 11  1  0
 11 12  2  0
 12 13  1  0
 13 14  2  0
 14 15  1  0
 15 16  1  0
 16 17  2  0
 17 18  1  0
 18 19  2  0
 19 20  1  0
 20 21  1  0
 20 22  1  0
 20 23  1  0
 19 24  1  0
 24 25  2  0
 25 26  1  0
 26 27  2  0
 26 28  1  0
 28 29  2  0
 28  9  1  0
 29 12  1  0
 29 15  1  0
 25 16  1  0
  1 30  1  0
  1 31  1  0
  1 32  1  0
  2 33  1  0
  2 34  1  0
  4 35  1  0
  4 36  1  0
  5 37  1  0
  5 38  1  0
  5 39  1  0
  6 40  1  0
  6 41  1  0
  7 42  1  0
  7 43  1  0
  8 44  1  0
 10 45  1  0
 11 46  1  0
 14 47  1  0
 17 48  1  0
 18 49  1  0
 21 50  1  0
 21 51  1  0
 21 52  1  0
 22 53  1  0
 22 54  1  0
 22 55  1  0
 23 56  1  0
 23 57  1  0
 23 58  1  0
 24 59  1  0
M  END
$$$$
