
     RDKit          3D

 45 48  0  0  0  0  0  0  0  0999 V2000
   -4.0619   -0.5183    2.6549 C   0  0  0  0  0  0  0  0  0  0  0  0
   -3.3921    0.7026    2.1749 N   0  0  0  0  0  0  0  0  0  0  0  0
   -1.9267    0.6139    2.3720 C   0  0  0  0  0  0  0  0  0  0  0  0
   -1.2872   -0.2109    1.2939 C   0  0  0  0  0  0  0  0  0  0  0  0
   -1.6562   -0.0034    0.0280 C   0  0  0  0  0  0  0  0  0  0  0  0
   -1.0600   -0.7858   -1.0802 C   0  0  0  0  0  0  0  0  0  0  0  0
   -1.8823   -1.5618   -1.9095 C   0  0  0  0  0  0  0  0  0  0  0  0
   -3.2564   -1.6245   -1.6744 O   0  0  0  0  0  0  0  0  0  0  0  0
   -1.3248   -2.2809   -2.9687 C   0  0  0  0  0  0  0  0  0  0  0  0
    0.0481   -2.2462   -3.2285 C   0  0  0  0  0  0  0  0  0  0  0  0
    0.4824   -2.9317   -4.3671 O   0  0  0  0  0  0  0  0  0  0  0  0
    0.9101   -1.5151   -2.3603 C   0  0  0  0  0  0  0  0  0  0  0  0
    2.3230   -1.4925   -2.4655 C   0  0  0  0  0  0  0  0  0  0  0  0
    2.9412   -2.1865   -3.3135 O   0  0  0  0  0  0  0  0  0  0  0  0
    3.0708   -0.7034   -1.5923 C   0  0  0  0  0  0  0  0  0  0  0  0
    2.4191    0.0235   -0.5935 C   0  0  0  0  0  0  0  0  0  0  0  0
    3.1657    0.8862    0.3454 C   0  0  0  0  0  0  0  0  0  0  0  0
    2.7216    2.2056    0.5369 C   0  0  0  0  0  0  0  0  0  0  0  0
    3.3955    3.0615    1.4113 C   0  0  0  0  0  0  0  0  0  0  0  0
    4.5116    2.6062    2.1140 C   0  0  0  0  0  0  0  0  0  0  0  0
    4.9492    1.2898    1.9540 C   0  0  0  0  0  0  0  0  0  0  0  0
    4.2816    0.4215    1.0807 C   0  0  0  0  0  0  0  0  0  0  0  0
    4.8209   -1.2539    1.0111 Cl  0  0  0  0  0  0  0  0  0  0  0  0
    1.0980   -0.0354   -0.4933 O   0  0  0  0  0  0  0  0  0  0  0  0
    0.3310   -0.7670   -1.2981 C   0  0  0  0  0  0  0  0  0  0  0  0
   -2.6548    1.0883   -0.2448 C   0  0  0  0  0  0  0  0  0  0  0  0
   -3.8097    1.0415    0.7808 C   0  0  0  0  0  0  0  0  0  0  0  0
   -3.8129   -0.7030    3.7220 H   0  0  0  0  0  0  0  0  0  0  0  0
   -5.1648   -0.3958    2.5956 H   0  0  0  0  0  0  0  0  0  0  0  0
   -3.7604   -1.4020    2.0500 H   0  0  0  0  0  0  0  0  0  0  0  0
   -1.6761    0.1944    3.3711 H   0  0  0  0  0  0  0  0  0  0  0  0
   -1.4979    1.6388    2.3392 H   0  0  0  0  0  0  0  0  0  0  0  0
   -0.5831   -0.9928    1.5530 H   0  0  0  0  0  0  0  0  0  0  0  0
   -3.8717   -2.1795   -2.2576 H   0  0  0  0  0  0  0  0  0  0  0  0
   -1.9714   -2.8586   -3.6179 H   0  0  0  0  0  0  0  0  0  0  0  0
    1.3638   -2.7790   -4.8325 H   0  0  0  0  0  0  0  0  0  0  0  0
    4.1483   -0.6529   -1.6968 H   0  0  0  0  0  0  0  0  0  0  0  0
    1.8589    2.5774   -0.0030 H   0  0  0  0  0  0  0  0  0  0  0  0
    3.0516    4.0792    1.5439 H   0  0  0  0  0  0  0  0  0  0  0  0
    5.0311    3.2702    2.7928 H   0  0  0  0  0  0  0  0  0  0  0  0
    5.8015    0.9397    2.5226 H   0  0  0  0  0  0  0  0  0  0  0  0
   -3.0649    1.0099   -1.2745 H   0  0  0  0  0  0  0  0  0  0  0  0
   -2.1343    2.0678   -0.1687 H   0  0  0  0  0  0  0  0  0  0  0  0
   -4.3026    2.0365    0.7968 H   0  0  0  0  0  0  0  0  0  0  0  0
   -4.5729    0.3266    0.3954 H   0  0  0  0  0  0  0  0  0  0  0  0
  1  2  1  0
  2  3  1  0
  3  4  1  0
  4  5  2  0
  5  6  1  0
  6  7  2  0
  7  8  1  0
  7  9  1  0
  9 10  2  0
 10 11  1  0
 10 12  1  0
 12 13  1  0
 13 14  2  0
 13 15  1  0
 15 16  2  0
 16 17  1  0
 17 18  2  0
 18 19  1  0
 19 20  2  0
 20 21  1  0
 21 22  2  0
 22 23  1  0
 16 24  1  0
 24 25  1  0
  5 26  1  0
 26 27  1  0
 27  2  1  0
 25  6  1  0
 25 12  2  0
 22 17  1  0
  1 28  1  0
  1 29  1  0
  1 30  1  0
  3 31  1  0
  3 32  1  0
  4 33  1  0
  8 34  1  0
  9 35  1  0
 11 36  1  0
 15 37  1  0
 18 38  1  0
 19 39  1  0
 20 40  1  0
 21 41  1  0
 26 42  1  0
 26 43  1  0
 27 44  1  0
 27 45  1  0
M  END
$$$$
