
     RDKit          3D

 54 56  0  0  0  0  0  0  0  0999 V2000
   -4.1773    2.9735    0.7786 C   0  0  0  0  0  0  0  0  0  0  0  0
   -2.7114    2.6989    0.4577 C   0  0  0  0  0  0  0  0  0  0  0  0
   -2.5513    2.1234   -0.9558 C   0  0  0  0  0  0  0  0  0  0  0  0
   -1.0921    1.8605   -1.2740 C   0  0  0  0  0  0  0  0  0  0  0  0
   -0.4070    2.8779   -1.9545 C   0  0  0  0  0  0  0  0  0  0  0  0
    0.9287    2.7056   -2.2941 C   0  0  0  0  0  0  0  0  0  0  0  0
    1.5436    3.6133   -2.9127 O   0  0  0  0  0  0  0  0  0  0  0  0
    1.5609    1.5897   -1.9722 O   0  0  0  0  0  0  0  0  0  0  0  0
    0.9855    0.5884   -1.3106 C   0  0  0  0  0  0  0  0  0  0  0  0
    1.7569   -0.5490   -1.0102 C   0  0  0  0  0  0  0  0  0  0  0  0
    3.1707   -0.6017   -1.4654 C   0  0  0  0  0  0  0  0  0  0  0  0
    3.3948   -0.5325   -2.7044 O   0  0  0  0  0  0  0  0  0  0  0  0
    4.3655   -0.7005   -0.5270 C   0  0  2  0  0  0  0  0  0  0  0  0
    4.9511   -2.1225   -0.5555 C   0  0  0  0  0  0  0  0  0  0  0  0
    4.0875   -0.2246    0.9266 C   0  0  2  0  0  0  0  0  0  0  0  0
    3.8135    1.2847    0.9863 C   0  0  0  0  0  0  0  0  0  0  0  0
    5.2045   -0.5052    1.7327 O   0  0  0  0  0  0  0  0  0  0  0  0
    1.1726   -1.6366   -0.3427 C   0  0  0  0  0  0  0  0  0  0  0  0
    1.9198   -2.8066   -0.1892 O   0  0  0  0  0  0  0  0  0  0  0  0
   -0.1539   -1.5400    0.1260 C   0  0  0  0  0  0  0  0  0  0  0  0
   -0.9286   -0.4012   -0.1705 C   0  0  0  0  0  0  0  0  0  0  0  0
   -0.3754    0.6780   -0.9087 C   0  0  0  0  0  0  0  0  0  0  0  0
   -2.2422   -0.3577    0.3118 O   0  0  0  0  0  0  0  0  0  0  0  0
   -2.9753   -1.5164    0.7223 C   0  0  0  0  0  0  0  0  0  0  0  0
   -3.6843   -2.1144   -0.5000 C   0  0  0  0  0  0  0  0  0  0  0  0
   -4.0086   -1.0878    1.7698 C   0  0  0  0  0  0  0  0  0  0  0  0
   -2.0483   -2.5486    1.3169 C   0  0  0  0  0  0  0  0  0  0  0  0
   -0.7543   -2.5818    0.9942 C   0  0  0  0  0  0  0  0  0  0  0  0
   -4.5912    3.7259    0.0739 H   0  0  0  0  0  0  0  0  0  0  0  0
   -4.7715    2.0389    0.7044 H   0  0  0  0  0  0  0  0  0  0  0  0
   -4.2641    3.3694    1.8123 H   0  0  0  0  0  0  0  0  0  0  0  0
   -2.1441    3.6521    0.5352 H   0  0  0  0  0  0  0  0  0  0  0  0
   -2.3020    1.9966    1.2139 H   0  0  0  0  0  0  0  0  0  0  0  0
   -3.1709    1.2183   -1.1109 H   0  0  0  0  0  0  0  0  0  0  0  0
   -2.9657    2.8601   -1.6798 H   0  0  0  0  0  0  0  0  0  0  0  0
   -0.9086    3.8001   -2.2259 H   0  0  0  0  0  0  0  0  0  0  0  0
    5.1544   -0.0346   -0.9446 H   0  0  0  0  0  0  0  0  0  0  0  0
    4.3568   -2.8189    0.0685 H   0  0  0  0  0  0  0  0  0  0  0  0
    5.9887   -2.1132   -0.1589 H   0  0  0  0  0  0  0  0  0  0  0  0
    4.9956   -2.5120   -1.5953 H   0  0  0  0  0  0  0  0  0  0  0  0
    3.2021   -0.7685    1.3280 H   0  0  0  0  0  0  0  0  0  0  0  0
    3.6454    1.5944    2.0395 H   0  0  0  0  0  0  0  0  0  0  0  0
    2.9096    1.5541    0.4083 H   0  0  0  0  0  0  0  0  0  0  0  0
    4.6801    1.8526    0.5857 H   0  0  0  0  0  0  0  0  0  0  0  0
    4.8924   -0.4962    2.6755 H   0  0  0  0  0  0  0  0  0  0  0  0
    1.5406   -3.6816    0.1441 H   0  0  0  0  0  0  0  0  0  0  0  0
   -4.3623   -1.3619   -0.9571 H   0  0  0  0  0  0  0  0  0  0  0  0
   -2.9397   -2.4195   -1.2666 H   0  0  0  0  0  0  0  0  0  0  0  0
   -4.2826   -3.0057   -0.2114 H   0  0  0  0  0  0  0  0  0  0  0  0
   -4.6048   -1.9591    2.1179 H   0  0  0  0  0  0  0  0  0  0  0  0
   -3.4985   -0.6311    2.6452 H   0  0  0  0  0  0  0  0  0  0  0  0
   -4.7030   -0.3352    1.3404 H   0  0  0  0  0  0  0  0  0  0  0  0
   -2.4530   -3.3298    1.9502 H   0  0  0  0  0  0  0  0  0  0  0  0
   -0.1493   -3.3620    1.4321 H   0  0  0  0  0  0  0  0  0  0  0  0
  1  2  1  0
  2  3  1  0
  3  4  1  0
  4  5  2  0
  5  6  1  0
  6  7  2  0
  6  8  1  0
  8  9  1  0
  9 10  2  0
 10 11  1  0
 11 12  2  0
 11 13  1  0
 13 14  1  0
 13 15  1  0
 15 16  1  0
 15 17  1  0
 10 18  1  0
 18 19  1  0
 18 20  2  0
 20 21  1  0
 21 22  2  0
 21 23  1  0
 23 24  1  0
 24 25  1  0
 24 26  1  0
 24 27  1  0
 27 28  2  0
 22  4  1  0
 22  9  1  0
 28 20  1  0
  1 29  1  0
  1 30  1  0
  1 31  1  0
  2 32  1  0
  2 33  1  0
  3 34  1  0
  3 35  1  0
  5 36  1  0
 13 37  1  6
 14 38  1  0
 14 39  1  0
 14 40  1  0
 15 41  1  1
 16 42  1  0
 16 43  1  0
 16 44  1  0
 17 45  1  0
 19 46  1  0
 25 47  1  0
 25 48  1  0
 25 49  1  0
 26 50  1  0
 26 51  1  0
 26 52  1  0
 27 53  1  0
 28 54  1  0
M  END
$$$$
