
     RDKit          3D

 59 63  0  0  0  0  0  0  0  0999 V2000
    2.4707   -1.8160   -0.6368 C   0  0  0  0  0  0  0  0  0  0  0  0
    1.3115   -1.1549   -0.8204 C   0  0  0  0  0  0  0  0  0  0  0  0
    1.2060    0.3490   -0.7391 C   0  0  0  0  0  0  0  0  0  0  0  0
   -0.0165    0.8341   -1.5253 C   0  0  0  0  0  0  0  0  0  0  0  0
   -1.2717    0.2246   -1.0283 N   0  0  0  0  0  0  0  0  0  0  0  0
   -2.3829    0.5096   -1.9591 C   0  0  0  0  0  0  0  0  0  0  0  0
   -3.7078    0.4008   -1.2494 C   0  0  0  0  0  0  0  0  0  0  0  0
   -4.6292   -0.5960   -1.6019 C   0  0  0  0  0  0  0  0  0  0  0  0
   -5.8531   -0.6942   -0.9341 C   0  0  0  0  0  0  0  0  0  0  0  0
   -6.1818    0.2054    0.0976 C   0  0  0  0  0  0  0  0  0  0  0  0
   -7.4862    0.0920    0.7978 C   0  0  0  0  0  0  0  0  0  0  0  0
   -8.2820   -0.9068    0.6206 N   0  0  0  0  0  0  0  0  0  0  0  0
   -9.4821   -0.7410    1.4313 C   0  0  0  0  0  0  0  0  0  0  0  0
   -9.2908    0.5976    2.1575 C   0  0  0  0  0  0  0  0  0  0  0  0
   -7.9922    1.0557    1.7064 N   0  0  0  0  0  0  0  0  0  0  0  0
   -5.2504    1.1995    0.4506 C   0  0  0  0  0  0  0  0  0  0  0  0
   -4.0263    1.2956   -0.2182 C   0  0  0  0  0  0  0  0  0  0  0  0
   -1.1748   -1.2262   -0.6975 C   0  0  0  0  0  0  0  0  0  0  0  0
    0.0834   -1.9142   -1.2485 C   0  0  0  0  0  0  0  0  0  0  0  0
    3.7452   -1.1830   -0.2358 C   0  0  0  0  0  0  0  0  0  0  0  0
    4.9132   -1.4873   -0.9467 C   0  0  0  0  0  0  0  0  0  0  0  0
    6.1387   -0.9288   -0.5709 C   0  0  0  0  0  0  0  0  0  0  0  0
    6.2210   -0.0668    0.5377 C   0  0  0  0  0  0  0  0  0  0  0  0
    7.5156    0.5297    0.9502 C   0  0  0  0  0  0  0  0  0  0  0  0
    7.6697    1.1395    2.0755 N   0  0  0  0  0  0  0  0  0  0  0  0
    9.0406    1.6180    2.2021 C   0  0  0  0  0  0  0  0  0  0  0  0
    9.7315    1.1980    0.8975 C   0  0  0  0  0  0  0  0  0  0  0  0
    8.6939    0.5019    0.1630 N   0  0  0  0  0  0  0  0  0  0  0  0
    5.0512    0.2075    1.2698 C   0  0  0  0  0  0  0  0  0  0  0  0
    3.8272   -0.3510    0.8914 C   0  0  0  0  0  0  0  0  0  0  0  0
    2.5037   -2.8781   -0.8520 H   0  0  0  0  0  0  0  0  0  0  0  0
    2.1098    0.8256   -1.1771 H   0  0  0  0  0  0  0  0  0  0  0  0
    1.1059    0.6618    0.3214 H   0  0  0  0  0  0  0  0  0  0  0  0
    0.1330    0.6011   -2.6055 H   0  0  0  0  0  0  0  0  0  0  0  0
   -0.0817    1.9396   -1.4220 H   0  0  0  0  0  0  0  0  0  0  0  0
   -2.3067    1.5487   -2.3525 H   0  0  0  0  0  0  0  0  0  0  0  0
   -2.3356   -0.1703   -2.8403 H   0  0  0  0  0  0  0  0  0  0  0  0
   -4.4006   -1.3003   -2.3924 H   0  0  0  0  0  0  0  0  0  0  0  0
   -6.5449   -1.4734   -1.2302 H   0  0  0  0  0  0  0  0  0  0  0  0
  -10.3791   -0.7147    0.7756 H   0  0  0  0  0  0  0  0  0  0  0  0
   -9.5649   -1.5785    2.1570 H   0  0  0  0  0  0  0  0  0  0  0  0
   -9.2844    0.4614    3.2604 H   0  0  0  0  0  0  0  0  0  0  0  0
  -10.0739    1.3276    1.8606 H   0  0  0  0  0  0  0  0  0  0  0  0
   -7.5659    1.9743    1.9564 H   0  0  0  0  0  0  0  0  0  0  0  0
   -5.4518    1.8992    1.2490 H   0  0  0  0  0  0  0  0  0  0  0  0
   -3.3223    2.0665    0.0710 H   0  0  0  0  0  0  0  0  0  0  0  0
   -1.1662   -1.3217    0.4099 H   0  0  0  0  0  0  0  0  0  0  0  0
   -2.0634   -1.7982   -1.0456 H   0  0  0  0  0  0  0  0  0  0  0  0
    0.0383   -1.9496   -2.3584 H   0  0  0  0  0  0  0  0  0  0  0  0
    0.1102   -2.9588   -0.8666 H   0  0  0  0  0  0  0  0  0  0  0  0
    4.8743   -2.1533   -1.8002 H   0  0  0  0  0  0  0  0  0  0  0  0
    7.0172   -1.1915   -1.1427 H   0  0  0  0  0  0  0  0  0  0  0  0
    9.5257    1.1401    3.0803 H   0  0  0  0  0  0  0  0  0  0  0  0
    9.0454    2.7228    2.3183 H   0  0  0  0  0  0  0  0  0  0  0  0
   10.5834    0.5128    1.0945 H   0  0  0  0  0  0  0  0  0  0  0  0
   10.0720    2.0858    0.3230 H   0  0  0  0  0  0  0  0  0  0  0  0
    8.7972    0.1303   -0.8067 H   0  0  0  0  0  0  0  0  0  0  0  0
    5.0816    0.8513    2.1400 H   0  0  0  0  0  0  0  0  0  0  0  0
    2.9520   -0.1528    1.4953 H   0  0  0  0  0  0  0  0  0  0  0  0
  1  2  2  3
  2  3  1  0
  3  4  1  0
  4  5  1  0
  5  6  1  0
  6  7  1  0
  7  8  2  0
  8  9  1  0
  9 10  2  0
 10 11  1  0
 11 12  2  0
 12 13  1  0
 13 14  1  0
 14 15  1  0
 10 16  1  0
 16 17  2  0
  5 18  1  0
 18 19  1  0
  1 20  1  0
 20 21  2  0
 21 22  1  0
 22 23  2  0
 23 24  1  0
 24 25  2  0
 25 26  1  0
 26 27  1  0
 27 28  1  0
 23 29  1  0
 29 30  2  0
 19  2  1  0
 30 20  1  0
 17  7  1  0
 28 24  1  0
 15 11  1  0
  1 31  1  0
  3 32  1  0
  3 33  1  0
  4 34  1  0
  4 35  1  0
  6 36  1  0
  6 37  1  0
  8 38  1  0
  9 39  1  0
 13 40  1  0
 13 41  1  0
 14 42  1  0
 14 43  1  0
 15 44  1  0
 16 45  1  0
 17 46  1  0
 18 47  1  0
 18 48  1  0
 19 49  1  0
 19 50  1  0
 21 51  1  0
 22 52  1  0
 26 53  1  0
 26 54  1  0
 27 55  1  0
 27 56  1  0
 28 57  1  0
 29 58  1  0
 30 59  1  0
M  END
$$$$
