
     RDKit          3D

 51 54  0  0  0  0  0  0  0  0999 V2000
   -5.4261   -2.6800   -0.9269 C   0  0  0  0  0  0  0  0  0  0  0  0
   -5.2401   -1.9961    0.4227 C   0  0  0  0  0  0  0  0  0  0  0  0
   -3.8414   -1.6187    0.6094 N   0  0  0  0  0  0  0  0  0  0  0  0
   -2.9383   -2.3701    1.2310 N   0  0  0  0  0  0  0  0  0  0  0  0
   -1.7432   -1.7276    1.1795 C   0  0  0  0  0  0  0  0  0  0  0  0
   -1.9108   -0.5430    0.4852 C   0  0  0  0  0  0  0  0  0  0  0  0
   -1.0538    0.5087    0.1578 C   0  0  0  0  0  0  0  0  0  0  0  0
    0.3322    0.4792    0.5285 N   0  0  0  0  0  0  0  0  0  0  0  0
    1.2618   -0.4962   -0.0537 C   0  0  1  0  0  0  0  0  0  0  0  0
    1.4929   -0.1698   -1.5399 C   0  0  0  0  0  0  0  0  0  0  0  0
    2.5649   -0.5931    0.7983 C   0  0  0  0  0  0  0  0  0  0  0  0
    3.4401   -1.8000    0.3955 C   0  0  0  0  0  0  0  0  0  0  0  0
    4.5739   -2.0383    1.4152 C   0  0  0  0  0  0  0  0  0  0  0  0
    5.0925   -0.7401    2.0714 C   0  0  0  0  0  0  0  0  0  0  0  0
    4.8978    0.4780    1.1604 C   0  0  0  0  0  0  0  0  0  0  0  0
    3.4071    0.7168    0.8355 C   0  0  0  0  0  0  0  0  0  0  0  0
   -1.6231    1.6147   -0.5298 C   0  0  0  0  0  0  0  0  0  0  0  0
   -0.8508    2.7265   -0.9162 C   0  0  0  0  0  0  0  0  0  0  0  0
   -1.4432    3.7975   -1.5988 C   0  0  0  0  0  0  0  0  0  0  0  0
   -0.6450    4.9346   -1.9803 C   0  0  0  0  0  0  0  0  0  0  0  0
   -0.0024    5.8487   -2.2851 N   0  0  0  0  0  0  0  0  0  0  0  0
   -2.8089    3.7668   -1.9079 C   0  0  0  0  0  0  0  0  0  0  0  0
   -3.5914    2.6685   -1.5406 C   0  0  0  0  0  0  0  0  0  0  0  0
   -3.0181    1.5906   -0.8585 C   0  0  0  0  0  0  0  0  0  0  0  0
   -3.7975    0.5228   -0.5082 N   0  0  0  0  0  0  0  0  0  0  0  0
   -3.2295   -0.5152    0.1519 C   0  0  0  0  0  0  0  0  0  0  0  0
   -4.7970   -3.5945   -0.9812 H   0  0  0  0  0  0  0  0  0  0  0  0
   -5.1387   -1.9886   -1.7487 H   0  0  0  0  0  0  0  0  0  0  0  0
   -6.4918   -2.9674   -1.0577 H   0  0  0  0  0  0  0  0  0  0  0  0
   -5.8862   -1.0925    0.4741 H   0  0  0  0  0  0  0  0  0  0  0  0
   -5.5520   -2.6889    1.2349 H   0  0  0  0  0  0  0  0  0  0  0  0
   -0.8313   -2.0973    1.6294 H   0  0  0  0  0  0  0  0  0  0  0  0
    0.7068    1.2961    1.0664 H   0  0  0  0  0  0  0  0  0  0  0  0
    0.7817   -1.4983   -0.0195 H   0  0  0  0  0  0  0  0  0  0  0  0
    2.2574   -0.8367   -1.9865 H   0  0  0  0  0  0  0  0  0  0  0  0
    0.5457   -0.3309   -2.1017 H   0  0  0  0  0  0  0  0  0  0  0  0
    1.7951    0.8881   -1.6815 H   0  0  0  0  0  0  0  0  0  0  0  0
    2.2282   -0.7939    1.8420 H   0  0  0  0  0  0  0  0  0  0  0  0
    3.8949   -1.6159   -0.6015 H   0  0  0  0  0  0  0  0  0  0  0  0
    2.8221   -2.7222    0.3230 H   0  0  0  0  0  0  0  0  0  0  0  0
    4.2123   -2.7213    2.2165 H   0  0  0  0  0  0  0  0  0  0  0  0
    5.4144   -2.5526    0.8984 H   0  0  0  0  0  0  0  0  0  0  0  0
    6.1717   -0.8523    2.3176 H   0  0  0  0  0  0  0  0  0  0  0  0
    4.5489   -0.5656    3.0270 H   0  0  0  0  0  0  0  0  0  0  0  0
    5.3197    1.3802    1.6546 H   0  0  0  0  0  0  0  0  0  0  0  0
    5.4643    0.3174    0.2156 H   0  0  0  0  0  0  0  0  0  0  0  0
    3.3580    1.2604   -0.1299 H   0  0  0  0  0  0  0  0  0  0  0  0
    2.9830    1.3912    1.6103 H   0  0  0  0  0  0  0  0  0  0  0  0
    0.2092    2.7682   -0.6952 H   0  0  0  0  0  0  0  0  0  0  0  0
   -3.2697    4.5945   -2.4349 H   0  0  0  0  0  0  0  0  0  0  0  0
   -4.6462    2.6578   -1.7872 H   0  0  0  0  0  0  0  0  0  0  0  0
  1  2  1  0
  2  3  1  0
  3  4  1  0
  4  5  2  0
  5  6  1  0
  6  7  2  0
  7  8  1  0
  8  9  1  0
  9 10  1  0
  9 11  1  0
 11 12  1  0
 12 13  1  0
 13 14  1  0
 14 15  1  0
 15 16  1  0
  7 17  1  0
 17 18  2  0
 18 19  1  0
 19 20  1  0
 20 21  3  0
 19 22  2  0
 22 23  1  0
 23 24  2  0
 24 25  1  0
 25 26  2  0
 26  3  1  0
 26  6  1  0
 16 11  1  0
 24 17  1  0
  1 27  1  0
  1 28  1  0
  1 29  1  0
  2 30  1  0
  2 31  1  0
  5 32  1  0
  8 33  1  0
  9 34  1  6
 10 35  1  0
 10 36  1  0
 10 37  1  0
 11 38  1  0
 12 39  1  0
 12 40  1  0
 13 41  1  0
 13 42  1  0
 14 43  1  0
 14 44  1  0
 15 45  1  0
 15 46  1  0
 16 47  1  0
 16 48  1  0
 18 49  1  0
 22 50  1  0
 23 51  1  0
M  END
$$$$
