
     RDKit          3D

 63 63  0  0  0  0  0  0  0  0999 V2000
   -5.3292    3.3650    1.8706 C   0  0  0  0  0  0  0  0  0  0  0  0
   -4.6141    2.0781    2.2807 C   0  0  0  0  0  0  0  0  0  0  0  0
   -3.3323    1.8172    1.4719 C   0  0  0  0  0  0  0  0  0  0  0  0
   -3.5219    1.6532   -0.0543 C   0  0  0  0  0  0  0  0  0  0  0  0
   -4.3878    0.4471   -0.5284 C   0  0  0  0  0  0  0  0  0  0  0  0
   -4.3316    0.3887   -2.0712 C   0  0  0  0  0  0  0  0  0  0  0  0
   -5.7233    0.6861   -0.1525 O   0  0  0  0  0  0  0  0  0  0  0  0
   -3.9154   -0.9059    0.0854 C   0  0  0  0  0  0  0  0  0  0  0  0
   -2.4440   -1.1754   -0.1017 C   0  0  0  0  0  0  0  0  0  0  0  0
   -1.9612   -1.7629   -1.2053 C   0  0  0  0  0  0  0  0  0  0  0  0
   -0.4738   -1.9392   -1.4049 C   0  0  1  0  0  0  0  0  0  0  0  0
   -0.1496   -3.0368   -2.4430 C   0  0  2  0  0  0  0  0  0  0  0  0
   -0.0068   -4.2912   -1.8310 O   0  0  0  0  0  0  0  0  0  0  0  0
    1.1605   -2.6194   -3.1106 C   0  0  0  0  0  0  0  0  0  0  0  0
    1.2088   -1.1531   -2.9014 C   0  0  0  0  0  0  0  0  0  0  0  0
    1.9919   -0.4247   -3.4914 O   0  0  0  0  0  0  0  0  0  0  0  0
    0.1874   -0.6495   -1.9403 C   0  0  2  0  0  0  0  0  0  0  0  0
    0.7786    0.2685   -0.8419 C   0  0  0  0  0  0  0  0  0  0  0  0
    2.0200   -0.2941   -0.1234 C   0  0  0  0  0  0  0  0  0  0  0  0
    2.4737    0.6324    0.9777 C   0  0  0  0  0  0  0  0  0  0  0  0
    3.5505    0.3958    1.7485 C   0  0  0  0  0  0  0  0  0  0  0  0
    4.4783   -0.7833    1.5753 C   0  0  0  0  0  0  0  0  0  0  0  0
    5.6158   -0.4673    0.5969 C   0  0  0  0  0  0  0  0  0  0  0  0
    6.5480    0.5611    1.1605 C   0  0  0  0  0  0  0  0  0  0  0  0
    6.4349    1.7687    0.8131 O   0  0  0  0  0  0  0  0  0  0  0  0
    7.5097    0.1752    2.0990 O   0  0  0  0  0  0  0  0  0  0  0  0
    8.3892    1.1041    2.7212 C   0  0  0  0  0  0  0  0  0  0  0  0
   -6.1507    3.5767    2.5880 H   0  0  0  0  0  0  0  0  0  0  0  0
   -5.7728    3.2647    0.8589 H   0  0  0  0  0  0  0  0  0  0  0  0
   -4.6226    4.2223    1.8808 H   0  0  0  0  0  0  0  0  0  0  0  0
   -5.3079    1.2163    2.2112 H   0  0  0  0  0  0  0  0  0  0  0  0
   -4.3296    2.1694    3.3512 H   0  0  0  0  0  0  0  0  0  0  0  0
   -2.8235    0.9248    1.8893 H   0  0  0  0  0  0  0  0  0  0  0  0
   -2.6364    2.6687    1.6392 H   0  0  0  0  0  0  0  0  0  0  0  0
   -2.5052    1.5624   -0.4971 H   0  0  0  0  0  0  0  0  0  0  0  0
   -3.9442    2.5934   -0.4695 H   0  0  0  0  0  0  0  0  0  0  0  0
   -4.7899    1.3033   -2.5051 H   0  0  0  0  0  0  0  0  0  0  0  0
   -3.2853    0.3261   -2.4372 H   0  0  0  0  0  0  0  0  0  0  0  0
   -4.8944   -0.4899   -2.4519 H   0  0  0  0  0  0  0  0  0  0  0  0
   -6.2736   -0.0867   -0.4492 H   0  0  0  0  0  0  0  0  0  0  0  0
   -4.1315   -0.9065    1.1752 H   0  0  0  0  0  0  0  0  0  0  0  0
   -4.5053   -1.7483   -0.3401 H   0  0  0  0  0  0  0  0  0  0  0  0
   -1.7648   -0.8889    0.6955 H   0  0  0  0  0  0  0  0  0  0  0  0
   -2.6482   -2.0792   -1.9861 H   0  0  0  0  0  0  0  0  0  0  0  0
   -0.0221   -2.2476   -0.4385 H   0  0  0  0  0  0  0  0  0  0  0  0
   -0.9375   -3.0830   -3.2326 H   0  0  0  0  0  0  0  0  0  0  0  0
   -0.9212   -4.5898   -1.5856 H   0  0  0  0  0  0  0  0  0  0  0  0
    2.0394   -3.0890   -2.6185 H   0  0  0  0  0  0  0  0  0  0  0  0
    1.1493   -2.8672   -4.1939 H   0  0  0  0  0  0  0  0  0  0  0  0
   -0.5528   -0.0580   -2.5254 H   0  0  0  0  0  0  0  0  0  0  0  0
   -0.0129    0.4924   -0.0957 H   0  0  0  0  0  0  0  0  0  0  0  0
    1.0565    1.2368   -1.3137 H   0  0  0  0  0  0  0  0  0  0  0  0
    2.8459   -0.4154   -0.8541 H   0  0  0  0  0  0  0  0  0  0  0  0
    1.7906   -1.2809    0.3242 H   0  0  0  0  0  0  0  0  0  0  0  0
    1.8998    1.5337    1.1766 H   0  0  0  0  0  0  0  0  0  0  0  0
    3.7935    1.1157    2.5252 H   0  0  0  0  0  0  0  0  0  0  0  0
    3.9237   -1.6779    1.2209 H   0  0  0  0  0  0  0  0  0  0  0  0
    4.9072   -1.0505    2.5665 H   0  0  0  0  0  0  0  0  0  0  0  0
    6.1909   -1.3978    0.4024 H   0  0  0  0  0  0  0  0  0  0  0  0
    5.2063   -0.1195   -0.3757 H   0  0  0  0  0  0  0  0  0  0  0  0
    7.8064    1.8404    3.3130 H   0  0  0  0  0  0  0  0  0  0  0  0
    8.9922    1.6335    1.9529 H   0  0  0  0  0  0  0  0  0  0  0  0
    9.0743    0.5571    3.3994 H   0  0  0  0  0  0  0  0  0  0  0  0
  1  2  1  0
  2  3  1  0
  3  4  1  0
  4  5  1  0
  5  6  1  0
  5  7  1  0
  5  8  1  0
  8  9  1  0
  9 10  2  0
 10 11  1  0
 11 12  1  0
 12 13  1  0
 12 14  1  0
 14 15  1  0
 15 16  2  0
 15 17  1  0
 17 18  1  0
 18 19  1  0
 19 20  1  0
 20 21  2  0
 21 22  1  0
 22 23  1  0
 23 24  1  0
 24 25  2  0
 24 26  1  0
 26 27  1  0
 17 11  1  0
  1 28  1  0
  1 29  1  0
  1 30  1  0
  2 31  1  0
  2 32  1  0
  3 33  1  0
  3 34  1  0
  4 35  1  0
  4 36  1  0
  6 37  1  0
  6 38  1  0
  6 39  1  0
  7 40  1  0
  8 41  1  0
  8 42  1  0
  9 43  1  0
 10 44  1  0
 11 45  1  1
 12 46  1  6
 13 47  1  0
 14 48  1  0
 14 49  1  0
 17 50  1  6
 18 51  1  0
 18 52  1  0
 19 53  1  0
 19 54  1  0
 20 55  1  0
 21 56  1  0
 22 57  1  0
 22 58  1  0
 23 59  1  0
 23 60  1  0
 27 61  1  0
 27 62  1  0
 27 63  1  0
M  END
$$$$
