
     RDKit          3D

 47 50  0  0  0  0  0  0  0  0999 V2000
   -4.9945   -1.5663   -1.3218 C   0  0  0  0  0  0  0  0  0  0  0  0
   -3.6806   -0.7888   -1.2993 C   0  0  0  0  0  0  0  0  0  0  0  0
   -2.5255   -1.6680   -0.9073 C   0  0  0  0  0  0  0  0  0  0  0  0
   -2.3132   -2.7232   -1.5641 O   0  0  0  0  0  0  0  0  0  0  0  0
   -1.5733   -1.2634    0.0920 N   0  0  0  0  0  0  0  0  0  0  0  0
   -0.2220   -1.5364   -0.1275 N   0  0  0  0  0  0  0  0  0  0  0  0
    0.7048   -0.6396    0.0276 C   0  0  0  0  0  0  0  0  0  0  0  0
    2.1160   -1.1036   -0.0187 C   0  0  0  0  0  0  0  0  0  0  0  0
    3.0904   -0.4994    0.7958 C   0  0  0  0  0  0  0  0  0  0  0  0
    4.4149   -0.9451    0.7660 C   0  0  0  0  0  0  0  0  0  0  0  0
    4.7842   -2.0066   -0.0704 C   0  0  0  0  0  0  0  0  0  0  0  0
    6.1395   -2.4618   -0.1003 N   0  0  0  0  0  0  0  0  0  0  0  0
    3.8156   -2.6217   -0.8745 C   0  0  0  0  0  0  0  0  0  0  0  0
    2.4902   -2.1777   -0.8462 C   0  0  0  0  0  0  0  0  0  0  0  0
    0.3906    0.8326    0.0846 C   0  0  0  0  0  0  0  0  0  0  0  0
    1.2859    1.6821   -0.6224 C   0  0  0  0  0  0  0  0  0  0  0  0
    1.0640    3.0488   -0.6331 C   0  0  0  0  0  0  0  0  0  0  0  0
    0.0121    3.6057   -0.0035 C   0  0  0  0  0  0  0  0  0  0  0  0
   -0.9159    2.8438    0.6848 C   0  0  0  0  0  0  0  0  0  0  0  0
   -0.7618    1.4349    0.7306 C   0  0  0  0  0  0  0  0  0  0  0  0
   -1.8515    0.7256    1.5233 C   0  0  0  0  0  0  0  0  0  0  0  0
   -1.9063   -0.7978    1.4418 C   0  0  0  0  0  0  0  0  0  0  0  0
   -3.2312   -1.3675    1.9720 C   0  0  0  0  0  0  0  0  0  0  0  0
    0.0392    4.9762   -0.1779 O   0  0  0  0  0  0  0  0  0  0  0  0
    1.1875    5.2967   -0.9743 C   0  0  0  0  0  0  0  0  0  0  0  0
    1.8135    4.0355   -1.2448 O   0  0  0  0  0  0  0  0  0  0  0  0
   -5.8300   -0.8757   -1.5624 H   0  0  0  0  0  0  0  0  0  0  0  0
   -4.9601   -2.3606   -2.0977 H   0  0  0  0  0  0  0  0  0  0  0  0
   -5.1920   -2.0331   -0.3342 H   0  0  0  0  0  0  0  0  0  0  0  0
   -3.4857   -0.3798   -2.3136 H   0  0  0  0  0  0  0  0  0  0  0  0
   -3.7761    0.0741   -0.6134 H   0  0  0  0  0  0  0  0  0  0  0  0
    2.8239    0.3124    1.4614 H   0  0  0  0  0  0  0  0  0  0  0  0
    5.1521   -0.4658    1.3977 H   0  0  0  0  0  0  0  0  0  0  0  0
    6.4241   -3.2533   -0.7195 H   0  0  0  0  0  0  0  0  0  0  0  0
    6.8683   -2.0104    0.4963 H   0  0  0  0  0  0  0  0  0  0  0  0
    4.0874   -3.4450   -1.5231 H   0  0  0  0  0  0  0  0  0  0  0  0
    1.7600   -2.6653   -1.4802 H   0  0  0  0  0  0  0  0  0  0  0  0
    2.1339    1.2911   -1.1700 H   0  0  0  0  0  0  0  0  0  0  0  0
   -1.7483    3.3370    1.1727 H   0  0  0  0  0  0  0  0  0  0  0  0
   -2.8318    1.1323    1.1932 H   0  0  0  0  0  0  0  0  0  0  0  0
   -1.7416    1.0120    2.5926 H   0  0  0  0  0  0  0  0  0  0  0  0
   -1.1245   -1.1814    2.1380 H   0  0  0  0  0  0  0  0  0  0  0  0
   -3.3079   -1.1789    3.0642 H   0  0  0  0  0  0  0  0  0  0  0  0
   -4.1065   -0.8930    1.4872 H   0  0  0  0  0  0  0  0  0  0  0  0
   -3.2691   -2.4650    1.8059 H   0  0  0  0  0  0  0  0  0  0  0  0
    0.8733    5.7802   -1.9231 H   0  0  0  0  0  0  0  0  0  0  0  0
    1.8781    5.9531   -0.4045 H   0  0  0  0  0  0  0  0  0  0  0  0
  1  2  1  0
  2  3  1  0
  3  4  2  0
  3  5  1  0
  5  6  1  0
  6  7  2  0
  7  8  1  0
  8  9  2  0
  9 10  1  0
 10 11  2  0
 11 12  1  0
 11 13  1  0
 13 14  2  0
  7 15  1  0
 15 16  2  0
 16 17  1  0
 17 18  2  0
 18 19  1  0
 19 20  2  0
 20 21  1  0
 21 22  1  0
 22 23  1  0
 18 24  1  0
 24 25  1  0
 25 26  1  0
 22  5  1  0
 14  8  1  0
 20 15  1  0
 26 17  1  0
  1 27  1  0
  1 28  1  0
  1 29  1  0
  2 30  1  0
  2 31  1  0
  9 32  1  0
 10 33  1  0
 12 34  1  0
 12 35  1  0
 13 36  1  0
 14 37  1  0
 16 38  1  0
 19 39  1  0
 21 40  1  0
 21 41  1  0
 22 42  1  0
 23 43  1  0
 23 44  1  0
 23 45  1  0
 25 46  1  0
 25 47  1  0
M  END
$$$$
