
     RDKit          3D

 73 74  0  0  0  0  0  0  0  0999 V2000
    6.3391   -1.3924   -3.9317 C   0  0  0  0  0  0  0  0  0  0  0  0
    5.7211   -1.6972   -2.6884 O   0  0  0  0  0  0  0  0  0  0  0  0
    6.4028   -2.3265   -1.6408 C   0  0  0  0  0  0  0  0  0  0  0  0
    7.6027   -2.6863   -1.7875 O   0  0  0  0  0  0  0  0  0  0  0  0
    5.7149   -2.6019   -0.3352 C   0  0  0  0  0  0  0  0  0  0  0  0
    4.3323   -1.9422   -0.2517 C   0  0  0  0  0  0  0  0  0  0  0  0
    3.6951   -2.2098    1.0883 C   0  0  0  0  0  0  0  0  0  0  0  0
    3.8823   -1.4590    2.1892 C   0  0  0  0  0  0  0  0  0  0  0  0
    4.6718   -0.1729    2.2289 C   0  0  0  0  0  0  0  0  0  0  0  0
    3.8300    1.0341    1.7820 C   0  0  0  0  0  0  0  0  0  0  0  0
    2.6654    1.3673    2.7454 C   0  0  1  0  0  0  0  0  0  0  0  0
    3.0989    2.1577    3.9370 C   0  0  0  0  0  0  0  0  0  0  0  0
    4.0051    1.8159    4.6808 O   0  0  0  0  0  0  0  0  0  0  0  0
    2.2954    3.3838    4.1684 C   0  0  0  0  0  0  0  0  0  0  0  0
    1.1324    3.2403    3.1903 C   0  0  1  0  0  0  0  0  0  0  0  0
    0.7683    4.4936    2.6737 O   0  0  0  0  0  0  0  0  0  0  0  0
    1.6357    2.2986    2.0792 C   0  0  2  0  0  0  0  0  0  0  0  0
    0.4998    1.5194    1.4601 C   0  0  0  0  0  0  0  0  0  0  0  0
    0.2254    1.5893    0.1495 C   0  0  0  0  0  0  0  0  0  0  0  0
   -0.9308    0.8346   -0.4574 C   0  0  0  0  0  0  0  0  0  0  0  0
   -2.3120    1.4781   -0.1464 C   0  0  0  0  0  0  0  0  0  0  0  0
   -2.3265    2.9386   -0.6553 C   0  0  0  0  0  0  0  0  0  0  0  0
   -2.5191    1.4684    1.2467 O   0  0  0  0  0  0  0  0  0  0  0  0
   -3.4522    0.6910   -0.8595 C   0  0  0  0  0  0  0  0  0  0  0  0
   -3.7117   -0.7119   -0.2621 C   0  0  0  0  0  0  0  0  0  0  0  0
   -4.8336   -1.5193   -0.9610 C   0  0  0  0  0  0  0  0  0  0  0  0
   -6.1679   -0.7534   -1.0603 C   0  0  0  0  0  0  0  0  0  0  0  0
   -7.3099   -1.6771   -1.5315 C   0  0  0  0  0  0  0  0  0  0  0  0
   -6.8406   -2.7963   -2.4853 C   0  0  0  0  0  0  0  0  0  0  0  0
   -5.5895   -2.3909   -3.2738 C   0  0  0  0  0  0  0  0  0  0  0  0
   -4.3997   -2.0772   -2.3425 C   0  0  0  0  0  0  0  0  0  0  0  0
    7.1973   -0.7054   -3.7728 H   0  0  0  0  0  0  0  0  0  0  0  0
    6.6903   -2.3256   -4.4214 H   0  0  0  0  0  0  0  0  0  0  0  0
    5.5996   -0.8962   -4.5938 H   0  0  0  0  0  0  0  0  0  0  0  0
    5.6079   -3.7028   -0.2140 H   0  0  0  0  0  0  0  0  0  0  0  0
    6.3613   -2.2249    0.4874 H   0  0  0  0  0  0  0  0  0  0  0  0
    4.4098   -0.8534   -0.4493 H   0  0  0  0  0  0  0  0  0  0  0  0
    3.6763   -2.3774   -1.0371 H   0  0  0  0  0  0  0  0  0  0  0  0
    3.0852   -3.1037    1.1797 H   0  0  0  0  0  0  0  0  0  0  0  0
    3.4135   -1.7835    3.1135 H   0  0  0  0  0  0  0  0  0  0  0  0
    5.0392   -0.0130    3.2634 H   0  0  0  0  0  0  0  0  0  0  0  0
    5.5758   -0.2523    1.5889 H   0  0  0  0  0  0  0  0  0  0  0  0
    3.4182    0.8256    0.7724 H   0  0  0  0  0  0  0  0  0  0  0  0
    4.4954    1.9197    1.6801 H   0  0  0  0  0  0  0  0  0  0  0  0
    2.1713    0.4380    3.1062 H   0  0  0  0  0  0  0  0  0  0  0  0
    1.9279    3.4302    5.2160 H   0  0  0  0  0  0  0  0  0  0  0  0
    2.9137    4.2780    3.9375 H   0  0  0  0  0  0  0  0  0  0  0  0
    0.2697    2.7828    3.7337 H   0  0  0  0  0  0  0  0  0  0  0  0
   -0.0727    4.3545    2.1661 H   0  0  0  0  0  0  0  0  0  0  0  0
    2.1470    2.9260    1.3108 H   0  0  0  0  0  0  0  0  0  0  0  0
   -0.1082    0.8890    2.1045 H   0  0  0  0  0  0  0  0  0  0  0  0
    0.8499    2.1904   -0.5065 H   0  0  0  0  0  0  0  0  0  0  0  0
   -0.8861   -0.2110   -0.0911 H   0  0  0  0  0  0  0  0  0  0  0  0
   -0.7819    0.8013   -1.5582 H   0  0  0  0  0  0  0  0  0  0  0  0
   -1.5892    3.5569   -0.1015 H   0  0  0  0  0  0  0  0  0  0  0  0
   -2.0830    2.9784   -1.7387 H   0  0  0  0  0  0  0  0  0  0  0  0
   -3.3266    3.3990   -0.5029 H   0  0  0  0  0  0  0  0  0  0  0  0
   -3.3977    1.8968    1.4286 H   0  0  0  0  0  0  0  0  0  0  0  0
   -4.3875    1.2823   -0.7675 H   0  0  0  0  0  0  0  0  0  0  0  0
   -3.2200    0.6142   -1.9414 H   0  0  0  0  0  0  0  0  0  0  0  0
   -2.7857   -1.3208   -0.2968 H   0  0  0  0  0  0  0  0  0  0  0  0
   -3.9875   -0.5982    0.8087 H   0  0  0  0  0  0  0  0  0  0  0  0
   -5.0226   -2.4001   -0.3046 H   0  0  0  0  0  0  0  0  0  0  0  0
   -6.0648    0.0782   -1.7915 H   0  0  0  0  0  0  0  0  0  0  0  0
   -6.4355   -0.3134   -0.0747 H   0  0  0  0  0  0  0  0  0  0  0  0
   -8.0816   -1.0587   -2.0394 H   0  0  0  0  0  0  0  0  0  0  0  0
   -7.7937   -2.1438   -0.6457 H   0  0  0  0  0  0  0  0  0  0  0  0
   -7.6598   -3.0487   -3.1931 H   0  0  0  0  0  0  0  0  0  0  0  0
   -6.6115   -3.7120   -1.8969 H   0  0  0  0  0  0  0  0  0  0  0  0
   -5.3078   -3.2101   -3.9706 H   0  0  0  0  0  0  0  0  0  0  0  0
   -5.8265   -1.4944   -3.8888 H   0  0  0  0  0  0  0  0  0  0  0  0
   -3.7293   -1.3691   -2.8711 H   0  0  0  0  0  0  0  0  0  0  0  0
   -3.8150   -3.0087   -2.1773 H   0  0  0  0  0  0  0  0  0  0  0  0
  1  2  1  0
  2  3  1  0
  3  4  2  0
  3  5  1  0
  5  6  1  0
  6  7  1  0
  7  8  2  0
  8  9  1  0
  9 10  1  0
 10 11  1  0
 11 12  1  0
 12 13  2  0
 12 14  1  0
 14 15  1  0
 15 16  1  0
 15 17  1  0
 17 18  1  0
 18 19  2  0
 19 20  1  0
 20 21  1  0
 21 22  1  0
 21 23  1  0
 21 24  1  0
 24 25  1  0
 25 26  1  0
 26 27  1  0
 27 28  1  0
 28 29  1  0
 29 30  1  0
 30 31  1  0
 17 11  1  0
 31 26  1  0
  1 32  1  0
  1 33  1  0
  1 34  1  0
  5 35  1  0
  5 36  1  0
  6 37  1  0
  6 38  1  0
  7 39  1  0
  8 40  1  0
  9 41  1  0
  9 42  1  0
 10 43  1  0
 10 44  1  0
 11 45  1  1
 14 46  1  0
 14 47  1  0
 15 48  1  1
 16 49  1  0
 17 50  1  6
 18 51  1  0
 19 52  1  0
 20 53  1  0
 20 54  1  0
 22 55  1  0
 22 56  1  0
 22 57  1  0
 23 58  1  0
 24 59  1  0
 24 60  1  0
 25 61  1  0
 25 62  1  0
 26 63  1  0
 27 64  1  0
 27 65  1  0
 28 66  1  0
 28 67  1  0
 29 68  1  0
 29 69  1  0
 30 70  1  0
 30 71  1  0
 31 72  1  0
 31 73  1  0
M  END
$$$$
