
     RDKit          3D

 56 59  0  0  0  0  0  0  0  0999 V2000
    4.7194   -1.9881   -1.4958 C   0  0  0  0  0  0  0  0  0  0  0  0
    4.3289   -0.6871   -0.7960 C   0  0  0  0  0  0  0  0  0  0  0  0
    3.8663   -0.9203    0.6525 C   0  0  0  0  0  0  0  0  0  0  0  0
    2.5094   -1.5983    0.7228 C   0  0  0  0  0  0  0  0  0  0  0  0
    2.5073   -2.9810    0.9565 C   0  0  0  0  0  0  0  0  0  0  0  0
    1.3031   -3.6702    1.0243 C   0  0  0  0  0  0  0  0  0  0  0  0
    1.2991   -4.9116    1.2329 O   0  0  0  0  0  0  0  0  0  0  0  0
    0.1564   -3.0290    0.8720 O   0  0  0  0  0  0  0  0  0  0  0  0
    0.0741   -1.7208    0.6449 C   0  0  0  0  0  0  0  0  0  0  0  0
   -1.2020   -1.1353    0.5025 C   0  0  0  0  0  0  0  0  0  0  0  0
   -1.3018    0.2215    0.1557 C   0  0  0  0  0  0  0  0  0  0  0  0
   -0.1523    1.0150    0.0669 C   0  0  0  0  0  0  0  0  0  0  0  0
    1.1184    0.4539    0.2703 C   0  0  0  0  0  0  0  0  0  0  0  0
    1.2567   -0.9331    0.5429 C   0  0  0  0  0  0  0  0  0  0  0  0
    2.2310    1.2948    0.1543 O   0  0  0  0  0  0  0  0  0  0  0  0
    2.1651    2.7245    0.2055 C   0  0  0  0  0  0  0  0  0  0  0  0
    2.3598    3.1740    1.6591 C   0  0  0  0  0  0  0  0  0  0  0  0
    3.2892    3.2859   -0.6718 C   0  0  0  0  0  0  0  0  0  0  0  0
    0.8301    3.2277   -0.2961 C   0  0  0  0  0  0  0  0  0  0  0  0
   -0.2481    2.4424   -0.3031 C   0  0  0  0  0  0  0  0  0  0  0  0
   -2.5526    0.7914   -0.0981 O   0  0  0  0  0  0  0  0  0  0  0  0
   -3.7292    0.0118   -0.2956 C   0  0  2  0  0  0  0  0  0  0  0  0
   -4.9588    0.9365   -0.2051 C   0  0  0  0  0  0  0  0  0  0  0  0
   -4.8634    2.1087   -1.1815 C   0  0  0  0  0  0  0  0  0  0  0  0
   -3.7539   -1.1298    0.7487 C   0  0  1  0  0  0  0  0  0  0  0  0
   -4.9951   -2.0286    0.5967 C   0  0  0  0  0  0  0  0  0  0  0  0
   -2.4616   -1.9812    0.6312 C   0  0  2  0  0  0  0  0  0  0  0  0
   -2.3567   -2.7957    1.7746 O   0  0  0  0  0  0  0  0  0  0  0  0
    5.5115   -2.5151   -0.9227 H   0  0  0  0  0  0  0  0  0  0  0  0
    5.1090   -1.7600   -2.5102 H   0  0  0  0  0  0  0  0  0  0  0  0
    3.8365   -2.6528   -1.6017 H   0  0  0  0  0  0  0  0  0  0  0  0
    3.5355   -0.1866   -1.3897 H   0  0  0  0  0  0  0  0  0  0  0  0
    5.2141   -0.0152   -0.7812 H   0  0  0  0  0  0  0  0  0  0  0  0
    4.6345   -1.5322    1.1758 H   0  0  0  0  0  0  0  0  0  0  0  0
    3.8611    0.0281    1.2249 H   0  0  0  0  0  0  0  0  0  0  0  0
    3.4372   -3.5245    1.0812 H   0  0  0  0  0  0  0  0  0  0  0  0
    3.3338    2.8068    2.0479 H   0  0  0  0  0  0  0  0  0  0  0  0
    2.3401    4.2829    1.7352 H   0  0  0  0  0  0  0  0  0  0  0  0
    1.5527    2.7594    2.3009 H   0  0  0  0  0  0  0  0  0  0  0  0
    3.3004    4.3970   -0.6395 H   0  0  0  0  0  0  0  0  0  0  0  0
    4.2744    2.9094   -0.3216 H   0  0  0  0  0  0  0  0  0  0  0  0
    3.1493    2.9608   -1.7253 H   0  0  0  0  0  0  0  0  0  0  0  0
    0.7187    4.2742   -0.5549 H   0  0  0  0  0  0  0  0  0  0  0  0
   -1.1996    2.8679   -0.5975 H   0  0  0  0  0  0  0  0  0  0  0  0
   -3.6912   -0.4328   -1.3158 H   0  0  0  0  0  0  0  0  0  0  0  0
   -5.8799    0.3699   -0.4555 H   0  0  0  0  0  0  0  0  0  0  0  0
   -5.0577    1.3336    0.8286 H   0  0  0  0  0  0  0  0  0  0  0  0
   -4.7384    1.7365   -2.2206 H   0  0  0  0  0  0  0  0  0  0  0  0
   -5.7950    2.7108   -1.1301 H   0  0  0  0  0  0  0  0  0  0  0  0
   -4.0077    2.7669   -0.9211 H   0  0  0  0  0  0  0  0  0  0  0  0
   -3.7800   -0.6732    1.7642 H   0  0  0  0  0  0  0  0  0  0  0  0
   -5.9165   -1.4755    0.8712 H   0  0  0  0  0  0  0  0  0  0  0  0
   -4.9339   -2.9011    1.2801 H   0  0  0  0  0  0  0  0  0  0  0  0
   -5.0859   -2.3992   -0.4468 H   0  0  0  0  0  0  0  0  0  0  0  0
   -2.5226   -2.6030   -0.2952 H   0  0  0  0  0  0  0  0  0  0  0  0
   -2.6391   -3.7114    1.5148 H   0  0  0  0  0  0  0  0  0  0  0  0
  1  2  1  0
  2  3  1  0
  3  4  1  0
  4  5  2  0
  5  6  1  0
  6  7  2  0
  6  8  1  0
  8  9  1  0
  9 10  2  0
 10 11  1  0
 11 12  2  0
 12 13  1  0
 13 14  2  0
 13 15  1  0
 15 16  1  0
 16 17  1  0
 16 18  1  0
 16 19  1  0
 19 20  2  0
 11 21  1  0
 21 22  1  0
 22 23  1  0
 23 24  1  0
 22 25  1  0
 25 26  1  0
 25 27  1  0
 27 28  1  0
 14  4  1  0
 14  9  1  0
 27 10  1  0
 20 12  1  0
  1 29  1  0
  1 30  1  0
  1 31  1  0
  2 32  1  0
  2 33  1  0
  3 34  1  0
  3 35  1  0
  5 36  1  0
 17 37  1  0
 17 38  1  0
 17 39  1  0
 18 40  1  0
 18 41  1  0
 18 42  1  0
 19 43  1  0
 20 44  1  0
 22 45  1  6
 23 46  1  0
 23 47  1  0
 24 48  1  0
 24 49  1  0
 24 50  1  0
 25 51  1  1
 26 52  1  0
 26 53  1  0
 26 54  1  0
 27 55  1  6
 28 56  1  0
M  END
$$$$
