
     RDKit          3D

 50 52  0  0  0  0  0  0  0  0999 V2000
    0.5724    2.9568   -2.8876 C   0  0  0  0  0  0  0  0  0  0  0  0
    0.5478    1.8526   -2.4052 C   0  0  0  0  0  0  0  0  0  0  0  0
    0.5186    0.5092   -1.8150 C   0  0  0  0  0  0  0  0  0  0  0  0
    0.0540    0.5666   -0.4199 N   0  0  0  0  0  0  0  0  0  0  0  0
    0.8939    1.2077    0.6072 C   0  0  0  0  0  0  0  0  0  0  0  0
    2.2486    0.5531    0.6937 C   0  0  0  0  0  0  0  0  0  0  0  0
    2.3997   -0.6719    1.3628 C   0  0  0  0  0  0  0  0  0  0  0  0
    3.6473   -1.2988    1.4196 C   0  0  0  0  0  0  0  0  0  0  0  0
    4.7561   -0.7116    0.8032 C   0  0  0  0  0  0  0  0  0  0  0  0
    5.9681   -1.3227    0.8557 N   0  0  0  0  0  0  0  0  0  0  0  0
    7.0597   -0.7668    0.2670 C   0  0  0  0  0  0  0  0  0  0  0  0
    8.3712   -1.4771    0.3067 C   0  0  0  0  0  0  0  0  0  0  0  0
    6.9428    0.4069   -0.4091 N   0  0  0  0  0  0  0  0  0  0  0  0
    5.7537    1.0609   -0.4932 C   0  0  0  0  0  0  0  0  0  0  0  0
    5.6786    2.2648   -1.1898 O   0  0  0  0  0  0  0  0  0  0  0  0
    4.6163    0.5142    0.1206 C   0  0  0  0  0  0  0  0  0  0  0  0
    3.3609    1.1419    0.0679 C   0  0  0  0  0  0  0  0  0  0  0  0
   -1.3141    0.2281   -0.1071 C   0  0  0  0  0  0  0  0  0  0  0  0
   -2.3695    0.6847   -0.9144 C   0  0  0  0  0  0  0  0  0  0  0  0
   -3.6927    0.3537   -0.6090 C   0  0  0  0  0  0  0  0  0  0  0  0
   -3.9896   -0.4385    0.5139 C   0  0  0  0  0  0  0  0  0  0  0  0
   -5.3879   -0.8040    0.8458 C   0  0  0  0  0  0  0  0  0  0  0  0
   -5.6094   -1.8307    1.5451 O   0  0  0  0  0  0  0  0  0  0  0  0
   -6.4916    0.0022    0.4009 N   0  0  0  0  0  0  0  0  0  0  0  0
   -7.8818   -0.4230    0.5530 C   0  0  0  0  0  0  0  0  0  0  0  0
   -8.2170   -1.5258   -0.4451 C   0  0  0  0  0  0  0  0  0  0  0  0
   -2.9315   -0.9062    1.3122 C   0  0  0  0  0  0  0  0  0  0  0  0
   -1.6092   -0.5729    1.0068 C   0  0  0  0  0  0  0  0  0  0  0  0
    0.5941    3.9266   -3.3105 H   0  0  0  0  0  0  0  0  0  0  0  0
   -0.1462   -0.1404   -2.4238 H   0  0  0  0  0  0  0  0  0  0  0  0
    1.5351    0.0677   -1.8648 H   0  0  0  0  0  0  0  0  0  0  0  0
    0.9977    2.2889    0.3710 H   0  0  0  0  0  0  0  0  0  0  0  0
    0.4086    1.1603    1.6062 H   0  0  0  0  0  0  0  0  0  0  0  0
    1.5522   -1.1426    1.8425 H   0  0  0  0  0  0  0  0  0  0  0  0
    3.7491   -2.2424    1.9416 H   0  0  0  0  0  0  0  0  0  0  0  0
    8.4527   -2.1511   -0.5713 H   0  0  0  0  0  0  0  0  0  0  0  0
    8.4536   -2.0780    1.2370 H   0  0  0  0  0  0  0  0  0  0  0  0
    9.2046   -0.7435    0.2825 H   0  0  0  0  0  0  0  0  0  0  0  0
    6.4981    2.6606   -1.6346 H   0  0  0  0  0  0  0  0  0  0  0  0
    3.2410    2.0791   -0.4628 H   0  0  0  0  0  0  0  0  0  0  0  0
   -2.1719    1.3044   -1.7789 H   0  0  0  0  0  0  0  0  0  0  0  0
   -4.4761    0.7030   -1.2682 H   0  0  0  0  0  0  0  0  0  0  0  0
   -6.3151    0.9664    0.0409 H   0  0  0  0  0  0  0  0  0  0  0  0
   -8.0612   -0.7784    1.5906 H   0  0  0  0  0  0  0  0  0  0  0  0
   -8.5538    0.4427    0.3667 H   0  0  0  0  0  0  0  0  0  0  0  0
   -9.2866   -1.8062   -0.3451 H   0  0  0  0  0  0  0  0  0  0  0  0
   -7.5947   -2.4251   -0.2542 H   0  0  0  0  0  0  0  0  0  0  0  0
   -8.0350   -1.1693   -1.4812 H   0  0  0  0  0  0  0  0  0  0  0  0
   -3.1267   -1.5245    2.1796 H   0  0  0  0  0  0  0  0  0  0  0  0
   -0.8149   -0.9517    1.6346 H   0  0  0  0  0  0  0  0  0  0  0  0
  1  2  3  0
  2  3  1  0
  3  4  1  0
  4  5  1  0
  5  6  1  0
  6  7  2  0
  7  8  1  0
  8  9  2  0
  9 10  1  0
 10 11  2  0
 11 12  1  0
 11 13  1  0
 13 14  2  0
 14 15  1  0
 14 16  1  0
 16 17  2  0
  4 18  1  0
 18 19  2  0
 19 20  1  0
 20 21  2  0
 21 22  1  0
 22 23  2  0
 22 24  1  0
 24 25  1  0
 25 26  1  0
 21 27  1  0
 27 28  2  0
 17  6  1  0
 28 18  1  0
 16  9  1  0
  1 29  1  0
  3 30  1  0
  3 31  1  0
  5 32  1  0
  5 33  1  0
  7 34  1  0
  8 35  1  0
 12 36  1  0
 12 37  1  0
 12 38  1  0
 15 39  1  0
 17 40  1  0
 19 41  1  0
 20 42  1  0
 24 43  1  0
 25 44  1  0
 25 45  1  0
 26 46  1  0
 26 47  1  0
 26 48  1  0
 27 49  1  0
 28 50  1  0
M  END
$$$$
