
     RDKit          3D

 42 43  0  0  0  0  0  0  0  0999 V2000
    4.4696   -0.9887    0.2338 C   0  0  0  0  0  0  0  0  0  0  0  0
    3.2596   -1.3587    1.0586 C   0  0  0  0  0  0  0  0  0  0  0  0
    3.2802   -2.6117    1.8952 C   0  0  0  0  0  0  0  0  0  0  0  0
    2.1493   -0.5913    1.0677 C   0  0  0  0  0  0  0  0  0  0  0  0
    2.0222    0.6851    0.2684 C   0  0  0  0  0  0  0  0  0  0  0  0
    0.6343    1.3441    0.4207 C   0  0  1  0  0  0  0  0  0  0  0  0
    0.6136    2.5961   -0.2678 O   0  0  0  0  0  0  0  0  0  0  0  0
    1.2210    3.7623    0.2149 C   0  0  0  0  0  0  0  0  0  0  0  0
    1.8070    3.7610    1.3327 O   0  0  0  0  0  0  0  0  0  0  0  0
    1.2403    4.9955   -0.6397 C   0  0  0  0  0  0  0  0  0  0  0  0
    1.2376    6.4701    0.3651 Cl  0  0  0  0  0  0  0  0  0  0  0  0
    2.7076    4.9826   -1.6457 Cl  0  0  0  0  0  0  0  0  0  0  0  0
   -0.1889    5.0439   -1.7053 Cl  0  0  0  0  0  0  0  0  0  0  0  0
   -0.4692    0.4643   -0.1416 C   0  0  0  0  0  0  0  0  0  0  0  0
   -0.5324    0.2300   -1.4597 C   0  0  0  0  0  0  0  0  0  0  0  0
   -1.5566   -0.6552   -2.0305 C   0  0  0  0  0  0  0  0  0  0  0  0
   -1.3818   -1.0915   -3.1980 O   0  0  0  0  0  0  0  0  0  0  0  0
   -2.7287   -1.0683   -1.2078 C   0  0  0  0  0  0  0  0  0  0  0  0
   -3.8603   -1.7264   -1.7627 C   0  0  0  0  0  0  0  0  0  0  0  0
   -4.0542   -1.8966   -3.1358 O   0  0  0  0  0  0  0  0  0  0  0  0
   -4.8596   -2.2117   -0.9201 C   0  0  0  0  0  0  0  0  0  0  0  0
   -4.8203   -1.9613    0.4455 C   0  0  0  0  0  0  0  0  0  0  0  0
   -3.7791   -1.2214    1.0044 C   0  0  0  0  0  0  0  0  0  0  0  0
   -3.8942   -0.8884    2.3563 O   0  0  0  0  0  0  0  0  0  0  0  0
   -2.6851   -0.8168    0.1914 C   0  0  0  0  0  0  0  0  0  0  0  0
   -1.4622   -0.1738    0.7585 C   0  0  0  0  0  0  0  0  0  0  0  0
   -1.2231   -0.2243    1.9941 O   0  0  0  0  0  0  0  0  0  0  0  0
    4.1998   -0.9581   -0.8426 H   0  0  0  0  0  0  0  0  0  0  0  0
    5.2892   -1.7262    0.3596 H   0  0  0  0  0  0  0  0  0  0  0  0
    4.8531    0.0050    0.5470 H   0  0  0  0  0  0  0  0  0  0  0  0
    4.2441   -3.1535    1.8001 H   0  0  0  0  0  0  0  0  0  0  0  0
    3.1313   -2.3512    2.9646 H   0  0  0  0  0  0  0  0  0  0  0  0
    2.4650   -3.2927    1.5707 H   0  0  0  0  0  0  0  0  0  0  0  0
    1.3103   -0.9045    1.6825 H   0  0  0  0  0  0  0  0  0  0  0  0
    2.2194    0.4752   -0.8044 H   0  0  0  0  0  0  0  0  0  0  0  0
    2.7993    1.3954    0.6214 H   0  0  0  0  0  0  0  0  0  0  0  0
    0.4448    1.5354    1.5003 H   0  0  0  0  0  0  0  0  0  0  0  0
    0.2070    0.6587   -2.1261 H   0  0  0  0  0  0  0  0  0  0  0  0
   -3.5773   -1.3594   -3.8451 H   0  0  0  0  0  0  0  0  0  0  0  0
   -5.7072   -2.7409   -1.3377 H   0  0  0  0  0  0  0  0  0  0  0  0
   -5.6382   -2.2984    1.0701 H   0  0  0  0  0  0  0  0  0  0  0  0
   -3.3872   -0.1337    2.7958 H   0  0  0  0  0  0  0  0  0  0  0  0
  1  2  1  0
  2  3  1  0
  2  4  2  3
  4  5  1  0
  5  6  1  0
  6  7  1  0
  7  8  1  0
  8  9  2  0
  8 10  1  0
 10 11  1  0
 10 12  1  0
 10 13  1  0
  6 14  1  0
 14 15  2  0
 15 16  1  0
 16 17  2  0
 16 18  1  0
 18 19  2  0
 19 20  1  0
 19 21  1  0
 21 22  2  0
 22 23  1  0
 23 24  1  0
 23 25  2  0
 25 26  1  0
 26 27  2  0
 26 14  1  0
 25 18  1  0
  1 28  1  0
  1 29  1  0
  1 30  1  0
  3 31  1  0
  3 32  1  0
  3 33  1  0
  4 34  1  0
  5 35  1  0
  5 36  1  0
  6 37  1  1
 15 38  1  0
 20 39  1  0
 21 40  1  0
 22 41  1  0
 24 42  1  0
M  END
$$$$
