
     RDKit          3D

 45 49  0  0  0  0  0  0  0  0999 V2000
    7.6568    0.0990    1.1206 O   0  0  0  0  0  0  0  0  0  0  0  0
    7.0923    0.9789    0.1877 C   0  0  0  0  0  0  0  0  0  0  0  0
    5.6146    0.7266    0.0684 C   0  0  0  0  0  0  0  0  0  0  0  0
    5.1363   -0.2812   -0.7802 C   0  0  0  0  0  0  0  0  0  0  0  0
    3.7655   -0.5399   -0.8665 C   0  0  0  0  0  0  0  0  0  0  0  0
    2.8470    0.1996   -0.0994 C   0  0  0  0  0  0  0  0  0  0  0  0
    1.3950   -0.0903   -0.2038 C   0  0  0  0  0  0  0  0  0  0  0  0
    0.9065   -1.1565   -0.8757 N   0  0  0  0  0  0  0  0  0  0  0  0
   -0.4317   -1.0587   -0.7471 C   0  0  0  0  0  0  0  0  0  0  0  0
   -1.3535   -2.0763   -1.2864 C   0  0  0  0  0  0  0  0  0  0  0  0
   -2.5239   -2.4460   -0.6029 C   0  0  0  0  0  0  0  0  0  0  0  0
   -3.3515   -3.4320   -1.1434 C   0  0  0  0  0  0  0  0  0  0  0  0
   -3.0019   -4.0519   -2.3435 C   0  0  0  0  0  0  0  0  0  0  0  0
   -1.8187   -3.6796   -2.9840 C   0  0  0  0  0  0  0  0  0  0  0  0
   -1.0268   -2.7148   -2.4443 N   0  0  0  0  0  0  0  0  0  0  0  0
   -0.7354    0.0796   -0.0122 C   0  0  0  0  0  0  0  0  0  0  0  0
   -2.0640    0.6633    0.2688 C   0  0  0  0  0  0  0  0  0  0  0  0
   -3.0721    0.6893   -0.7310 C   0  0  0  0  0  0  0  0  0  0  0  0
   -4.3295    1.2601   -0.4639 C   0  0  0  0  0  0  0  0  0  0  0  0
   -4.5402    1.8052    0.7982 C   0  0  0  0  0  0  0  0  0  0  0  0
   -3.5768    1.7995    1.7532 C   0  0  0  0  0  0  0  0  0  0  0  0
   -2.3199    1.2445    1.5307 C   0  0  0  0  0  0  0  0  0  0  0  0
   -4.0585    2.4072    2.8965 O   0  0  0  0  0  0  0  0  0  0  0  0
   -5.4090    2.8198    2.6436 C   0  0  0  0  0  0  0  0  0  0  0  0
   -5.6759    2.4167    1.2930 O   0  0  0  0  0  0  0  0  0  0  0  0
    0.4196    0.6739    0.3341 N   0  0  0  0  0  0  0  0  0  0  0  0
    3.3351    1.1958    0.7669 C   0  0  0  0  0  0  0  0  0  0  0  0
    4.7068    1.4526    0.8520 C   0  0  0  0  0  0  0  0  0  0  0  0
    7.4069    0.4399    2.0192 H   0  0  0  0  0  0  0  0  0  0  0  0
    7.2917    2.0355    0.4793 H   0  0  0  0  0  0  0  0  0  0  0  0
    7.5819    0.8180   -0.7965 H   0  0  0  0  0  0  0  0  0  0  0  0
    5.8252   -0.8672   -1.3761 H   0  0  0  0  0  0  0  0  0  0  0  0
    3.4252   -1.3190   -1.5371 H   0  0  0  0  0  0  0  0  0  0  0  0
   -2.7859   -1.9945    0.3450 H   0  0  0  0  0  0  0  0  0  0  0  0
   -4.2578   -3.7216   -0.6276 H   0  0  0  0  0  0  0  0  0  0  0  0
   -3.6358   -4.8196   -2.7680 H   0  0  0  0  0  0  0  0  0  0  0  0
   -1.5281   -4.1589   -3.9092 H   0  0  0  0  0  0  0  0  0  0  0  0
   -2.8805    0.2805   -1.7149 H   0  0  0  0  0  0  0  0  0  0  0  0
   -5.1055    1.2815   -1.2175 H   0  0  0  0  0  0  0  0  0  0  0  0
   -1.5724    1.2519    2.3138 H   0  0  0  0  0  0  0  0  0  0  0  0
   -5.4968    3.9224    2.7387 H   0  0  0  0  0  0  0  0  0  0  0  0
   -6.1034    2.3061    3.3410 H   0  0  0  0  0  0  0  0  0  0  0  0
    0.5189    1.5733    0.8537 H   0  0  0  0  0  0  0  0  0  0  0  0
    2.6688    1.7704    1.3940 H   0  0  0  0  0  0  0  0  0  0  0  0
    5.0613    2.2168    1.5329 H   0  0  0  0  0  0  0  0  0  0  0  0
  1  2  1  0
  2  3  1  0
  3  4  2  0
  4  5  1  0
  5  6  2  0
  6  7  1  0
  7  8  2  0
  8  9  1  0
  9 10  1  0
 10 11  2  0
 11 12  1  0
 12 13  2  0
 13 14  1  0
 14 15  2  0
  9 16  2  0
 16 17  1  0
 17 18  2  0
 18 19  1  0
 19 20  2  0
 20 21  1  0
 21 22  2  0
 21 23  1  0
 23 24  1  0
 24 25  1  0
 16 26  1  0
  6 27  1  0
 27 28  2  0
 28  3  1  0
 26  7  1  0
 15 10  1  0
 22 17  1  0
 25 20  1  0
  1 29  1  0
  2 30  1  0
  2 31  1  0
  4 32  1  0
  5 33  1  0
 11 34  1  0
 12 35  1  0
 13 36  1  0
 14 37  1  0
 18 38  1  0
 19 39  1  0
 22 40  1  0
 24 41  1  0
 24 42  1  0
 26 43  1  0
 27 44  1  0
 28 45  1  0
M  END
$$$$
