
     RDKit          3D

 45 49  0  0  0  0  0  0  0  0999 V2000
    7.5939   -0.5458   -2.1119 N   0  0  0  0  0  0  0  0  0  0  0  0
    7.0623   -0.0494   -0.8798 C   0  0  0  0  0  0  0  0  0  0  0  0
    7.8613    0.3505    0.0096 O   0  0  0  0  0  0  0  0  0  0  0  0
    5.6003    0.0185   -0.6363 C   0  0  0  0  0  0  0  0  0  0  0  0
    4.7039   -0.8046   -1.3391 C   0  0  0  0  0  0  0  0  0  0  0  0
    3.3291   -0.7322   -1.0948 C   0  0  0  0  0  0  0  0  0  0  0  0
    2.8173    0.1610   -0.1359 C   0  0  0  0  0  0  0  0  0  0  0  0
    1.3605    0.2555    0.1409 C   0  0  0  0  0  0  0  0  0  0  0  0
    0.8409    1.1212    1.0396 N   0  0  0  0  0  0  0  0  0  0  0  0
   -0.4876    0.8977    1.0039 C   0  0  0  0  0  0  0  0  0  0  0  0
   -1.4439    1.6904    1.7997 C   0  0  0  0  0  0  0  0  0  0  0  0
   -2.7061    2.0447    1.2957 C   0  0  0  0  0  0  0  0  0  0  0  0
   -3.5656    2.8167    2.0795 C   0  0  0  0  0  0  0  0  0  0  0  0
   -3.1592    3.2429    3.3443 C   0  0  0  0  0  0  0  0  0  0  0  0
   -1.8886    2.8943    3.8055 C   0  0  0  0  0  0  0  0  0  0  0  0
   -1.0662    2.1394    3.0291 N   0  0  0  0  0  0  0  0  0  0  0  0
   -0.7531   -0.1146    0.0918 C   0  0  0  0  0  0  0  0  0  0  0  0
   -2.0420   -0.7804   -0.1908 C   0  0  0  0  0  0  0  0  0  0  0  0
   -2.9378   -1.1040    0.8624 C   0  0  0  0  0  0  0  0  0  0  0  0
   -4.1564   -1.7514    0.5906 C   0  0  0  0  0  0  0  0  0  0  0  0
   -4.4400   -2.0727   -0.7327 C   0  0  0  0  0  0  0  0  0  0  0  0
   -3.5815   -1.7830   -1.7422 C   0  0  0  0  0  0  0  0  0  0  0  0
   -2.3671   -1.1417   -1.5170 C   0  0  0  0  0  0  0  0  0  0  0  0
   -4.1144   -2.2203   -2.9395 O   0  0  0  0  0  0  0  0  0  0  0  0
   -5.3868   -2.8231   -2.6640 C   0  0  0  0  0  0  0  0  0  0  0  0
   -5.5558   -2.7062   -1.2445 O   0  0  0  0  0  0  0  0  0  0  0  0
    0.4127   -0.5021   -0.4540 N   0  0  0  0  0  0  0  0  0  0  0  0
    3.7167    0.9762    0.5731 C   0  0  0  0  0  0  0  0  0  0  0  0
    5.0907    0.9029    0.3290 C   0  0  0  0  0  0  0  0  0  0  0  0
    6.9841   -0.7465   -2.9344 H   0  0  0  0  0  0  0  0  0  0  0  0
    8.6269   -0.6363   -2.2327 H   0  0  0  0  0  0  0  0  0  0  0  0
    5.0585   -1.5251   -2.0631 H   0  0  0  0  0  0  0  0  0  0  0  0
    2.6793   -1.3833   -1.6606 H   0  0  0  0  0  0  0  0  0  0  0  0
   -3.0173    1.7472    0.3033 H   0  0  0  0  0  0  0  0  0  0  0  0
   -4.5421    3.0919    1.7023 H   0  0  0  0  0  0  0  0  0  0  0  0
   -3.8183    3.8440    3.9573 H   0  0  0  0  0  0  0  0  0  0  0  0
   -1.5549    3.2259    4.7793 H   0  0  0  0  0  0  0  0  0  0  0  0
   -2.6870   -0.8676    1.8884 H   0  0  0  0  0  0  0  0  0  0  0  0
   -4.8472   -2.0001    1.3856 H   0  0  0  0  0  0  0  0  0  0  0  0
   -1.7043   -0.9204   -2.3436 H   0  0  0  0  0  0  0  0  0  0  0  0
   -6.1938   -2.2736   -3.1921 H   0  0  0  0  0  0  0  0  0  0  0  0
   -5.3762   -3.8925   -2.9605 H   0  0  0  0  0  0  0  0  0  0  0  0
    0.5402   -1.2671   -1.1513 H   0  0  0  0  0  0  0  0  0  0  0  0
    3.3598    1.6743    1.3196 H   0  0  0  0  0  0  0  0  0  0  0  0
    5.7550    1.5485    0.8905 H   0  0  0  0  0  0  0  0  0  0  0  0
  1  2  1  0
  2  3  2  0
  2  4  1  0
  4  5  2  0
  5  6  1  0
  6  7  2  0
  7  8  1  0
  8  9  2  0
  9 10  1  0
 10 11  1  0
 11 12  2  0
 12 13  1  0
 13 14  2  0
 14 15  1  0
 15 16  2  0
 10 17  2  0
 17 18  1  0
 18 19  2  0
 19 20  1  0
 20 21  2  0
 21 22  1  0
 22 23  2  0
 22 24  1  0
 24 25  1  0
 25 26  1  0
 17 27  1  0
  7 28  1  0
 28 29  2  0
 29  4  1  0
 27  8  1  0
 16 11  1  0
 23 18  1  0
 26 21  1  0
  1 30  1  0
  1 31  1  0
  5 32  1  0
  6 33  1  0
 12 34  1  0
 13 35  1  0
 14 36  1  0
 15 37  1  0
 19 38  1  0
 20 39  1  0
 23 40  1  0
 25 41  1  0
 25 42  1  0
 27 43  1  0
 28 44  1  0
 29 45  1  0
M  END
$$$$
