
     RDKit          3D

 54 57  0  0  0  0  0  0  0  0999 V2000
   -5.9445    4.1406    1.6126 C   0  0  0  0  0  0  0  0  0  0  0  0
   -5.6390    3.0473    0.7528 O   0  0  0  0  0  0  0  0  0  0  0  0
   -4.5151    2.2156    0.8871 C   0  0  0  0  0  0  0  0  0  0  0  0
   -3.5732    2.4078    1.9117 C   0  0  0  0  0  0  0  0  0  0  0  0
   -2.4443    1.5974    1.9926 C   0  0  0  0  0  0  0  0  0  0  0  0
   -2.2473    0.5606    1.0727 C   0  0  0  0  0  0  0  0  0  0  0  0
   -3.2278    0.2866    0.0948 C   0  0  0  0  0  0  0  0  0  0  0  0
   -4.3298    1.1689   -0.0379 C   0  0  0  0  0  0  0  0  0  0  0  0
   -5.2142    1.0339   -1.1099 O   0  0  0  0  0  0  0  0  0  0  0  0
   -3.0142   -0.8944   -0.7983 C   0  0  0  0  0  0  0  0  0  0  0  0
   -4.0899   -1.5965   -1.3769 C   0  0  0  0  0  0  0  0  0  0  0  0
   -3.8594   -2.7016   -2.1949 C   0  0  0  0  0  0  0  0  0  0  0  0
   -2.5600   -3.1457   -2.4251 C   0  0  0  0  0  0  0  0  0  0  0  0
   -1.4737   -2.5005   -1.8212 C   0  0  0  0  0  0  0  0  0  0  0  0
   -1.6990   -1.3926   -0.9717 C   0  0  0  0  0  0  0  0  0  0  0  0
   -0.5355   -0.6941   -0.2753 C   0  0  0  0  0  0  0  0  0  0  0  0
   -0.9916   -0.2743    1.1420 C   0  0  0  0  0  0  0  0  0  0  0  0
    0.6625   -1.5766   -0.2261 N   0  0  0  0  0  0  0  0  0  0  0  0
    1.8602   -0.9879    0.4267 C   0  0  0  0  0  0  0  0  0  0  0  0
    2.3169    0.3566   -0.1725 C   0  0  0  0  0  0  0  0  0  0  0  0
    3.5565    0.7603    0.4062 O   0  0  0  0  0  0  0  0  0  0  0  0
    4.7905    0.2066    0.0473 C   0  0  0  0  0  0  0  0  0  0  0  0
    4.8619   -0.6657   -0.8622 O   0  0  0  0  0  0  0  0  0  0  0  0
    5.9749    0.6450    0.7190 N   0  0  0  0  0  0  0  0  0  0  0  0
    7.2909    0.0982    0.3870 C   0  0  0  0  0  0  0  0  0  0  0  0
    8.3910    0.7409    1.2316 C   0  0  0  0  0  0  0  0  0  0  0  0
    8.5747    2.4688    0.8284 Cl  0  0  0  0  0  0  0  0  0  0  0  0
    0.9838   -2.0900   -1.5716 C   0  0  0  0  0  0  0  0  0  0  0  0
   -0.0953   -3.0747   -2.0064 C   0  0  0  0  0  0  0  0  0  0  0  0
   -6.8864    4.6170    1.2719 H   0  0  0  0  0  0  0  0  0  0  0  0
   -5.1308    4.8953    1.5748 H   0  0  0  0  0  0  0  0  0  0  0  0
   -6.0852    3.7801    2.6535 H   0  0  0  0  0  0  0  0  0  0  0  0
   -3.6906    3.2004    2.6378 H   0  0  0  0  0  0  0  0  0  0  0  0
   -1.7145    1.7869    2.7703 H   0  0  0  0  0  0  0  0  0  0  0  0
   -6.0034    1.6530   -1.2493 H   0  0  0  0  0  0  0  0  0  0  0  0
   -5.1155   -1.3302   -1.1692 H   0  0  0  0  0  0  0  0  0  0  0  0
   -4.6949   -3.2293   -2.6369 H   0  0  0  0  0  0  0  0  0  0  0  0
   -2.4012   -4.0140   -3.0531 H   0  0  0  0  0  0  0  0  0  0  0  0
   -0.3109    0.2213   -0.8667 H   0  0  0  0  0  0  0  0  0  0  0  0
   -0.1968    0.3240    1.6328 H   0  0  0  0  0  0  0  0  0  0  0  0
   -1.1865   -1.1765    1.7616 H   0  0  0  0  0  0  0  0  0  0  0  0
    2.7002   -1.7141    0.3750 H   0  0  0  0  0  0  0  0  0  0  0  0
    1.6756   -0.8640    1.5134 H   0  0  0  0  0  0  0  0  0  0  0  0
    2.4222    0.2963   -1.2759 H   0  0  0  0  0  0  0  0  0  0  0  0
    1.5685    1.1412    0.0596 H   0  0  0  0  0  0  0  0  0  0  0  0
    5.8765    1.3683    1.4672 H   0  0  0  0  0  0  0  0  0  0  0  0
    7.5057    0.2686   -0.6903 H   0  0  0  0  0  0  0  0  0  0  0  0
    7.2881   -0.9971    0.5756 H   0  0  0  0  0  0  0  0  0  0  0  0
    8.1556    0.6359    2.3120 H   0  0  0  0  0  0  0  0  0  0  0  0
    9.3555    0.2288    1.0301 H   0  0  0  0  0  0  0  0  0  0  0  0
    1.0466   -1.2609   -2.3118 H   0  0  0  0  0  0  0  0  0  0  0  0
    1.9570   -2.6295   -1.5741 H   0  0  0  0  0  0  0  0  0  0  0  0
    0.0665   -3.3412   -3.0737 H   0  0  0  0  0  0  0  0  0  0  0  0
   -0.0111   -4.0009   -1.3974 H   0  0  0  0  0  0  0  0  0  0  0  0
  1  2  1  0
  2  3  1  0
  3  4  2  0
  4  5  1  0
  5  6  2  0
  6  7  1  0
  7  8  2  0
  8  9  1  0
  7 10  1  0
 10 11  2  0
 11 12  1  0
 12 13  2  0
 13 14  1  0
 14 15  2  0
 15 16  1  0
 16 17  1  0
 16 18  1  0
 18 19  1  0
 19 20  1  0
 20 21  1  0
 21 22  1  0
 22 23  2  0
 22 24  1  0
 24 25  1  0
 25 26  1  0
 26 27  1  0
 18 28  1  0
 28 29  1  0
  8  3  1  0
 15 10  1  0
 17  6  1  0
 29 14  1  0
  1 30  1  0
  1 31  1  0
  1 32  1  0
  4 33  1  0
  5 34  1  0
  9 35  1  0
 11 36  1  0
 12 37  1  0
 13 38  1  0
 16 39  1  0
 17 40  1  0
 17 41  1  0
 19 42  1  0
 19 43  1  0
 20 44  1  0
 20 45  1  0
 24 46  1  0
 25 47  1  0
 25 48  1  0
 26 49  1  0
 26 50  1  0
 28 51  1  0
 28 52  1  0
 29 53  1  0
 29 54  1  0
M  END
$$$$
