
     RDKit          3D

 53 56  0  0  0  0  0  0  0  0999 V2000
    2.7079    0.6622    1.9116 C   0  0  0  0  0  0  0  0  0  0  0  0
    2.8747   -0.4162    0.8682 C   0  0  0  0  0  0  0  0  0  0  0  0
    4.0371   -1.0826    0.6994 C   0  0  0  0  0  0  0  0  0  0  0  0
    5.2819   -0.8870    1.5285 C   0  0  0  0  0  0  0  0  0  0  0  0
    6.0223    0.4137    1.1839 C   0  0  0  0  0  0  0  0  0  0  0  0
    7.1884    0.5367    1.9991 O   0  0  0  0  0  0  0  0  0  0  0  0
    8.3201    0.5722    1.1963 C   0  0  0  0  0  0  0  0  0  0  0  0
    9.4898    0.6787    1.6477 O   0  0  0  0  0  0  0  0  0  0  0  0
    8.0226    0.4814   -0.1821 N   0  0  0  0  0  0  0  0  0  0  0  0
    6.6082    0.3930   -0.2011 C   0  0  0  0  0  0  0  0  0  0  0  0
    5.9375    0.3451   -1.2660 O   0  0  0  0  0  0  0  0  0  0  0  0
    1.7394   -0.6863   -0.0536 C   0  0  0  0  0  0  0  0  0  0  0  0
    1.3797   -2.0048   -0.3851 C   0  0  0  0  0  0  0  0  0  0  0  0
    0.3081   -2.2493   -1.2461 C   0  0  0  0  0  0  0  0  0  0  0  0
   -0.4187   -1.1859   -1.7846 C   0  0  0  0  0  0  0  0  0  0  0  0
   -0.0783    0.1408   -1.4598 C   0  0  0  0  0  0  0  0  0  0  0  0
   -0.7766    1.2479   -1.9697 O   0  0  0  0  0  0  0  0  0  0  0  0
   -1.9340    1.1774   -2.8020 C   0  0  0  0  0  0  0  0  0  0  0  0
   -3.1120    0.6662   -2.0275 C   0  0  0  0  0  0  0  0  0  0  0  0
   -3.3554    0.9755   -0.7395 N   0  0  0  0  0  0  0  0  0  0  0  0
   -4.5227    0.3432   -0.4810 C   0  0  0  0  0  0  0  0  0  0  0  0
   -5.1998    0.3767    0.8307 C   0  0  0  0  0  0  0  0  0  0  0  0
   -6.4223   -0.2931    1.0124 C   0  0  0  0  0  0  0  0  0  0  0  0
   -7.0654   -0.2642    2.2539 C   0  0  0  0  0  0  0  0  0  0  0  0
   -6.4947    0.4314    3.3228 C   0  0  0  0  0  0  0  0  0  0  0  0
   -5.2798    1.0996    3.1522 C   0  0  0  0  0  0  0  0  0  0  0  0
   -4.6329    1.0742    1.9126 C   0  0  0  0  0  0  0  0  0  0  0  0
   -4.9907   -0.3049   -1.5271 O   0  0  0  0  0  0  0  0  0  0  0  0
   -4.1410   -0.1172   -2.5048 C   0  0  0  0  0  0  0  0  0  0  0  0
   -4.2913   -0.6797   -3.8793 C   0  0  0  0  0  0  0  0  0  0  0  0
    0.9980    0.3787   -0.5962 C   0  0  0  0  0  0  0  0  0  0  0  0
    3.2470    0.4216    2.8491 H   0  0  0  0  0  0  0  0  0  0  0  0
    3.0669    1.6325    1.5117 H   0  0  0  0  0  0  0  0  0  0  0  0
    1.6357    0.7718    2.1793 H   0  0  0  0  0  0  0  0  0  0  0  0
    4.1071   -1.8256   -0.0868 H   0  0  0  0  0  0  0  0  0  0  0  0
    5.9651   -1.7451    1.3434 H   0  0  0  0  0  0  0  0  0  0  0  0
    5.0360   -0.9150    2.6102 H   0  0  0  0  0  0  0  0  0  0  0  0
    5.3825    1.3088    1.3191 H   0  0  0  0  0  0  0  0  0  0  0  0
    8.6821    0.5055   -0.9912 H   0  0  0  0  0  0  0  0  0  0  0  0
    1.9174   -2.8459    0.0344 H   0  0  0  0  0  0  0  0  0  0  0  0
    0.0377   -3.2677   -1.4943 H   0  0  0  0  0  0  0  0  0  0  0  0
   -1.2412   -1.4080   -2.4496 H   0  0  0  0  0  0  0  0  0  0  0  0
   -1.7261    0.5427   -3.6896 H   0  0  0  0  0  0  0  0  0  0  0  0
   -2.1720    2.1986   -3.1648 H   0  0  0  0  0  0  0  0  0  0  0  0
   -6.8803   -0.8377    0.1960 H   0  0  0  0  0  0  0  0  0  0  0  0
   -8.0068   -0.7815    2.3872 H   0  0  0  0  0  0  0  0  0  0  0  0
   -6.9938    0.4524    4.2829 H   0  0  0  0  0  0  0  0  0  0  0  0
   -4.8383    1.6377    3.9811 H   0  0  0  0  0  0  0  0  0  0  0  0
   -3.6916    1.5979    1.8016 H   0  0  0  0  0  0  0  0  0  0  0  0
   -4.2399    0.1385   -4.6275 H   0  0  0  0  0  0  0  0  0  0  0  0
   -5.2704   -1.1940   -3.9729 H   0  0  0  0  0  0  0  0  0  0  0  0
   -3.4786   -1.4098   -4.0739 H   0  0  0  0  0  0  0  0  0  0  0  0
    1.2614    1.4022   -0.3589 H   0  0  0  0  0  0  0  0  0  0  0  0
  1  2  1  0
  2  3  2  0
  3  4  1  0
  4  5  1  0
  5  6  1  0
  6  7  1  0
  7  8  2  0
  7  9  1  0
  9 10  1  0
 10 11  2  0
  2 12  1  0
 12 13  2  0
 13 14  1  0
 14 15  2  0
 15 16  1  0
 16 17  1  0
 17 18  1  0
 18 19  1  0
 19 20  1  0
 20 21  2  0
 21 22  1  0
 22 23  2  0
 23 24  1  0
 24 25  2  0
 25 26  1  0
 26 27  2  0
 21 28  1  0
 28 29  1  0
 29 30  1  0
 16 31  2  0
 10  5  1  0
 31 12  1  0
 29 19  2  0
 27 22  1  0
  1 32  1  0
  1 33  1  0
  1 34  1  0
  3 35  1  0
  4 36  1  0
  4 37  1  0
  5 38  1  0
  9 39  1  0
 13 40  1  0
 14 41  1  0
 15 42  1  0
 18 43  1  0
 18 44  1  0
 23 45  1  0
 24 46  1  0
 25 47  1  0
 26 48  1  0
 27 49  1  0
 30 50  1  0
 30 51  1  0
 30 52  1  0
 31 53  1  0
M  END
$$$$
