
     RDKit          3D

 54 57  0  0  0  0  0  0  0  0999 V2000
   -5.3514   -1.7031    0.3925 C   0  0  0  0  0  0  0  0  0  0  0  0
   -3.8332   -1.5426    0.6233 C   0  0  0  0  0  0  0  0  0  0  0  0
   -3.5484   -1.9118    2.0936 C   0  0  0  0  0  0  0  0  0  0  0  0
   -3.3305   -0.1628    0.3242 N   0  0  0  0  0  0  0  0  0  0  0  0
   -1.8484   -0.0660    0.4367 C   0  0  0  0  0  0  0  0  0  0  0  0
   -1.4749    0.8226    1.6271 C   0  0  0  0  0  0  0  0  0  0  0  0
   -0.0215    0.9182    1.7630 N   0  0  0  0  0  0  0  0  0  0  0  0
    0.8217    1.4923    0.7496 C   0  0  0  0  0  0  0  0  0  0  0  0
    0.4439    2.7209    0.1238 C   0  0  0  0  0  0  0  0  0  0  0  0
    1.2677    3.3330   -0.8479 C   0  0  0  0  0  0  0  0  0  0  0  0
    2.4607    2.6972   -1.1706 C   0  0  0  0  0  0  0  0  0  0  0  0
    3.4096    3.0602   -2.0609 N   0  0  0  0  0  0  0  0  0  0  0  0
    4.3273    2.0527   -1.9636 C   0  0  0  0  0  0  0  0  0  0  0  0
    3.9658    1.1069   -1.0590 N   0  0  0  0  0  0  0  0  0  0  0  0
    4.5286   -0.0615   -0.6443 C   0  0  0  0  0  0  0  0  0  0  0  0
    5.7572   -0.5160   -1.1477 C   0  0  0  0  0  0  0  0  0  0  0  0
    6.2917   -1.7255   -0.6985 C   0  0  0  0  0  0  0  0  0  0  0  0
    5.6082   -2.4940    0.2529 C   0  0  0  0  0  0  0  0  0  0  0  0
    6.1402   -3.7012    0.7008 O   0  0  0  0  0  0  0  0  0  0  0  0
    4.3817   -2.0526    0.7615 C   0  0  0  0  0  0  0  0  0  0  0  0
    3.8239   -0.8360    0.3265 C   0  0  0  0  0  0  0  0  0  0  0  0
    2.5696   -0.3680    0.8271 C   0  0  0  0  0  0  0  0  0  0  0  0
    1.9247   -1.0671    1.6549 O   0  0  0  0  0  0  0  0  0  0  0  0
    2.0499    0.8718    0.3713 C   0  0  0  0  0  0  0  0  0  0  0  0
    2.8063    1.5360   -0.5796 C   0  0  0  0  0  0  0  0  0  0  0  0
   -3.8696    0.4631   -0.9233 C   0  0  0  0  0  0  0  0  0  0  0  0
   -3.4300   -0.2579   -2.2135 C   0  0  0  0  0  0  0  0  0  0  0  0
   -3.5470    1.9658   -0.9910 C   0  0  0  0  0  0  0  0  0  0  0  0
   -5.9118   -0.8933    0.9071 H   0  0  0  0  0  0  0  0  0  0  0  0
   -5.5938   -1.7006   -0.6901 H   0  0  0  0  0  0  0  0  0  0  0  0
   -5.7083   -2.6806    0.7820 H   0  0  0  0  0  0  0  0  0  0  0  0
   -3.3135   -2.2843   -0.0237 H   0  0  0  0  0  0  0  0  0  0  0  0
   -3.9910   -1.1523    2.7733 H   0  0  0  0  0  0  0  0  0  0  0  0
   -2.4611   -1.9843    2.2954 H   0  0  0  0  0  0  0  0  0  0  0  0
   -3.9794   -2.9057    2.3402 H   0  0  0  0  0  0  0  0  0  0  0  0
   -1.3674   -1.0617    0.5553 H   0  0  0  0  0  0  0  0  0  0  0  0
   -1.3784    0.3569   -0.4721 H   0  0  0  0  0  0  0  0  0  0  0  0
   -1.9148    1.8334    1.5078 H   0  0  0  0  0  0  0  0  0  0  0  0
   -1.8973    0.3908    2.5587 H   0  0  0  0  0  0  0  0  0  0  0  0
    0.4127    0.5479    2.6373 H   0  0  0  0  0  0  0  0  0  0  0  0
   -0.4750    3.2176    0.4021 H   0  0  0  0  0  0  0  0  0  0  0  0
    0.9825    4.2645   -1.3191 H   0  0  0  0  0  0  0  0  0  0  0  0
    5.2330    2.0192   -2.5538 H   0  0  0  0  0  0  0  0  0  0  0  0
    6.3045    0.0572   -1.8836 H   0  0  0  0  0  0  0  0  0  0  0  0
    7.2405   -2.0670   -1.0925 H   0  0  0  0  0  0  0  0  0  0  0  0
    7.0257   -4.0512    0.3540 H   0  0  0  0  0  0  0  0  0  0  0  0
    3.8710   -2.6639    1.4958 H   0  0  0  0  0  0  0  0  0  0  0  0
   -4.9777    0.4417   -0.8942 H   0  0  0  0  0  0  0  0  0  0  0  0
   -3.9659    0.1779   -3.0835 H   0  0  0  0  0  0  0  0  0  0  0  0
   -3.6823   -1.3364   -2.1722 H   0  0  0  0  0  0  0  0  0  0  0  0
   -2.3423   -0.1539   -2.3999 H   0  0  0  0  0  0  0  0  0  0  0  0
   -2.4742    2.1561   -1.1983 H   0  0  0  0  0  0  0  0  0  0  0  0
   -3.8233    2.4556   -0.0334 H   0  0  0  0  0  0  0  0  0  0  0  0
   -4.1367    2.4420   -1.8036 H   0  0  0  0  0  0  0  0  0  0  0  0
  1  2  1  0
  2  3  1  0
  2  4  1  0
  4  5  1  0
  5  6  1  0
  6  7  1  0
  7  8  1  0
  8  9  2  0
  9 10  1  0
 10 11  2  0
 11 12  1  0
 12 13  2  0
 13 14  1  0
 14 15  1  0
 15 16  2  0
 16 17  1  0
 17 18  2  0
 18 19  1  0
 18 20  1  0
 20 21  2  0
 21 22  1  0
 22 23  2  0
 22 24  1  0
 24 25  2  0
  4 26  1  0
 26 27  1  0
 26 28  1  0
 24  8  1  0
 25 11  1  0
 25 14  1  0
 21 15  1  0
  1 29  1  0
  1 30  1  0
  1 31  1  0
  2 32  1  0
  3 33  1  0
  3 34  1  0
  3 35  1  0
  5 36  1  0
  5 37  1  0
  6 38  1  0
  6 39  1  0
  7 40  1  0
  9 41  1  0
 10 42  1  0
 13 43  1  0
 16 44  1  0
 17 45  1  0
 19 46  1  0
 20 47  1  0
 26 48  1  0
 27 49  1  0
 27 50  1  0
 27 51  1  0
 28 52  1  0
 28 53  1  0
 28 54  1  0
M  END
$$$$
