
     RDKit          3D

 53 56  0  0  0  0  0  0  0  0999 V2000
    5.2640   -0.1837    0.0948 C   0  0  0  0  0  0  0  0  0  0  0  0
    3.9407   -0.9287    0.2376 C   0  0  0  0  0  0  0  0  0  0  0  0
    3.2773   -1.1513   -1.1274 C   0  0  0  0  0  0  0  0  0  0  0  0
    1.9132   -1.7918   -0.9639 C   0  0  0  0  0  0  0  0  0  0  0  0
    1.8582   -3.1881   -1.0830 C   0  0  0  0  0  0  0  0  0  0  0  0
    0.6457   -3.8487   -0.9325 C   0  0  0  0  0  0  0  0  0  0  0  0
    0.5923   -5.1012   -1.0477 O   0  0  0  0  0  0  0  0  0  0  0  0
   -0.4571   -3.1689   -0.6674 O   0  0  0  0  0  0  0  0  0  0  0  0
   -0.4838   -1.8468   -0.5223 C   0  0  0  0  0  0  0  0  0  0  0  0
   -1.7147   -1.2250   -0.2368 C   0  0  0  0  0  0  0  0  0  0  0  0
   -1.7691    0.1700   -0.0753 C   0  0  0  0  0  0  0  0  0  0  0  0
   -0.6040    0.9371   -0.1977 C   0  0  0  0  0  0  0  0  0  0  0  0
    0.6318    0.3254   -0.4671 C   0  0  0  0  0  0  0  0  0  0  0  0
    0.7105   -1.0821   -0.6547 C   0  0  0  0  0  0  0  0  0  0  0  0
    1.7629    1.1461   -0.5656 O   0  0  0  0  0  0  0  0  0  0  0  0
    1.8201    2.5037   -0.1070 C   0  0  0  0  0  0  0  0  0  0  0  0
    2.7447    3.2879   -1.0446 C   0  0  0  0  0  0  0  0  0  0  0  0
    2.3839    2.5222    1.3197 C   0  0  0  0  0  0  0  0  0  0  0  0
    0.4504    3.1434   -0.1033 C   0  0  0  0  0  0  0  0  0  0  0  0
   -0.6612    2.4085   -0.0874 C   0  0  0  0  0  0  0  0  0  0  0  0
   -2.9892    0.8110    0.1832 O   0  0  0  0  0  0  0  0  0  0  0  0
   -4.1911    0.1199    0.5224 C   0  0  0  0  0  0  0  0  0  0  0  0
   -4.2353   -0.0863    2.0482 C   0  0  0  0  0  0  0  0  0  0  0  0
   -5.3810    0.9968    0.1037 C   0  0  0  0  0  0  0  0  0  0  0  0
   -4.2525   -1.2244   -0.2425 C   0  0  0  0  0  0  0  0  0  0  0  0
   -2.9722   -2.0625   -0.0808 C   0  0  0  0  0  0  0  0  0  0  0  0
   -2.9764   -2.6956    1.1729 O   0  0  0  0  0  0  0  0  0  0  0  0
    5.7194   -0.0397    1.0971 H   0  0  0  0  0  0  0  0  0  0  0  0
    5.9682   -0.7663   -0.5364 H   0  0  0  0  0  0  0  0  0  0  0  0
    5.0979    0.8129   -0.3655 H   0  0  0  0  0  0  0  0  0  0  0  0
    3.2698   -0.3507    0.9066 H   0  0  0  0  0  0  0  0  0  0  0  0
    4.1320   -1.9128    0.7184 H   0  0  0  0  0  0  0  0  0  0  0  0
    3.2191   -0.2203   -1.7244 H   0  0  0  0  0  0  0  0  0  0  0  0
    3.9383   -1.8144   -1.7290 H   0  0  0  0  0  0  0  0  0  0  0  0
    2.7529   -3.7636   -1.2925 H   0  0  0  0  0  0  0  0  0  0  0  0
    3.7538    2.8246   -1.0684 H   0  0  0  0  0  0  0  0  0  0  0  0
    2.3360    3.2799   -2.0780 H   0  0  0  0  0  0  0  0  0  0  0  0
    2.8469    4.3431   -0.7098 H   0  0  0  0  0  0  0  0  0  0  0  0
    2.4305    3.5614    1.7118 H   0  0  0  0  0  0  0  0  0  0  0  0
    3.4084    2.0939    1.3374 H   0  0  0  0  0  0  0  0  0  0  0  0
    1.7411    1.9160    1.9938 H   0  0  0  0  0  0  0  0  0  0  0  0
    0.3676    4.2196   -0.0043 H   0  0  0  0  0  0  0  0  0  0  0  0
   -1.6158    2.9136   -0.0070 H   0  0  0  0  0  0  0  0  0  0  0  0
   -4.3225    0.8920    2.5679 H   0  0  0  0  0  0  0  0  0  0  0  0
   -5.1031   -0.7176    2.3361 H   0  0  0  0  0  0  0  0  0  0  0  0
   -3.3022   -0.5622    2.4128 H   0  0  0  0  0  0  0  0  0  0  0  0
   -5.3534    1.1904   -0.9901 H   0  0  0  0  0  0  0  0  0  0  0  0
   -6.3428    0.4984    0.3531 H   0  0  0  0  0  0  0  0  0  0  0  0
   -5.3425    1.9782    0.6236 H   0  0  0  0  0  0  0  0  0  0  0  0
   -4.3832   -1.0151   -1.3281 H   0  0  0  0  0  0  0  0  0  0  0  0
   -5.1349   -1.8185    0.0834 H   0  0  0  0  0  0  0  0  0  0  0  0
   -2.9982   -2.8356   -0.8851 H   0  0  0  0  0  0  0  0  0  0  0  0
   -2.3916   -3.4943    1.1011 H   0  0  0  0  0  0  0  0  0  0  0  0
  1  2  1  0
  2  3  1  0
  3  4  1  0
  4  5  2  0
  5  6  1  0
  6  7  2  0
  6  8  1  0
  8  9  1  0
  9 10  2  0
 10 11  1  0
 11 12  2  0
 12 13  1  0
 13 14  2  0
 13 15  1  0
 15 16  1  0
 16 17  1  0
 16 18  1  0
 16 19  1  0
 19 20  2  0
 11 21  1  0
 21 22  1  0
 22 23  1  0
 22 24  1  0
 22 25  1  0
 25 26  1  0
 26 27  1  0
 14  4  1  0
 14  9  1  0
 26 10  1  0
 20 12  1  0
  1 28  1  0
  1 29  1  0
  1 30  1  0
  2 31  1  0
  2 32  1  0
  3 33  1  0
  3 34  1  0
  5 35  1  0
 17 36  1  0
 17 37  1  0
 17 38  1  0
 18 39  1  0
 18 40  1  0
 18 41  1  0
 19 42  1  0
 20 43  1  0
 23 44  1  0
 23 45  1  0
 23 46  1  0
 24 47  1  0
 24 48  1  0
 24 49  1  0
 25 50  1  0
 25 51  1  0
 26 52  1  0
 27 53  1  0
M  END
$$$$
