
     RDKit          3D

 53 56  0  0  0  0  0  0  0  0999 V2000
   -4.9763    1.7862    1.5058 C   0  0  0  0  0  0  0  0  0  0  0  0
   -4.8523    1.2450    0.0799 C   0  0  0  0  0  0  0  0  0  0  0  0
   -3.5270    0.4945   -0.1574 C   0  0  0  0  0  0  0  0  0  0  0  0
   -2.2331    1.3113   -0.1507 C   0  0  0  0  0  0  0  0  0  0  0  0
   -2.2784    2.7159   -0.2433 C   0  0  0  0  0  0  0  0  0  0  0  0
   -1.1064    3.4579   -0.1551 C   0  0  0  0  0  0  0  0  0  0  0  0
   -1.1524    4.7151   -0.2046 O   0  0  0  0  0  0  0  0  0  0  0  0
    0.0604    2.8535   -0.0158 O   0  0  0  0  0  0  0  0  0  0  0  0
    0.1981    1.5324    0.0189 C   0  0  0  0  0  0  0  0  0  0  0  0
    1.4944    0.9882    0.1473 C   0  0  0  0  0  0  0  0  0  0  0  0
    1.6495   -0.4042    0.2478 C   0  0  0  0  0  0  0  0  0  0  0  0
    0.5473   -1.2500    0.0802 C   0  0  0  0  0  0  0  0  0  0  0  0
   -0.7373   -0.7171   -0.1110 C   0  0  0  0  0  0  0  0  0  0  0  0
   -0.9455    0.6887   -0.0766 C   0  0  0  0  0  0  0  0  0  0  0  0
   -1.7927   -1.6127   -0.3270 O   0  0  0  0  0  0  0  0  0  0  0  0
   -1.6155   -2.9853   -0.6969 C   0  0  0  0  0  0  0  0  0  0  0  0
   -1.6157   -3.0863   -2.2276 C   0  0  0  0  0  0  0  0  0  0  0  0
   -2.7833   -3.7918   -0.1187 C   0  0  0  0  0  0  0  0  0  0  0  0
   -0.3093   -3.5292   -0.1626 C   0  0  0  0  0  0  0  0  0  0  0  0
    0.7053   -2.7178    0.1401 C   0  0  0  0  0  0  0  0  0  0  0  0
    2.9101   -0.9557    0.4971 O   0  0  0  0  0  0  0  0  0  0  0  0
    4.0212   -0.1703    0.9163 C   0  0  1  0  0  0  0  0  0  0  0  0
    5.2906   -1.0103    0.7520 C   0  0  0  0  0  0  0  0  0  0  0  0
    4.0532    1.1412    0.0989 C   0  0  2  0  0  0  0  0  0  0  0  0
    5.2292    2.0457    0.5093 C   0  0  0  0  0  0  0  0  0  0  0  0
    2.7096    1.8995    0.2645 C   0  0  1  0  0  0  0  0  0  0  0  0
    2.6359    2.8998   -0.7231 O   0  0  0  0  0  0  0  0  0  0  0  0
   -4.1724    2.5150    1.7333 H   0  0  0  0  0  0  0  0  0  0  0  0
   -5.9554    2.2965    1.6230 H   0  0  0  0  0  0  0  0  0  0  0  0
   -4.9239    0.9529    2.2383 H   0  0  0  0  0  0  0  0  0  0  0  0
   -5.0017    2.0519   -0.6667 H   0  0  0  0  0  0  0  0  0  0  0  0
   -5.6846    0.5249   -0.0783 H   0  0  0  0  0  0  0  0  0  0  0  0
   -3.4702   -0.2762    0.6401 H   0  0  0  0  0  0  0  0  0  0  0  0
   -3.6034   -0.0188   -1.1403 H   0  0  0  0  0  0  0  0  0  0  0  0
   -3.2055    3.2557   -0.3616 H   0  0  0  0  0  0  0  0  0  0  0  0
   -2.5660   -2.6836   -2.6394 H   0  0  0  0  0  0  0  0  0  0  0  0
   -0.7764   -2.4941   -2.6520 H   0  0  0  0  0  0  0  0  0  0  0  0
   -1.5050   -4.1434   -2.5533 H   0  0  0  0  0  0  0  0  0  0  0  0
   -3.7500   -3.3905   -0.4923 H   0  0  0  0  0  0  0  0  0  0  0  0
   -2.7842   -3.7205    0.9904 H   0  0  0  0  0  0  0  0  0  0  0  0
   -2.7072   -4.8627   -0.4072 H   0  0  0  0  0  0  0  0  0  0  0  0
   -0.1522   -4.6010   -0.1287 H   0  0  0  0  0  0  0  0  0  0  0  0
    1.6504   -3.1541    0.4389 H   0  0  0  0  0  0  0  0  0  0  0  0
    3.8946    0.0706    1.9955 H   0  0  0  0  0  0  0  0  0  0  0  0
    6.1543   -0.5210    1.2478 H   0  0  0  0  0  0  0  0  0  0  0  0
    5.5184   -1.1668   -0.3240 H   0  0  0  0  0  0  0  0  0  0  0  0
    5.1465   -2.0021    1.2310 H   0  0  0  0  0  0  0  0  0  0  0  0
    4.1764    0.8797   -0.9768 H   0  0  0  0  0  0  0  0  0  0  0  0
    6.1978    1.5721    0.2480 H   0  0  0  0  0  0  0  0  0  0  0  0
    5.1875    3.0123   -0.0348 H   0  0  0  0  0  0  0  0  0  0  0  0
    5.2052    2.2491    1.6014 H   0  0  0  0  0  0  0  0  0  0  0  0
    2.6717    2.3485    1.2869 H   0  0  0  0  0  0  0  0  0  0  0  0
    2.8756    3.7613   -0.2919 H   0  0  0  0  0  0  0  0  0  0  0  0
  1  2  1  0
  2  3  1  0
  3  4  1  0
  4  5  2  0
  5  6  1  0
  6  7  2  0
  6  8  1  0
  8  9  1  0
  9 10  2  0
 10 11  1  0
 11 12  2  0
 12 13  1  0
 13 14  2  0
 13 15  1  0
 15 16  1  0
 16 17  1  0
 16 18  1  0
 16 19  1  0
 19 20  2  0
 11 21  1  0
 21 22  1  0
 22 23  1  0
 22 24  1  0
 24 25  1  0
 24 26  1  0
 26 27  1  0
 14  4  1  0
 14  9  1  0
 26 10  1  0
 20 12  1  0
  1 28  1  0
  1 29  1  0
  1 30  1  0
  2 31  1  0
  2 32  1  0
  3 33  1  0
  3 34  1  0
  5 35  1  0
 17 36  1  0
 17 37  1  0
 17 38  1  0
 18 39  1  0
 18 40  1  0
 18 41  1  0
 19 42  1  0
 20 43  1  0
 22 44  1  1
 23 45  1  0
 23 46  1  0
 23 47  1  0
 24 48  1  6
 25 49  1  0
 25 50  1  0
 25 51  1  0
 26 52  1  1
 27 53  1  0
M  END
$$$$
