
     RDKit          3D

 45 48  0  0  0  0  0  0  0  0999 V2000
    7.4716   -1.2145   -0.9300 C   0  0  0  0  0  0  0  0  0  0  0  0
    6.3016   -1.1979   -0.0612 N   0  0  0  0  0  0  0  0  0  0  0  0
    5.3415   -0.1343   -0.1097 C   0  0  0  0  0  0  0  0  0  0  0  0
    5.4875    0.9113   -0.9807 N   0  0  0  0  0  0  0  0  0  0  0  0
    4.5696    1.9294   -1.0399 C   0  0  0  0  0  0  0  0  0  0  0  0
    3.4749    1.9248   -0.2212 N   0  0  0  0  0  0  0  0  0  0  0  0
    3.3355    0.8917    0.6441 C   0  0  0  0  0  0  0  0  0  0  0  0
    4.2245   -0.1251    0.7190 C   0  0  0  0  0  0  0  0  0  0  0  0
    3.8294   -1.0310    1.6342 N   0  0  0  0  0  0  0  0  0  0  0  0
    2.6641   -0.5006    2.0989 C   0  0  0  0  0  0  0  0  0  0  0  0
    2.3428    0.6829    1.5164 N   0  0  0  0  0  0  0  0  0  0  0  0
    1.1277    1.4695    1.7085 C   0  0  0  0  0  0  0  0  0  0  0  0
    0.0753    1.0329    0.7276 C   0  0  0  0  0  0  0  0  0  0  0  0
   -0.0476    1.6763   -0.5129 C   0  0  0  0  0  0  0  0  0  0  0  0
   -0.9969    1.2397   -1.4391 C   0  0  0  0  0  0  0  0  0  0  0  0
   -1.8241    0.1542   -1.1401 C   0  0  0  0  0  0  0  0  0  0  0  0
   -1.7050   -0.5082    0.0969 C   0  0  0  0  0  0  0  0  0  0  0  0
   -2.5070   -1.6059    0.4492 O   0  0  0  0  0  0  0  0  0  0  0  0
   -3.5926   -2.1173   -0.3251 C   0  0  0  0  0  0  0  0  0  0  0  0
   -4.7540   -1.1589   -0.3178 C   0  0  0  0  0  0  0  0  0  0  0  0
   -5.2609   -0.6757    0.9001 C   0  0  0  0  0  0  0  0  0  0  0  0
   -6.3459    0.2063    0.9116 C   0  0  0  0  0  0  0  0  0  0  0  0
   -6.9373    0.6047   -0.2903 C   0  0  0  0  0  0  0  0  0  0  0  0
   -6.4471    0.1186   -1.5054 C   0  0  0  0  0  0  0  0  0  0  0  0
   -5.3623   -0.7638   -1.5213 C   0  0  0  0  0  0  0  0  0  0  0  0
   -0.7478   -0.0664    1.0188 C   0  0  0  0  0  0  0  0  0  0  0  0
    8.0786   -2.1222   -0.7283 H   0  0  0  0  0  0  0  0  0  0  0  0
    7.1512   -1.2260   -1.9930 H   0  0  0  0  0  0  0  0  0  0  0  0
    8.0953   -0.3160   -0.7390 H   0  0  0  0  0  0  0  0  0  0  0  0
    6.1672   -1.9860    0.6119 H   0  0  0  0  0  0  0  0  0  0  0  0
    4.7121    2.7404   -1.7406 H   0  0  0  0  0  0  0  0  0  0  0  0
    2.0503   -0.9852    2.8472 H   0  0  0  0  0  0  0  0  0  0  0  0
    1.3555    2.5503    1.5803 H   0  0  0  0  0  0  0  0  0  0  0  0
    0.7574    1.3392    2.7490 H   0  0  0  0  0  0  0  0  0  0  0  0
    0.5927    2.5128   -0.7637 H   0  0  0  0  0  0  0  0  0  0  0  0
   -1.0886    1.7410   -2.3941 H   0  0  0  0  0  0  0  0  0  0  0  0
   -2.5432   -0.1643   -1.8805 H   0  0  0  0  0  0  0  0  0  0  0  0
   -3.9271   -3.0738    0.1280 H   0  0  0  0  0  0  0  0  0  0  0  0
   -3.2474   -2.3477   -1.3563 H   0  0  0  0  0  0  0  0  0  0  0  0
   -4.8138   -0.9798    1.8385 H   0  0  0  0  0  0  0  0  0  0  0  0
   -6.7292    0.5796    1.8524 H   0  0  0  0  0  0  0  0  0  0  0  0
   -7.7773    1.2872   -0.2799 H   0  0  0  0  0  0  0  0  0  0  0  0
   -6.9087    0.4244   -2.4353 H   0  0  0  0  0  0  0  0  0  0  0  0
   -4.9960   -1.1342   -2.4707 H   0  0  0  0  0  0  0  0  0  0  0  0
   -0.6466   -0.5823    1.9660 H   0  0  0  0  0  0  0  0  0  0  0  0
  1  2  1  0
  2  3  1  0
  3  4  2  0
  4  5  1  0
  5  6  2  0
  6  7  1  0
  7  8  2  0
  8  9  1  0
  9 10  2  0
 10 11  1  0
 11 12  1  0
 12 13  1  0
 13 14  2  0
 14 15  1  0
 15 16  2  0
 16 17  1  0
 17 18  1  0
 18 19  1  0
 19 20  1  0
 20 21  2  0
 21 22  1  0
 22 23  2  0
 23 24  1  0
 24 25  2  0
 17 26  2  0
  8  3  1  0
 26 13  1  0
 11  7  1  0
 25 20  1  0
  1 27  1  0
  1 28  1  0
  1 29  1  0
  2 30  1  0
  5 31  1  0
 10 32  1  0
 12 33  1  0
 12 34  1  0
 14 35  1  0
 15 36  1  0
 16 37  1  0
 19 38  1  0
 19 39  1  0
 21 40  1  0
 22 41  1  0
 23 42  1  0
 24 43  1  0
 25 44  1  0
 26 45  1  0
M  END
$$$$
