
     RDKit          3D

 39 41  0  0  0  0  0  0  0  0999 V2000
   -4.0259   -1.3182   -1.5383 C   0  0  0  0  0  0  0  0  0  0  0  0
   -3.9940   -0.4903   -0.3335 N   0  0  0  0  0  0  0  0  0  0  0  0
   -5.1115   -0.5191    0.6081 C   0  0  0  0  0  0  0  0  0  0  0  0
   -2.9386    0.4656   -0.1469 C   0  0  0  0  0  0  0  0  0  0  0  0
   -3.1927    1.8150   -0.4138 C   0  0  0  0  0  0  0  0  0  0  0  0
   -2.1893    2.7665   -0.2582 C   0  0  0  0  0  0  0  0  0  0  0  0
   -0.9150    2.3861    0.1598 C   0  0  0  0  0  0  0  0  0  0  0  0
   -0.6181    1.0341    0.4339 C   0  0  0  0  0  0  0  0  0  0  0  0
    0.6744    0.6195    0.8588 C   0  0  0  0  0  0  0  0  0  0  0  0
    2.0308    1.7534    1.0218 S   0  0  0  0  0  6  0  0  0  0  0  0
    1.7310    2.7228    2.1303 O   0  0  0  0  0  0  0  0  0  0  0  0
    2.2279    2.5141   -0.2601 O   0  0  0  0  0  0  0  0  0  0  0  0
    3.5045    0.9208    1.4013 N   0  0  0  0  0  0  0  0  0  0  0  0
    4.1973    0.1199    0.4387 C   0  0  0  0  0  0  0  0  0  0  0  0
    3.6915   -0.0501   -0.8137 N   0  0  0  0  0  0  0  0  0  0  0  0
    4.3342   -0.8184   -1.7307 C   0  0  0  0  0  0  0  0  0  0  0  0
    5.5316   -1.4483   -1.3923 C   0  0  0  0  0  0  0  0  0  0  0  0
    6.4565   -2.5354   -2.6607 Br  0  0  0  0  0  0  0  0  0  0  0  0
    6.0368   -1.2661   -0.1049 C   0  0  0  0  0  0  0  0  0  0  0  0
    5.3631   -0.4900    0.7834 N   0  0  0  0  0  0  0  0  0  0  0  0
    0.8947   -0.7315    1.1664 C   0  0  0  0  0  0  0  0  0  0  0  0
   -0.1248   -1.6697    1.0361 C   0  0  0  0  0  0  0  0  0  0  0  0
   -1.3869   -1.2812    0.5981 C   0  0  0  0  0  0  0  0  0  0  0  0
   -1.6531    0.0645    0.2887 C   0  0  0  0  0  0  0  0  0  0  0  0
   -4.8418   -0.9715   -2.2066 H   0  0  0  0  0  0  0  0  0  0  0  0
   -3.0620   -1.2555   -2.0880 H   0  0  0  0  0  0  0  0  0  0  0  0
   -4.2035   -2.3788   -1.2616 H   0  0  0  0  0  0  0  0  0  0  0  0
   -5.8665   -1.2758    0.3051 H   0  0  0  0  0  0  0  0  0  0  0  0
   -4.7372   -0.7785    1.6207 H   0  0  0  0  0  0  0  0  0  0  0  0
   -5.6037    0.4754    0.6441 H   0  0  0  0  0  0  0  0  0  0  0  0
   -4.1736    2.1271   -0.7499 H   0  0  0  0  0  0  0  0  0  0  0  0
   -2.4000    3.8081   -0.4649 H   0  0  0  0  0  0  0  0  0  0  0  0
   -0.1780    3.1667    0.2735 H   0  0  0  0  0  0  0  0  0  0  0  0
    3.8964    1.0162    2.3645 H   0  0  0  0  0  0  0  0  0  0  0  0
    3.9128   -0.9386   -2.7198 H   0  0  0  0  0  0  0  0  0  0  0  0
    6.9627   -1.7408    0.1915 H   0  0  0  0  0  0  0  0  0  0  0  0
    1.8599   -1.0707    1.5150 H   0  0  0  0  0  0  0  0  0  0  0  0
    0.0650   -2.7076    1.2781 H   0  0  0  0  0  0  0  0  0  0  0  0
   -2.1545   -2.0397    0.5159 H   0  0  0  0  0  0  0  0  0  0  0  0
  1  2  1  0
  2  3  1  0
  2  4  1  0
  4  5  2  0
  5  6  1  0
  6  7  2  0
  7  8  1  0
  8  9  2  0
  9 10  1  0
 10 11  2  0
 10 12  2  0
 10 13  1  0
 13 14  1  0
 14 15  2  0
 15 16  1  0
 16 17  2  0
 17 18  1  0
 17 19  1  0
 19 20  2  0
  9 21  1  0
 21 22  2  0
 22 23  1  0
 23 24  2  0
 24  4  1  0
 24  8  1  0
 20 14  1  0
  1 25  1  0
  1 26  1  0
  1 27  1  0
  3 28  1  0
  3 29  1  0
  3 30  1  0
  5 31  1  0
  6 32  1  0
  7 33  1  0
 13 34  1  0
 16 35  1  0
 19 36  1  0
 21 37  1  0
 22 38  1  0
 23 39  1  0
M  END
$$$$
