
     RDKit          3D

 57 61  0  0  0  0  0  0  0  0999 V2000
   -2.6968   -2.6154    1.1726 C   0  0  0  0  0  0  0  0  0  0  0  0
   -3.0797   -1.2534    0.8146 N   0  0  0  0  0  0  0  0  0  0  0  0
   -2.3270   -0.1420    0.9851 C   0  0  0  0  0  0  0  0  0  0  0  0
   -2.9833    0.9684    0.4598 C   0  0  0  0  0  0  0  0  0  0  0  0
   -2.4769    2.3539    0.4269 C   0  0  0  0  0  0  0  0  0  0  0  0
   -1.2155    2.7385    0.1913 C   0  0  0  0  0  0  0  0  0  0  0  0
   -0.0840    1.8824   -0.2094 C   0  0  0  0  0  0  0  0  0  0  0  0
    1.1836    1.8901    0.3607 C   0  0  0  0  0  0  0  0  0  0  0  0
    1.9635    0.9473   -0.2191 N   0  0  0  0  0  0  0  0  0  0  0  0
    3.3299    0.6062    0.1765 C   0  0  0  0  0  0  0  0  0  0  0  0
    3.3137   -0.5725    1.1577 C   0  0  0  0  0  0  0  0  0  0  0  0
    4.7113   -0.9171    1.6940 C   0  0  0  0  0  0  0  0  0  0  0  0
    5.6006   -1.5849    0.6347 C   0  0  0  0  0  0  0  0  0  0  0  0
    6.9352   -2.0301    1.2384 C   0  0  0  0  0  0  0  0  0  0  0  0
    7.7242   -2.6546    0.2627 O   0  0  0  0  0  0  0  0  0  0  0  0
    1.1991    0.3402   -1.1515 C   0  0  0  0  0  0  0  0  0  0  0  0
    1.5517   -0.7104   -2.0043 C   0  0  0  0  0  0  0  0  0  0  0  0
    0.5863   -1.1727   -2.9160 C   0  0  0  0  0  0  0  0  0  0  0  0
   -0.6932   -0.5797   -2.9655 C   0  0  0  0  0  0  0  0  0  0  0  0
   -1.0237    0.4742   -2.0967 C   0  0  0  0  0  0  0  0  0  0  0  0
   -0.0559    0.8979   -1.1833 C   0  0  0  0  0  0  0  0  0  0  0  0
   -1.1376    4.1797    0.4350 C   0  0  0  0  0  0  0  0  0  0  0  0
   -0.1011    4.8855    0.3218 O   0  0  0  0  0  0  0  0  0  0  0  0
   -2.4021    4.6966    0.8172 N   0  0  0  0  0  0  0  0  0  0  0  0
   -3.2329    3.5462    0.8222 C   0  0  0  0  0  0  0  0  0  0  0  0
   -4.4382    3.5621    1.1858 O   0  0  0  0  0  0  0  0  0  0  0  0
   -4.1766    0.4927   -0.0543 C   0  0  0  0  0  0  0  0  0  0  0  0
   -5.1959    1.1340   -0.7603 C   0  0  0  0  0  0  0  0  0  0  0  0
   -6.2765    0.3550   -1.2100 C   0  0  0  0  0  0  0  0  0  0  0  0
   -6.3085   -1.0344   -0.9636 C   0  0  0  0  0  0  0  0  0  0  0  0
   -5.2574   -1.6598   -0.2699 C   0  0  0  0  0  0  0  0  0  0  0  0
   -4.1993   -0.8621    0.1738 C   0  0  0  0  0  0  0  0  0  0  0  0
   -3.5210   -3.1037    1.7337 H   0  0  0  0  0  0  0  0  0  0  0  0
   -2.4830   -3.1960    0.2508 H   0  0  0  0  0  0  0  0  0  0  0  0
   -1.7892   -2.6087    1.8132 H   0  0  0  0  0  0  0  0  0  0  0  0
   -1.3519   -0.1350    1.4559 H   0  0  0  0  0  0  0  0  0  0  0  0
    1.5037    2.5273    1.1756 H   0  0  0  0  0  0  0  0  0  0  0  0
    3.9228    0.3560   -0.7275 H   0  0  0  0  0  0  0  0  0  0  0  0
    3.8084    1.4876    0.6574 H   0  0  0  0  0  0  0  0  0  0  0  0
    2.8645   -1.4653    0.6706 H   0  0  0  0  0  0  0  0  0  0  0  0
    2.6669   -0.3022    2.0210 H   0  0  0  0  0  0  0  0  0  0  0  0
    5.2050    0.0018    2.0798 H   0  0  0  0  0  0  0  0  0  0  0  0
    4.5862   -1.6166    2.5496 H   0  0  0  0  0  0  0  0  0  0  0  0
    5.0801   -2.4731    0.2143 H   0  0  0  0  0  0  0  0  0  0  0  0
    5.8055   -0.8712   -0.1911 H   0  0  0  0  0  0  0  0  0  0  0  0
    7.4754   -1.1566    1.6704 H   0  0  0  0  0  0  0  0  0  0  0  0
    6.7484   -2.7578    2.0568 H   0  0  0  0  0  0  0  0  0  0  0  0
    8.0987   -1.9317   -0.3056 H   0  0  0  0  0  0  0  0  0  0  0  0
    2.5351   -1.1600   -1.9730 H   0  0  0  0  0  0  0  0  0  0  0  0
    0.8290   -1.9840   -3.5898 H   0  0  0  0  0  0  0  0  0  0  0  0
   -1.4241   -0.9363   -3.6794 H   0  0  0  0  0  0  0  0  0  0  0  0
   -1.9977    0.9414   -2.1463 H   0  0  0  0  0  0  0  0  0  0  0  0
   -2.6479    5.6749    1.0861 H   0  0  0  0  0  0  0  0  0  0  0  0
   -5.1551    2.1932   -0.9751 H   0  0  0  0  0  0  0  0  0  0  0  0
   -7.0842    0.8224   -1.7580 H   0  0  0  0  0  0  0  0  0  0  0  0
   -7.1425   -1.6246   -1.3205 H   0  0  0  0  0  0  0  0  0  0  0  0
   -5.2706   -2.7276   -0.0956 H   0  0  0  0  0  0  0  0  0  0  0  0
  1  2  1  0
  2  3  1  0
  3  4  2  0
  4  5  1  0
  5  6  2  0
  6  7  1  0
  7  8  2  0
  8  9  1  0
  9 10  1  0
 10 11  1  0
 11 12  1  0
 12 13  1  0
 13 14  1  0
 14 15  1  0
  9 16  1  0
 16 17  2  0
 17 18  1  0
 18 19  2  0
 19 20  1  0
 20 21  2  0
  6 22  1  0
 22 23  2  0
 22 24  1  0
 24 25  1  0
 25 26  2  0
  4 27  1  0
 27 28  2  0
 28 29  1  0
 29 30  2  0
 30 31  1  0
 31 32  2  0
 32  2  1  0
 25  5  1  0
 32 27  1  0
 21  7  1  0
 21 16  1  0
  1 33  1  0
  1 34  1  0
  1 35  1  0
  3 36  1  0
  8 37  1  0
 10 38  1  0
 10 39  1  0
 11 40  1  0
 11 41  1  0
 12 42  1  0
 12 43  1  0
 13 44  1  0
 13 45  1  0
 14 46  1  0
 14 47  1  0
 15 48  1  0
 17 49  1  0
 18 50  1  0
 19 51  1  0
 20 52  1  0
 24 53  1  0
 28 54  1  0
 29 55  1  0
 30 56  1  0
 31 57  1  0
M  END
$$$$
