
     RDKit          3D

 43 45  0  0  0  0  0  0  0  0999 V2000
    6.1463   -2.0310    1.2673 C   0  0  0  0  0  0  0  0  0  0  0  0
    4.9931   -1.8058    0.4655 O   0  0  0  0  0  0  0  0  0  0  0  0
    4.1232   -0.7303    0.6744 C   0  0  0  0  0  0  0  0  0  0  0  0
    4.3542    0.1625    1.6774 N   0  0  0  0  0  0  0  0  0  0  0  0
    3.5223    1.2126    1.8987 C   0  0  0  0  0  0  0  0  0  0  0  0
    3.8568    2.3359    3.2006 Cl  0  0  0  0  0  0  0  0  0  0  0  0
    2.4054    1.3842    1.0815 C   0  0  0  0  0  0  0  0  0  0  0  0
    2.1719    0.4973    0.0807 N   0  0  0  0  0  0  0  0  0  0  0  0
    2.9970   -0.5585   -0.1493 C   0  0  0  0  0  0  0  0  0  0  0  0
    2.7171   -1.4806   -1.2128 N   0  0  0  0  0  0  0  0  0  0  0  0
    1.3192   -1.3600   -2.2351 S   0  0  0  0  0  6  0  0  0  0  0  0
    1.2090   -2.6364   -3.0221 O   0  0  0  0  0  0  0  0  0  0  0  0
    1.5044   -0.2477   -3.2268 O   0  0  0  0  0  0  0  0  0  0  0  0
   -0.1646   -1.2015   -1.2591 C   0  0  0  0  0  0  0  0  0  0  0  0
   -0.6779   -2.3963   -0.7322 C   0  0  0  0  0  0  0  0  0  0  0  0
   -1.8546   -2.4117    0.0074 C   0  0  0  0  0  0  0  0  0  0  0  0
   -2.5525   -1.2334    0.2393 C   0  0  0  0  0  0  0  0  0  0  0  0
   -2.0722   -0.0081   -0.2548 C   0  0  0  0  0  0  0  0  0  0  0  0
   -2.7796    1.1918   -0.0009 C   0  0  0  0  0  0  0  0  0  0  0  0
   -4.0268    1.1860    0.7112 N   0  0  0  0  0  0  0  0  0  0  0  0
   -5.2598    0.8061    0.0232 C   0  0  0  0  0  0  0  0  0  0  0  0
   -4.0767    1.7067    2.0760 C   0  0  0  0  0  0  0  0  0  0  0  0
   -2.2667    2.4103   -0.4527 C   0  0  0  0  0  0  0  0  0  0  0  0
   -1.0645    2.4529   -1.1482 C   0  0  0  0  0  0  0  0  0  0  0  0
   -0.3624    1.2795   -1.4182 C   0  0  0  0  0  0  0  0  0  0  0  0
   -0.8511    0.0238   -0.9961 C   0  0  0  0  0  0  0  0  0  0  0  0
    6.6694   -2.9400    0.9061 H   0  0  0  0  0  0  0  0  0  0  0  0
    5.8492   -2.1838    2.3265 H   0  0  0  0  0  0  0  0  0  0  0  0
    6.8370   -1.1645    1.1918 H   0  0  0  0  0  0  0  0  0  0  0  0
    1.7270    2.2126    1.2371 H   0  0  0  0  0  0  0  0  0  0  0  0
    3.3642   -2.2812   -1.3878 H   0  0  0  0  0  0  0  0  0  0  0  0
   -0.1624   -3.3340   -0.8984 H   0  0  0  0  0  0  0  0  0  0  0  0
   -2.2309   -3.3473    0.4012 H   0  0  0  0  0  0  0  0  0  0  0  0
   -3.4631   -1.2879    0.8217 H   0  0  0  0  0  0  0  0  0  0  0  0
   -5.8256    0.0766    0.6402 H   0  0  0  0  0  0  0  0  0  0  0  0
   -5.0368    0.3365   -0.9592 H   0  0  0  0  0  0  0  0  0  0  0  0
   -5.8850    1.7078   -0.1451 H   0  0  0  0  0  0  0  0  0  0  0  0
   -3.4285    1.0893    2.7329 H   0  0  0  0  0  0  0  0  0  0  0  0
   -3.7202    2.7580    2.0948 H   0  0  0  0  0  0  0  0  0  0  0  0
   -5.1136    1.6784    2.4740 H   0  0  0  0  0  0  0  0  0  0  0  0
   -2.8033    3.3311   -0.2609 H   0  0  0  0  0  0  0  0  0  0  0  0
   -0.6684    3.4054   -1.4768 H   0  0  0  0  0  0  0  0  0  0  0  0
    0.5804    1.3948   -1.9185 H   0  0  0  0  0  0  0  0  0  0  0  0
  1  2  1  0
  2  3  1  0
  3  4  2  0
  4  5  1  0
  5  6  1  0
  5  7  2  0
  7  8  1  0
  8  9  2  0
  9 10  1  0
 10 11  1  0
 11 12  2  0
 11 13  2  0
 11 14  1  0
 14 15  2  0
 15 16  1  0
 16 17  2  0
 17 18  1  0
 18 19  2  0
 19 20  1  0
 20 21  1  0
 20 22  1  0
 19 23  1  0
 23 24  2  0
 24 25  1  0
 25 26  2  0
  9  3  1  0
 26 14  1  0
 26 18  1  0
  1 27  1  0
  1 28  1  0
  1 29  1  0
  7 30  1  0
 10 31  1  0
 15 32  1  0
 16 33  1  0
 17 34  1  0
 21 35  1  0
 21 36  1  0
 21 37  1  0
 22 38  1  0
 22 39  1  0
 22 40  1  0
 23 41  1  0
 24 42  1  0
 25 43  1  0
M  END
$$$$
