
     RDKit          3D

 49 51  0  0  0  0  0  0  0  0999 V2000
    2.3093    2.3777    2.2602 C   0  0  0  0  0  0  0  0  0  0  0  0
    1.7674    3.3567    1.2461 C   0  0  0  0  0  0  0  0  0  0  0  0
    2.6101    4.5325    0.8267 C   0  0  0  0  0  0  0  0  0  0  0  0
    0.5418    3.2139    0.6933 C   0  0  0  0  0  0  0  0  0  0  0  0
   -0.3809    2.0439    0.9395 C   0  0  0  0  0  0  0  0  0  0  0  0
   -0.3969    1.1042   -0.2743 C   0  0  1  0  0  0  0  0  0  0  0  0
    0.9228    0.6153   -0.5290 O   0  0  0  0  0  0  0  0  0  0  0  0
    1.2796   -0.0527   -1.7079 C   0  0  0  0  0  0  0  0  0  0  0  0
    0.4285   -0.2113   -2.6262 O   0  0  0  0  0  0  0  0  0  0  0  0
    2.6545   -0.5725   -1.8737 C   0  0  0  0  0  0  0  0  0  0  0  0
    3.0509   -1.1846   -3.0784 C   0  0  0  0  0  0  0  0  0  0  0  0
    4.3518   -1.6752   -3.2275 C   0  0  0  0  0  0  0  0  0  0  0  0
    5.2686   -1.5618   -2.1792 C   0  0  0  0  0  0  0  0  0  0  0  0
    4.8862   -0.9566   -0.9796 C   0  0  0  0  0  0  0  0  0  0  0  0
    3.5869   -0.4634   -0.8256 C   0  0  0  0  0  0  0  0  0  0  0  0
   -1.3547   -0.0497   -0.0296 C   0  0  0  0  0  0  0  0  0  0  0  0
   -0.9799   -1.0713    0.7535 C   0  0  0  0  0  0  0  0  0  0  0  0
   -1.8747   -2.2044    1.0248 C   0  0  0  0  0  0  0  0  0  0  0  0
   -1.5028   -3.0642    1.8657 O   0  0  0  0  0  0  0  0  0  0  0  0
   -3.2200   -2.2698    0.3880 C   0  0  0  0  0  0  0  0  0  0  0  0
   -4.0577   -3.4139    0.4823 C   0  0  0  0  0  0  0  0  0  0  0  0
   -3.6196   -4.6451    0.9755 O   0  0  0  0  0  0  0  0  0  0  0  0
   -5.3762   -3.3446    0.0330 C   0  0  0  0  0  0  0  0  0  0  0  0
   -5.8738   -2.1769   -0.5317 C   0  0  0  0  0  0  0  0  0  0  0  0
   -5.0596   -1.0547   -0.6821 C   0  0  0  0  0  0  0  0  0  0  0  0
   -5.6598    0.1012   -1.1878 O   0  0  0  0  0  0  0  0  0  0  0  0
   -3.6950   -1.1148   -0.2887 C   0  0  0  0  0  0  0  0  0  0  0  0
   -2.7182   -0.0334   -0.6166 C   0  0  0  0  0  0  0  0  0  0  0  0
   -3.0080    0.8581   -1.4591 O   0  0  0  0  0  0  0  0  0  0  0  0
    3.3492    2.6281    2.5553 H   0  0  0  0  0  0  0  0  0  0  0  0
    2.3130    1.3515    1.8389 H   0  0  0  0  0  0  0  0  0  0  0  0
    1.6808    2.3981    3.1748 H   0  0  0  0  0  0  0  0  0  0  0  0
    2.8097    4.4768   -0.2650 H   0  0  0  0  0  0  0  0  0  0  0  0
    2.0738    5.4795    1.0484 H   0  0  0  0  0  0  0  0  0  0  0  0
    3.5875    4.5513    1.3555 H   0  0  0  0  0  0  0  0  0  0  0  0
    0.2089    3.9463   -0.0387 H   0  0  0  0  0  0  0  0  0  0  0  0
   -0.1088    1.4821    1.8569 H   0  0  0  0  0  0  0  0  0  0  0  0
   -1.4050    2.4447    1.1003 H   0  0  0  0  0  0  0  0  0  0  0  0
   -0.7242    1.6970   -1.1570 H   0  0  0  0  0  0  0  0  0  0  0  0
    2.3579   -1.2828   -3.9054 H   0  0  0  0  0  0  0  0  0  0  0  0
    4.6493   -2.1438   -4.1573 H   0  0  0  0  0  0  0  0  0  0  0  0
    6.2747   -1.9429   -2.2962 H   0  0  0  0  0  0  0  0  0  0  0  0
    5.5971   -0.8703   -0.1672 H   0  0  0  0  0  0  0  0  0  0  0  0
    3.3134   -0.0023    0.1137 H   0  0  0  0  0  0  0  0  0  0  0  0
    0.0022   -1.0718    1.2141 H   0  0  0  0  0  0  0  0  0  0  0  0
   -2.6473   -4.9052    1.0575 H   0  0  0  0  0  0  0  0  0  0  0  0
   -6.0215   -4.2101    0.1177 H   0  0  0  0  0  0  0  0  0  0  0  0
   -6.9086   -2.1390   -0.8491 H   0  0  0  0  0  0  0  0  0  0  0  0
   -5.2826    1.0302   -1.0635 H   0  0  0  0  0  0  0  0  0  0  0  0
  1  2  1  0
  2  3  1  0
  2  4  2  3
  4  5  1  0
  5  6  1  0
  6  7  1  0
  7  8  1  0
  8  9  2  0
  8 10  1  0
 10 11  2  0
 11 12  1  0
 12 13  2  0
 13 14  1  0
 14 15  2  0
  6 16  1  0
 16 17  2  0
 17 18  1  0
 18 19  2  0
 18 20  1  0
 20 21  2  0
 21 22  1  0
 21 23  1  0
 23 24  2  0
 24 25  1  0
 25 26  1  0
 25 27  2  0
 27 28  1  0
 28 29  2  0
 15 10  1  0
 28 16  1  0
 27 20  1  0
  1 30  1  0
  1 31  1  0
  1 32  1  0
  3 33  1  0
  3 34  1  0
  3 35  1  0
  4 36  1  0
  5 37  1  0
  5 38  1  0
  6 39  1  6
 11 40  1  0
 12 41  1  0
 13 42  1  0
 14 43  1  0
 15 44  1  0
 17 45  1  0
 22 46  1  0
 23 47  1  0
 24 48  1  0
 26 49  1  0
M  END
$$$$
