
     RDKit          3D

 63 66  0  0  0  0  0  0  0  0999 V2000
   -2.7400    6.8317    1.9220 C   0  0  0  0  0  0  0  0  0  0  0  0
   -2.1682    5.6215    2.4076 O   0  0  0  0  0  0  0  0  0  0  0  0
   -1.9307    4.4858    1.6192 C   0  0  0  0  0  0  0  0  0  0  0  0
   -1.3619    3.3612    2.2272 C   0  0  0  0  0  0  0  0  0  0  0  0
   -1.1052    2.2055    1.4851 C   0  0  0  0  0  0  0  0  0  0  0  0
   -1.4062    2.1600    0.1126 C   0  0  0  0  0  0  0  0  0  0  0  0
   -1.1590    0.9034   -0.6971 C   0  0  2  0  0  0  0  0  0  0  0  0
   -2.2114   -0.1648   -0.4040 C   0  0  1  0  0  0  0  0  0  0  0  0
   -3.4730    0.0247   -1.2054 C   0  0  0  0  0  0  0  0  0  0  0  0
   -4.5816    0.1238   -0.6149 O   0  0  0  0  0  0  0  0  0  0  0  0
   -3.4232    0.0849   -2.5957 O   0  0  0  0  0  0  0  0  0  0  0  0
   -1.4915   -1.4704   -0.7402 C   0  0  2  0  0  0  0  0  0  0  0  0
   -1.9488   -2.6305    0.1265 C   0  0  0  0  0  0  0  0  0  0  0  0
   -1.7443   -2.6220    1.5350 C   0  0  0  0  0  0  0  0  0  0  0  0
   -2.1849   -3.6946    2.3306 C   0  0  0  0  0  0  0  0  0  0  0  0
   -2.8271   -4.7523    1.6967 C   0  0  0  0  0  0  0  0  0  0  0  0
   -3.0328   -4.7683    0.3564 C   0  0  0  0  0  0  0  0  0  0  0  0
   -2.6129   -3.7288   -0.4681 C   0  0  0  0  0  0  0  0  0  0  0  0
   -3.6914   -5.9311    0.0057 O   0  0  0  0  0  0  0  0  0  0  0  0
   -3.9121   -6.6932    1.2010 C   0  0  0  0  0  0  0  0  0  0  0  0
   -3.3452   -5.9043    2.2564 O   0  0  0  0  0  0  0  0  0  0  0  0
    0.0042   -1.1495   -0.5912 C   0  0  0  0  0  0  0  0  0  0  0  0
    0.1368    0.3000   -0.3506 N   0  0  0  0  0  0  0  0  0  0  0  0
    1.2470    0.9045   -1.1122 C   0  0  0  0  0  0  0  0  0  0  0  0
    2.5642    0.4910   -0.5167 C   0  0  0  0  0  0  0  0  0  0  0  0
    3.3707   -0.3869   -1.1311 C   0  0  0  0  0  0  0  0  0  0  0  0
    4.6850   -0.8098   -0.5299 C   0  0  0  0  0  0  0  0  0  0  0  0
    5.8783   -0.2131   -1.3026 C   0  0  0  0  0  0  0  0  0  0  0  0
    7.1893   -0.8502   -0.8261 C   0  0  0  0  0  0  0  0  0  0  0  0
    5.9466    1.3128   -1.1405 C   0  0  0  0  0  0  0  0  0  0  0  0
   -1.9891    3.2831   -0.4955 C   0  0  0  0  0  0  0  0  0  0  0  0
   -2.2455    4.4389    0.2480 C   0  0  0  0  0  0  0  0  0  0  0  0
   -3.7602    6.6405    1.5273 H   0  0  0  0  0  0  0  0  0  0  0  0
   -2.8127    7.5586    2.7566 H   0  0  0  0  0  0  0  0  0  0  0  0
   -2.0973    7.2656    1.1272 H   0  0  0  0  0  0  0  0  0  0  0  0
   -1.1207    3.3823    3.2824 H   0  0  0  0  0  0  0  0  0  0  0  0
   -0.6743    1.3449    1.9817 H   0  0  0  0  0  0  0  0  0  0  0  0
   -1.1789    1.1432   -1.7882 H   0  0  0  0  0  0  0  0  0  0  0  0
   -2.4635   -0.1400    0.6809 H   0  0  0  0  0  0  0  0  0  0  0  0
   -4.2674    0.2107   -3.1409 H   0  0  0  0  0  0  0  0  0  0  0  0
   -1.6639   -1.7170   -1.8138 H   0  0  0  0  0  0  0  0  0  0  0  0
   -1.2466   -1.7870    2.0120 H   0  0  0  0  0  0  0  0  0  0  0  0
   -2.0315   -3.6965    3.4016 H   0  0  0  0  0  0  0  0  0  0  0  0
   -2.7977   -3.7718   -1.5339 H   0  0  0  0  0  0  0  0  0  0  0  0
   -3.3924   -7.6718    1.1327 H   0  0  0  0  0  0  0  0  0  0  0  0
   -5.0003   -6.8342    1.3701 H   0  0  0  0  0  0  0  0  0  0  0  0
    0.4679   -1.6917    0.2602 H   0  0  0  0  0  0  0  0  0  0  0  0
    0.5382   -1.4765   -1.5132 H   0  0  0  0  0  0  0  0  0  0  0  0
    1.1916    2.0130   -1.0417 H   0  0  0  0  0  0  0  0  0  0  0  0
    1.1841    0.6432   -2.1939 H   0  0  0  0  0  0  0  0  0  0  0  0
    2.8330    0.8875    0.4587 H   0  0  0  0  0  0  0  0  0  0  0  0
    3.0994   -0.7850   -2.1052 H   0  0  0  0  0  0  0  0  0  0  0  0
    4.7452   -0.5263    0.5448 H   0  0  0  0  0  0  0  0  0  0  0  0
    4.7299   -1.9193   -0.5787 H   0  0  0  0  0  0  0  0  0  0  0  0
    5.7615   -0.4469   -2.3847 H   0  0  0  0  0  0  0  0  0  0  0  0
    8.0467   -0.4429   -1.4039 H   0  0  0  0  0  0  0  0  0  0  0  0
    7.3548   -0.6461    0.2540 H   0  0  0  0  0  0  0  0  0  0  0  0
    7.1616   -1.9497   -0.9836 H   0  0  0  0  0  0  0  0  0  0  0  0
    5.0361    1.7898   -1.5600 H   0  0  0  0  0  0  0  0  0  0  0  0
    6.0361    1.5897   -0.0680 H   0  0  0  0  0  0  0  0  0  0  0  0
    6.8235    1.7180   -1.6894 H   0  0  0  0  0  0  0  0  0  0  0  0
   -2.2470    3.2650   -1.5472 H   0  0  0  0  0  0  0  0  0  0  0  0
   -2.6911    5.2880   -0.2518 H   0  0  0  0  0  0  0  0  0  0  0  0
  1  2  1  0
  2  3  1  0
  3  4  2  0
  4  5  1  0
  5  6  2  0
  6  7  1  0
  7  8  1  0
  8  9  1  0
  9 10  2  0
  9 11  1  0
  8 12  1  0
 12 13  1  0
 13 14  2  0
 14 15  1  0
 15 16  2  0
 16 17  1  0
 17 18  2  0
 17 19  1  0
 19 20  1  0
 20 21  1  0
 12 22  1  0
 22 23  1  0
 23 24  1  0
 24 25  1  0
 25 26  2  0
 26 27  1  0
 27 28  1  0
 28 29  1  0
 28 30  1  0
  6 31  1  0
 31 32  2  0
 32  3  1  0
 23  7  1  0
 18 13  1  0
 21 16  1  0
  1 33  1  0
  1 34  1  0
  1 35  1  0
  4 36  1  0
  5 37  1  0
  7 38  1  6
  8 39  1  1
 11 40  1  0
 12 41  1  6
 14 42  1  0
 15 43  1  0
 18 44  1  0
 20 45  1  0
 20 46  1  0
 22 47  1  0
 22 48  1  0
 24 49  1  0
 24 50  1  0
 25 51  1  0
 26 52  1  0
 27 53  1  0
 27 54  1  0
 28 55  1  0
 29 56  1  0
 29 57  1  0
 29 58  1  0
 30 59  1  0
 30 60  1  0
 30 61  1  0
 31 62  1  0
 32 63  1  0
M  END
$$$$
