
     RDKit          3D

 59 62  0  0  0  0  0  0  0  0999 V2000
    9.0631   -0.4134    2.0854 C   0  0  0  0  0  0  0  0  0  0  0  0
    7.6484   -0.5810    2.1060 O   0  0  0  0  0  0  0  0  0  0  0  0
    6.8197   -0.4420    0.9831 C   0  0  0  0  0  0  0  0  0  0  0  0
    7.3271   -0.0806   -0.2976 C   0  0  0  0  0  0  0  0  0  0  0  0
    6.4639    0.0426   -1.4033 C   0  0  0  0  0  0  0  0  0  0  0  0
    5.1078   -0.1988   -1.2025 C   0  0  0  0  0  0  0  0  0  0  0  0
    4.1262   -0.1524   -2.1185 N   0  0  0  0  0  0  0  0  0  0  0  0
    2.9877   -0.4574   -1.4504 C   0  0  0  0  0  0  0  0  0  0  0  0
    1.6666   -0.5573   -2.0981 C   0  0  0  0  0  0  0  0  0  0  0  0
    1.6052   -0.6556   -3.3542 O   0  0  0  0  0  0  0  0  0  0  0  0
    0.4547   -0.5733   -1.3223 N   0  0  0  0  0  0  0  0  0  0  0  0
    0.1796    0.5051   -0.3653 C   0  0  0  0  0  0  0  0  0  0  0  0
   -0.5638   -0.0556    0.8465 C   0  0  0  0  0  0  0  0  0  0  0  0
   -1.7030   -0.8628    0.4007 N   0  0  0  0  0  0  0  0  0  0  0  0
   -2.8511   -0.9631    1.2526 C   0  0  0  0  0  0  0  0  0  0  0  0
   -2.9874   -2.0483    2.0646 N   0  0  0  0  0  0  0  0  0  0  0  0
   -4.0602   -2.2053    2.8832 C   0  0  0  0  0  0  0  0  0  0  0  0
   -5.0625   -1.2368    2.9125 C   0  0  0  0  0  0  0  0  0  0  0  0
   -4.9569   -0.1174    2.0858 C   0  0  0  0  0  0  0  0  0  0  0  0
   -3.8553    0.0257    1.2268 C   0  0  0  0  0  0  0  0  0  0  0  0
   -3.7283    1.1647    0.3528 N   0  0  0  0  0  0  0  0  0  0  0  0
   -4.7432    1.6252   -0.6183 C   0  0  0  0  0  0  0  0  0  0  0  0
   -4.0163    2.1699   -1.8664 C   0  0  0  0  0  0  0  0  0  0  0  0
   -5.5735    2.7633    0.0032 C   0  0  0  0  0  0  0  0  0  0  0  0
   -5.6673    0.4708   -1.0657 C   0  0  0  0  0  0  0  0  0  0  0  0
   -1.4531   -1.9302   -0.5718 C   0  0  0  0  0  0  0  0  0  0  0  0
   -0.6825   -1.3823   -1.7756 C   0  0  0  0  0  0  0  0  0  0  0  0
    3.2538   -0.7141   -0.1044 C   0  0  0  0  0  0  0  0  0  0  0  0
    4.6136   -0.5389    0.0285 C   0  0  0  0  0  0  0  0  0  0  0  0
    5.4388   -0.6727    1.1442 C   0  0  0  0  0  0  0  0  0  0  0  0
    9.5240   -1.1436    1.3891 H   0  0  0  0  0  0  0  0  0  0  0  0
    9.3204    0.6227    1.7801 H   0  0  0  0  0  0  0  0  0  0  0  0
    9.4624   -0.5956    3.1032 H   0  0  0  0  0  0  0  0  0  0  0  0
    8.3822    0.1042   -0.4459 H   0  0  0  0  0  0  0  0  0  0  0  0
    6.8452    0.3124   -2.3797 H   0  0  0  0  0  0  0  0  0  0  0  0
    4.2236    0.0763   -3.1345 H   0  0  0  0  0  0  0  0  0  0  0  0
   -0.4484    1.2788   -0.8591 H   0  0  0  0  0  0  0  0  0  0  0  0
    1.1148    0.9978   -0.0260 H   0  0  0  0  0  0  0  0  0  0  0  0
   -0.9011    0.7845    1.4918 H   0  0  0  0  0  0  0  0  0  0  0  0
    0.1229   -0.6924    1.4452 H   0  0  0  0  0  0  0  0  0  0  0  0
   -4.1319   -3.0802    3.5163 H   0  0  0  0  0  0  0  0  0  0  0  0
   -5.9145   -1.3528    3.5706 H   0  0  0  0  0  0  0  0  0  0  0  0
   -5.7310    0.6326    2.1294 H   0  0  0  0  0  0  0  0  0  0  0  0
   -2.7828    1.6088    0.3051 H   0  0  0  0  0  0  0  0  0  0  0  0
   -4.7427    2.5399   -2.6217 H   0  0  0  0  0  0  0  0  0  0  0  0
   -3.3999    1.3702   -2.3331 H   0  0  0  0  0  0  0  0  0  0  0  0
   -3.3430    3.0095   -1.5918 H   0  0  0  0  0  0  0  0  0  0  0  0
   -6.1701    2.4065    0.8655 H   0  0  0  0  0  0  0  0  0  0  0  0
   -4.9062    3.5797    0.3587 H   0  0  0  0  0  0  0  0  0  0  0  0
   -6.2824    3.1874   -0.7430 H   0  0  0  0  0  0  0  0  0  0  0  0
   -6.3166    0.1258   -0.2352 H   0  0  0  0  0  0  0  0  0  0  0  0
   -6.3348    0.7998   -1.8925 H   0  0  0  0  0  0  0  0  0  0  0  0
   -5.0617   -0.3909   -1.4238 H   0  0  0  0  0  0  0  0  0  0  0  0
   -0.8608   -2.7367   -0.0869 H   0  0  0  0  0  0  0  0  0  0  0  0
   -2.4143   -2.3637   -0.9272 H   0  0  0  0  0  0  0  0  0  0  0  0
   -0.3332   -2.2388   -2.3936 H   0  0  0  0  0  0  0  0  0  0  0  0
   -1.3565   -0.7523   -2.3969 H   0  0  0  0  0  0  0  0  0  0  0  0
    2.5545   -1.0118    0.6670 H   0  0  0  0  0  0  0  0  0  0  0  0
    5.0302   -0.9525    2.1076 H   0  0  0  0  0  0  0  0  0  0  0  0
  1  2  1  0
  2  3  1  0
  3  4  2  0
  4  5  1  0
  5  6  2  0
  6  7  1  0
  7  8  1  0
  8  9  1  0
  9 10  2  0
  9 11  1  0
 11 12  1  0
 12 13  1  0
 13 14  1  0
 14 15  1  0
 15 16  2  0
 16 17  1  0
 17 18  2  0
 18 19  1  0
 19 20  2  0
 20 21  1  0
 21 22  1  0
 22 23  1  0
 22 24  1  0
 22 25  1  0
 14 26  1  0
 26 27  1  0
  8 28  2  0
 28 29  1  0
 29 30  2  0
 30  3  1  0
 29  6  1  0
 27 11  1  0
 20 15  1  0
  1 31  1  0
  1 32  1  0
  1 33  1  0
  4 34  1  0
  5 35  1  0
  7 36  1  0
 12 37  1  0
 12 38  1  0
 13 39  1  0
 13 40  1  0
 17 41  1  0
 18 42  1  0
 19 43  1  0
 21 44  1  0
 23 45  1  0
 23 46  1  0
 23 47  1  0
 24 48  1  0
 24 49  1  0
 24 50  1  0
 25 51  1  0
 25 52  1  0
 25 53  1  0
 26 54  1  0
 26 55  1  0
 27 56  1  0
 27 57  1  0
 28 58  1  0
 30 59  1  0
M  END
$$$$
