
     RDKit          3D

 51 55  0  0  0  0  0  0  0  0999 V2000
    2.3892   -1.3573   -2.6485 C   0  0  0  0  0  0  0  0  0  0  0  0
    1.6926   -1.2651   -1.2875 C   0  0  0  0  0  0  0  0  0  0  0  0
    0.3543   -2.0261   -1.3203 C   0  0  0  0  0  0  0  0  0  0  0  0
   -0.4639   -1.7344   -0.0904 C   0  0  0  0  0  0  0  0  0  0  0  0
   -0.6388   -2.7294    0.8968 C   0  0  0  0  0  0  0  0  0  0  0  0
   -1.4036   -2.4142    2.0140 C   0  0  0  0  0  0  0  0  0  0  0  0
   -1.9717   -1.1945    2.1764 C   0  0  0  0  0  0  0  0  0  0  0  0
   -1.8221   -0.1797    1.2381 C   0  0  0  0  0  0  0  0  0  0  0  0
   -1.0521   -0.4473    0.0838 C   0  0  0  0  0  0  0  0  0  0  0  0
   -0.8148    0.6318   -0.9125 C   0  0  0  0  0  0  0  0  0  0  0  0
   -1.9367    1.4716   -1.4073 C   0  0  0  0  0  0  0  0  0  0  0  0
   -1.6966    2.7765   -1.8770 C   0  0  0  0  0  0  0  0  0  0  0  0
   -2.7487    3.5659   -2.3503 C   0  0  0  0  0  0  0  0  0  0  0  0
   -4.0560    3.0636   -2.3691 C   0  0  0  0  0  0  0  0  0  0  0  0
   -5.1313    3.8721   -2.8539 N   0  0  0  0  0  0  0  0  0  0  0  0
   -4.3020    1.7624   -1.9131 C   0  0  0  0  0  0  0  0  0  0  0  0
   -3.2519    0.9709   -1.4390 C   0  0  0  0  0  0  0  0  0  0  0  0
    0.3933    0.8800   -1.3342 N   0  0  0  0  0  0  0  0  0  0  0  0
    1.5209    0.1522   -0.9085 N   0  0  0  0  0  0  0  0  0  0  0  0
    2.6519    0.8961   -0.4326 C   0  0  0  0  0  0  0  0  0  0  0  0
    2.9729    1.9677   -1.0145 O   0  0  0  0  0  0  0  0  0  0  0  0
    3.4206    0.4460    0.7497 C   0  0  0  0  0  0  0  0  0  0  0  0
    4.7616    0.8355    0.9156 C   0  0  0  0  0  0  0  0  0  0  0  0
    5.4839    0.4205    2.0389 C   0  0  0  0  0  0  0  0  0  0  0  0
    4.8733   -0.3776    3.0095 C   0  0  0  0  0  0  0  0  0  0  0  0
    3.5376   -0.7586    2.8612 C   0  0  0  0  0  0  0  0  0  0  0  0
    2.8112   -0.3463    1.7402 C   0  0  0  0  0  0  0  0  0  0  0  0
   -2.6648   -1.1643    3.3711 O   0  0  0  0  0  0  0  0  0  0  0  0
   -2.5234   -2.4468    3.9976 C   0  0  0  0  0  0  0  0  0  0  0  0
   -1.7111   -3.2137    3.0979 O   0  0  0  0  0  0  0  0  0  0  0  0
    2.5294   -2.4206   -2.9383 H   0  0  0  0  0  0  0  0  0  0  0  0
    1.7866   -0.8449   -3.4287 H   0  0  0  0  0  0  0  0  0  0  0  0
    3.3891   -0.8765   -2.5973 H   0  0  0  0  0  0  0  0  0  0  0  0
    2.3429   -1.7737   -0.5431 H   0  0  0  0  0  0  0  0  0  0  0  0
    0.5544   -3.1169   -1.4083 H   0  0  0  0  0  0  0  0  0  0  0  0
   -0.2338   -1.7369   -2.2193 H   0  0  0  0  0  0  0  0  0  0  0  0
   -0.1955   -3.7120    0.7975 H   0  0  0  0  0  0  0  0  0  0  0  0
   -2.2706    0.7911    1.4074 H   0  0  0  0  0  0  0  0  0  0  0  0
   -0.6965    3.1918   -1.8679 H   0  0  0  0  0  0  0  0  0  0  0  0
   -2.5448    4.5695   -2.7018 H   0  0  0  0  0  0  0  0  0  0  0  0
   -6.1093    3.5059   -2.8725 H   0  0  0  0  0  0  0  0  0  0  0  0
   -4.9575    4.8430   -3.1974 H   0  0  0  0  0  0  0  0  0  0  0  0
   -5.3069    1.3594   -1.9291 H   0  0  0  0  0  0  0  0  0  0  0  0
   -3.4688   -0.0377   -1.1106 H   0  0  0  0  0  0  0  0  0  0  0  0
    5.2529    1.4512    0.1724 H   0  0  0  0  0  0  0  0  0  0  0  0
    6.5178    0.7182    2.1569 H   0  0  0  0  0  0  0  0  0  0  0  0
    5.4339   -0.6970    3.8785 H   0  0  0  0  0  0  0  0  0  0  0  0
    3.0626   -1.3696    3.6179 H   0  0  0  0  0  0  0  0  0  0  0  0
    1.7715   -0.6362    1.6548 H   0  0  0  0  0  0  0  0  0  0  0  0
   -2.0134   -2.3401    4.9779 H   0  0  0  0  0  0  0  0  0  0  0  0
   -3.5177   -2.9257    4.1188 H   0  0  0  0  0  0  0  0  0  0  0  0
  1  2  1  0
  2  3  1  0
  3  4  1  0
  4  5  2  0
  5  6  1  0
  6  7  2  0
  7  8  1  0
  8  9  2  0
  9 10  1  0
 10 11  1  0
 11 12  2  0
 12 13  1  0
 13 14  2  0
 14 15  1  0
 14 16  1  0
 16 17  2  0
 10 18  2  0
 18 19  1  0
 19 20  1  0
 20 21  2  0
 20 22  1  0
 22 23  2  0
 23 24  1  0
 24 25  2  0
 25 26  1  0
 26 27  2  0
  7 28  1  0
 28 29  1  0
 29 30  1  0
 19  2  1  0
 27 22  1  0
  9  4  1  0
 17 11  1  0
 30  6  1  0
  1 31  1  0
  1 32  1  0
  1 33  1  0
  2 34  1  0
  3 35  1  0
  3 36  1  0
  5 37  1  0
  8 38  1  0
 12 39  1  0
 13 40  1  0
 15 41  1  0
 15 42  1  0
 16 43  1  0
 17 44  1  0
 23 45  1  0
 24 46  1  0
 25 47  1  0
 26 48  1  0
 27 49  1  0
 29 50  1  0
 29 51  1  0
M  END
$$$$
