
     RDKit          3D

 40 42  0  0  0  0  0  0  0  0999 V2000
   -2.6191    1.8114    3.1006 C   0  0  0  0  0  0  0  0  0  0  0  0
   -1.4106    1.0311    2.8397 N   0  0  0  0  0  0  0  0  0  0  0  0
   -0.3570    0.9451    3.8487 C   0  0  0  0  0  0  0  0  0  0  0  0
   -1.3218    0.2190    1.6592 C   0  0  0  0  0  0  0  0  0  0  0  0
   -1.5802   -1.1519    1.7601 C   0  0  0  0  0  0  0  0  0  0  0  0
   -1.5187   -1.9663    0.6336 C   0  0  0  0  0  0  0  0  0  0  0  0
   -1.1918   -1.4267   -0.6092 C   0  0  0  0  0  0  0  0  0  0  0  0
   -0.9062   -0.0520   -0.7475 C   0  0  0  0  0  0  0  0  0  0  0  0
   -0.5365    0.5163   -1.9974 C   0  0  0  0  0  0  0  0  0  0  0  0
   -0.3194   -0.4633   -3.4640 S   0  0  0  0  0  6  0  0  0  0  0  0
   -1.6292   -1.1159   -3.8066 O   0  0  0  0  0  0  0  0  0  0  0  0
    0.1006    0.3995   -4.6210 O   0  0  0  0  0  0  0  0  0  0  0  0
    0.8890   -1.6845   -3.2092 N   0  0  0  0  0  0  0  0  0  0  0  0
    1.8019   -1.6216   -2.1062 C   0  0  0  0  0  0  0  0  0  0  0  0
    1.8250   -2.6469   -1.2121 N   0  0  0  0  0  0  0  0  0  0  0  0
    2.6320   -2.6233   -0.1205 C   0  0  0  0  0  0  0  0  0  0  0  0
    3.4647   -1.5247    0.0911 C   0  0  0  0  0  0  0  0  0  0  0  0
    4.6009   -1.4472    1.6206 Br  0  0  0  0  0  0  0  0  0  0  0  0
    3.4726   -0.5105   -0.8117 N   0  0  0  0  0  0  0  0  0  0  0  0
    2.6690   -0.5277   -1.9079 C   0  0  0  0  0  0  0  0  0  0  0  0
    2.7776    0.5446   -2.8613 C   0  0  0  0  0  0  0  0  0  0  0  0
    2.8711    1.4084   -3.6258 N   0  0  0  0  0  0  0  0  0  0  0  0
   -0.2860    1.8941   -2.0784 C   0  0  0  0  0  0  0  0  0  0  0  0
   -0.3697    2.7027   -0.9488 C   0  0  0  0  0  0  0  0  0  0  0  0
   -0.7064    2.1548    0.2852 C   0  0  0  0  0  0  0  0  0  0  0  0
   -0.9833    0.7814    0.4057 C   0  0  0  0  0  0  0  0  0  0  0  0
   -3.1976    1.3381    3.9214 H   0  0  0  0  0  0  0  0  0  0  0  0
   -3.2599    1.8636    2.1940 H   0  0  0  0  0  0  0  0  0  0  0  0
   -2.3431    2.8460    3.3945 H   0  0  0  0  0  0  0  0  0  0  0  0
    0.6061    1.2804    3.4096 H   0  0  0  0  0  0  0  0  0  0  0  0
   -0.2528   -0.1031    4.2000 H   0  0  0  0  0  0  0  0  0  0  0  0
   -0.5912    1.5892    4.7232 H   0  0  0  0  0  0  0  0  0  0  0  0
   -1.8410   -1.5864    2.7170 H   0  0  0  0  0  0  0  0  0  0  0  0
   -1.7275   -3.0247    0.7233 H   0  0  0  0  0  0  0  0  0  0  0  0
   -1.1614   -2.1024   -1.4506 H   0  0  0  0  0  0  0  0  0  0  0  0
    0.6939   -2.6232   -3.6226 H   0  0  0  0  0  0  0  0  0  0  0  0
    2.6197   -3.4493    0.5779 H   0  0  0  0  0  0  0  0  0  0  0  0
   -0.0065    2.3500   -3.0188 H   0  0  0  0  0  0  0  0  0  0  0  0
   -0.1618    3.7620   -1.0288 H   0  0  0  0  0  0  0  0  0  0  0  0
   -0.7456    2.8137    1.1430 H   0  0  0  0  0  0  0  0  0  0  0  0
  1  2  1  0
  2  3  1  0
  2  4  1  0
  4  5  2  0
  5  6  1  0
  6  7  2  0
  7  8  1  0
  8  9  2  0
  9 10  1  0
 10 11  2  0
 10 12  2  0
 10 13  1  0
 13 14  1  0
 14 15  2  0
 15 16  1  0
 16 17  2  0
 17 18  1  0
 17 19  1  0
 19 20  2  0
 20 21  1  0
 21 22  3  0
  9 23  1  0
 23 24  2  0
 24 25  1  0
 25 26  2  0
 26  4  1  0
 26  8  1  0
 20 14  1  0
  1 27  1  0
  1 28  1  0
  1 29  1  0
  3 30  1  0
  3 31  1  0
  3 32  1  0
  5 33  1  0
  6 34  1  0
  7 35  1  0
 13 36  1  0
 16 37  1  0
 23 38  1  0
 24 39  1  0
 25 40  1  0
M  END
$$$$
