
     RDKit          3D

 54 57  0  0  0  0  0  0  0  0999 V2000
    6.2661   -2.6920    0.8343 C   0  0  0  0  0  0  0  0  0  0  0  0
    6.6732   -1.2548    0.5247 C   0  0  0  0  0  0  0  0  0  0  0  0
    5.7236   -0.6423   -0.4152 N   0  0  0  0  0  0  0  0  0  0  0  0
    4.6079    0.0024    0.2916 C   0  0  0  0  0  0  0  0  0  0  0  0
    3.5352    0.4541   -0.7130 C   0  0  0  0  0  0  0  0  0  0  0  0
    2.9052   -0.7167   -1.4821 C   0  0  0  0  0  0  0  0  0  0  0  0
    1.4555   -0.3155   -1.7227 C   0  0  0  0  0  0  0  0  0  0  0  0
    1.1864    0.7438   -0.7668 N   0  0  0  0  0  0  0  0  0  0  0  0
   -0.1233    1.2779   -0.5307 C   0  0  0  0  0  0  0  0  0  0  0  0
   -0.3964    2.6145   -0.8307 C   0  0  0  0  0  0  0  0  0  0  0  0
    0.5602    3.4050   -1.3792 F   0  0  0  0  0  0  0  0  0  0  0  0
   -1.6537    3.1486   -0.5655 C   0  0  0  0  0  0  0  0  0  0  0  0
   -2.6758    2.3474   -0.0224 C   0  0  0  0  0  0  0  0  0  0  0  0
   -3.9284    2.9042    0.2931 C   0  0  0  0  0  0  0  0  0  0  0  0
   -4.1484    4.1265    0.0664 O   0  0  0  0  0  0  0  0  0  0  0  0
   -4.9260    2.1035    0.8742 C   0  0  0  0  0  0  0  0  0  0  0  0
   -6.2490    2.6577    1.2740 C   0  0  0  0  0  0  0  0  0  0  0  0
   -7.1375    1.9001    1.7507 O   0  0  0  0  0  0  0  0  0  0  0  0
   -6.5283    4.0147    1.1337 O   0  0  0  0  0  0  0  0  0  0  0  0
   -4.6596    0.7408    1.0671 C   0  0  0  0  0  0  0  0  0  0  0  0
   -3.4747    0.1750    0.6814 N   0  0  0  0  0  0  0  0  0  0  0  0
   -3.3491   -1.2896    0.8163 C   0  0  0  0  0  0  0  0  0  0  0  0
   -4.5023   -2.0904    0.1985 C   0  0  0  0  0  0  0  0  0  0  0  0
   -3.1629   -2.0277   -0.5118 C   0  0  0  0  0  0  0  0  0  0  0  0
   -2.3547   -3.3236   -0.4452 C   0  0  0  0  0  0  0  0  0  0  0  0
   -2.4383    0.9688    0.2279 C   0  0  0  0  0  0  0  0  0  0  0  0
   -1.1264    0.4636    0.0154 C   0  0  0  0  0  0  0  0  0  0  0  0
   -0.7713   -0.7803    0.4222 F   0  0  0  0  0  0  0  0  0  0  0  0
    2.3650    1.1709   -0.0359 C   0  0  0  0  0  0  0  0  0  0  0  0
    5.2940   -2.7193    1.3686 H   0  0  0  0  0  0  0  0  0  0  0  0
    6.1808   -3.2750   -0.1073 H   0  0  0  0  0  0  0  0  0  0  0  0
    7.0356   -3.1658    1.4795 H   0  0  0  0  0  0  0  0  0  0  0  0
    6.7583   -0.6689    1.4680 H   0  0  0  0  0  0  0  0  0  0  0  0
    7.6840   -1.2806    0.0600 H   0  0  0  0  0  0  0  0  0  0  0  0
    6.2346    0.1037   -0.9440 H   0  0  0  0  0  0  0  0  0  0  0  0
    4.1499   -0.7008    1.0218 H   0  0  0  0  0  0  0  0  0  0  0  0
    4.9778    0.8915    0.8515 H   0  0  0  0  0  0  0  0  0  0  0  0
    3.9944    1.1531   -1.4487 H   0  0  0  0  0  0  0  0  0  0  0  0
    2.9271   -1.6467   -0.8711 H   0  0  0  0  0  0  0  0  0  0  0  0
    3.4366   -0.9014   -2.4409 H   0  0  0  0  0  0  0  0  0  0  0  0
    0.7784   -1.1813   -1.5611 H   0  0  0  0  0  0  0  0  0  0  0  0
    1.3237    0.0759   -2.7545 H   0  0  0  0  0  0  0  0  0  0  0  0
   -1.8230    4.1958   -0.7850 H   0  0  0  0  0  0  0  0  0  0  0  0
   -7.4278    4.3925    1.4065 H   0  0  0  0  0  0  0  0  0  0  0  0
   -5.4273    0.1158    1.5096 H   0  0  0  0  0  0  0  0  0  0  0  0
   -2.9007   -1.7033    1.7452 H   0  0  0  0  0  0  0  0  0  0  0  0
   -5.2929   -1.5122   -0.3251 H   0  0  0  0  0  0  0  0  0  0  0  0
   -4.7244   -3.0467    0.7186 H   0  0  0  0  0  0  0  0  0  0  0  0
   -3.1573   -1.4154   -1.4393 H   0  0  0  0  0  0  0  0  0  0  0  0
   -1.3031   -3.1146   -0.7303 H   0  0  0  0  0  0  0  0  0  0  0  0
   -2.7761   -4.0542   -1.1666 H   0  0  0  0  0  0  0  0  0  0  0  0
   -2.3649   -3.7759    0.5702 H   0  0  0  0  0  0  0  0  0  0  0  0
    2.4940    2.2723   -0.1025 H   0  0  0  0  0  0  0  0  0  0  0  0
    2.2564    0.8748    1.0307 H   0  0  0  0  0  0  0  0  0  0  0  0
  1  2  1  0
  2  3  1  0
  3  4  1  0
  4  5  1  0
  5  6  1  0
  6  7  1  0
  7  8  1  0
  8  9  1  0
  9 10  2  0
 10 11  1  0
 10 12  1  0
 12 13  2  0
 13 14  1  0
 14 15  2  0
 14 16  1  0
 16 17  1  0
 17 18  2  0
 17 19  1  0
 16 20  2  0
 20 21  1  0
 21 22  1  0
 22 23  1  0
 23 24  1  0
 24 25  1  0
 21 26  1  0
 26 27  2  0
 27 28  1  0
  8 29  1  0
 29  5  1  0
 27  9  1  0
 26 13  1  0
 24 22  1  0
  1 30  1  0
  1 31  1  0
  1 32  1  0
  2 33  1  0
  2 34  1  0
  3 35  1  0
  4 36  1  0
  4 37  1  0
  5 38  1  0
  6 39  1  0
  6 40  1  0
  7 41  1  0
  7 42  1  0
 12 43  1  0
 19 44  1  0
 20 45  1  0
 22 46  1  0
 23 47  1  0
 23 48  1  0
 24 49  1  0
 25 50  1  0
 25 51  1  0
 25 52  1  0
 29 53  1  0
 29 54  1  0
M  END
$$$$
