
     RDKit          3D

 56 58  0  0  0  0  0  0  0  0999 V2000
   -4.2449   -4.6038   -0.1488 C   0  0  0  0  0  0  0  0  0  0  0  0
   -4.7624   -3.2954   -0.7438 C   0  0  0  0  0  0  0  0  0  0  0  0
   -3.7051   -2.1813   -0.7402 C   0  0  0  0  0  0  0  0  0  0  0  0
   -3.3662   -1.6880    0.6733 C   0  0  0  0  0  0  0  0  0  0  0  0
   -2.4665   -0.5233    0.6027 N   0  0  0  0  0  0  0  0  0  0  0  0
   -1.1179   -0.7436    0.5491 C   0  0  0  0  0  0  0  0  0  0  0  0
   -0.2070    0.3190    0.4518 C   0  0  0  0  0  0  0  0  0  0  0  0
    1.2497    0.0375    0.3838 C   0  0  0  0  0  0  0  0  0  0  0  0
    2.0017    0.7916   -0.2924 O   0  0  0  0  0  0  0  0  0  0  0  0
    1.8117   -1.0864    1.0801 N   0  0  0  0  0  0  0  0  0  0  0  0
    3.2074   -1.4905    0.9188 C   0  0  0  0  0  0  0  0  0  0  0  0
    3.3997   -2.2290   -0.4115 C   0  0  0  0  0  0  0  0  0  0  0  0
    4.8321   -2.5038   -0.6601 N   0  0  0  0  0  0  0  0  0  0  0  0
    5.0664   -2.7057   -2.0996 C   0  0  0  0  0  0  0  0  0  0  0  0
    5.2799   -3.6979    0.0782 C   0  0  0  0  0  0  0  0  0  0  0  0
   -0.7088    1.6320    0.3989 C   0  0  0  0  0  0  0  0  0  0  0  0
    0.1397    2.6948    0.3267 N   0  0  0  0  0  0  0  0  0  0  0  0
   -0.2972    3.9819    0.2822 C   0  0  0  0  0  0  0  0  0  0  0  0
    0.6230    5.0468    0.2081 C   0  0  0  0  0  0  0  0  0  0  0  0
    2.1029    4.7795    0.1637 C   0  0  0  0  0  0  0  0  0  0  0  0
    0.1441    6.3670    0.1576 C   0  0  0  0  0  0  0  0  0  0  0  0
   -1.2291    6.6244    0.1883 C   0  0  0  0  0  0  0  0  0  0  0  0
   -2.1421    5.5708    0.2653 C   0  0  0  0  0  0  0  0  0  0  0  0
   -1.6836    4.2468    0.3115 C   0  0  0  0  0  0  0  0  0  0  0  0
   -2.5809    3.1750    0.3887 C   0  0  0  0  0  0  0  0  0  0  0  0
   -2.1012    1.8536    0.4388 C   0  0  0  0  0  0  0  0  0  0  0  0
   -2.9713    0.7510    0.5317 C   0  0  0  0  0  0  0  0  0  0  0  0
   -4.2206    0.9388    0.5475 O   0  0  0  0  0  0  0  0  0  0  0  0
   -3.2982   -4.9087   -0.6418 H   0  0  0  0  0  0  0  0  0  0  0  0
   -4.0763   -4.4984    0.9429 H   0  0  0  0  0  0  0  0  0  0  0  0
   -4.9986   -5.4040   -0.3064 H   0  0  0  0  0  0  0  0  0  0  0  0
   -5.6670   -2.9658   -0.1888 H   0  0  0  0  0  0  0  0  0  0  0  0
   -5.0654   -3.4880   -1.7957 H   0  0  0  0  0  0  0  0  0  0  0  0
   -4.1021   -1.3271   -1.3305 H   0  0  0  0  0  0  0  0  0  0  0  0
   -2.7804   -2.5363   -1.2450 H   0  0  0  0  0  0  0  0  0  0  0  0
   -2.8822   -2.5042    1.2533 H   0  0  0  0  0  0  0  0  0  0  0  0
   -4.2991   -1.4295    1.2216 H   0  0  0  0  0  0  0  0  0  0  0  0
   -0.7446   -1.7615    0.5549 H   0  0  0  0  0  0  0  0  0  0  0  0
    1.2348   -1.5898    1.7906 H   0  0  0  0  0  0  0  0  0  0  0  0
    3.4820   -2.1579    1.7620 H   0  0  0  0  0  0  0  0  0  0  0  0
    3.8678   -0.5968    0.9631 H   0  0  0  0  0  0  0  0  0  0  0  0
    2.7991   -3.1671   -0.4149 H   0  0  0  0  0  0  0  0  0  0  0  0
    2.9903   -1.5772   -1.2158 H   0  0  0  0  0  0  0  0  0  0  0  0
    6.1404   -2.9209   -2.2905 H   0  0  0  0  0  0  0  0  0  0  0  0
    4.8191   -1.7785   -2.6606 H   0  0  0  0  0  0  0  0  0  0  0  0
    4.4506   -3.5456   -2.4937 H   0  0  0  0  0  0  0  0  0  0  0  0
    4.6965   -4.5998   -0.2155 H   0  0  0  0  0  0  0  0  0  0  0  0
    5.1816   -3.5419    1.1723 H   0  0  0  0  0  0  0  0  0  0  0  0
    6.3576   -3.8881   -0.1181 H   0  0  0  0  0  0  0  0  0  0  0  0
    2.6905    5.7234    0.1786 H   0  0  0  0  0  0  0  0  0  0  0  0
    2.4008    4.1703    1.0440 H   0  0  0  0  0  0  0  0  0  0  0  0
    2.3523    4.2232   -0.7658 H   0  0  0  0  0  0  0  0  0  0  0  0
    0.8333    7.2000    0.0949 H   0  0  0  0  0  0  0  0  0  0  0  0
   -1.5867    7.6454    0.1510 H   0  0  0  0  0  0  0  0  0  0  0  0
   -3.2029    5.7903    0.2875 H   0  0  0  0  0  0  0  0  0  0  0  0
   -3.6465    3.3726    0.4162 H   0  0  0  0  0  0  0  0  0  0  0  0
  1  2  1  0
  2  3  1  0
  3  4  1  0
  4  5  1  0
  5  6  1  0
  6  7  2  0
  7  8  1  0
  8  9  2  0
  8 10  1  0
 10 11  1  0
 11 12  1  0
 12 13  1  0
 13 14  1  0
 13 15  1  0
  7 16  1  0
 16 17  2  0
 17 18  1  0
 18 19  2  0
 19 20  1  0
 19 21  1  0
 21 22  2  0
 22 23  1  0
 23 24  2  0
 24 25  1  0
 25 26  2  0
 26 27  1  0
 27 28  2  0
 27  5  1  0
 26 16  1  0
 24 18  1  0
  1 29  1  0
  1 30  1  0
  1 31  1  0
  2 32  1  0
  2 33  1  0
  3 34  1  0
  3 35  1  0
  4 36  1  0
  4 37  1  0
  6 38  1  0
 10 39  1  0
 11 40  1  0
 11 41  1  0
 12 42  1  0
 12 43  1  0
 14 44  1  0
 14 45  1  0
 14 46  1  0
 15 47  1  0
 15 48  1  0
 15 49  1  0
 20 50  1  0
 20 51  1  0
 20 52  1  0
 21 53  1  0
 22 54  1  0
 23 55  1  0
 25 56  1  0
M  END
$$$$
