
     RDKit          3D

 53 55  0  0  0  0  0  0  0  0999 V2000
   -4.4764   -3.3315    0.9581 C   0  0  0  0  0  0  0  0  0  0  0  0
   -3.8516   -1.9808    0.6219 C   0  0  0  0  0  0  0  0  0  0  0  0
   -4.5904   -1.3040   -0.5428 C   0  0  0  0  0  0  0  0  0  0  0  0
   -4.0683    0.1133   -0.8253 C   0  0  0  0  0  0  0  0  0  0  0  0
   -2.6821    0.1069   -1.4889 C   0  0  0  0  0  0  0  0  0  0  0  0
   -2.1947    1.5109   -1.8991 C   0  0  0  0  0  0  0  0  0  0  0  0
   -1.7995    2.4610   -0.7372 C   0  0  0  0  0  0  0  0  0  0  0  0
   -2.9761    3.1515   -0.0856 C   0  0  0  0  0  0  0  0  0  0  0  0
   -2.8334    3.7126    1.0343 O   0  0  0  0  0  0  0  0  0  0  0  0
   -4.1905    3.2706   -0.7567 O   0  0  0  0  0  0  0  0  0  0  0  0
   -0.9439    1.7730    0.2464 N   0  0  0  0  0  0  0  0  0  0  0  0
   -1.3171    1.1391    1.3915 C   0  0  0  0  0  0  0  0  0  0  0  0
   -0.2935    0.5000    2.0138 N   0  0  0  0  0  0  0  0  0  0  0  0
    0.7530    0.7447    1.2059 C   0  0  0  0  0  0  0  0  0  0  0  0
    2.0602    0.2913    1.3559 C   0  0  0  0  0  0  0  0  0  0  0  0
    2.9961    0.6288    0.3544 C   0  0  0  0  0  0  0  0  0  0  0  0
    4.3925    0.1635    0.4579 C   0  0  0  0  0  0  0  0  0  0  0  0
    5.3987    1.1152    0.6911 C   0  0  0  0  0  0  0  0  0  0  0  0
    6.7308    0.7199    0.8226 C   0  0  0  0  0  0  0  0  0  0  0  0
    7.0727   -0.6282    0.7206 C   0  0  0  0  0  0  0  0  0  0  0  0
    6.0855   -1.5848    0.4753 C   0  0  0  0  0  0  0  0  0  0  0  0
    4.7413   -1.2041    0.3303 C   0  0  0  0  0  0  0  0  0  0  0  0
    3.5372   -2.4498   -0.0394 S   0  0  0  0  0  6  0  0  0  0  0  0
    2.5802   -1.9419   -1.0817 O   0  0  0  0  0  0  0  0  0  0  0  0
    4.2194   -3.6782   -0.5740 O   0  0  0  0  0  0  0  0  0  0  0  0
    2.6982   -2.8509    1.3609 O   0  0  0  0  0  0  0  0  0  0  0  0
    2.5961    1.4256   -0.7479 C   0  0  0  0  0  0  0  0  0  0  0  0
    1.2654    1.8650   -0.8679 C   0  0  0  0  0  0  0  0  0  0  0  0
    0.3689    1.5021    0.1391 C   0  0  0  0  0  0  0  0  0  0  0  0
   -3.9203   -3.7995    1.7974 H   0  0  0  0  0  0  0  0  0  0  0  0
   -4.4276   -4.0082    0.0785 H   0  0  0  0  0  0  0  0  0  0  0  0
   -5.5365   -3.2020    1.2637 H   0  0  0  0  0  0  0  0  0  0  0  0
   -3.8943   -1.3321    1.5239 H   0  0  0  0  0  0  0  0  0  0  0  0
   -2.7862   -2.1451    0.3566 H   0  0  0  0  0  0  0  0  0  0  0  0
   -5.6695   -1.2260   -0.2846 H   0  0  0  0  0  0  0  0  0  0  0  0
   -4.5083   -1.9285   -1.4595 H   0  0  0  0  0  0  0  0  0  0  0  0
   -4.0449    0.6841    0.1246 H   0  0  0  0  0  0  0  0  0  0  0  0
   -4.7873    0.6173   -1.5073 H   0  0  0  0  0  0  0  0  0  0  0  0
   -1.9314   -0.3752   -0.8315 H   0  0  0  0  0  0  0  0  0  0  0  0
   -2.7405   -0.5104   -2.4120 H   0  0  0  0  0  0  0  0  0  0  0  0
   -1.2903    1.3659   -2.5296 H   0  0  0  0  0  0  0  0  0  0  0  0
   -2.9459    1.9938   -2.5607 H   0  0  0  0  0  0  0  0  0  0  0  0
   -1.2086    3.2862   -1.1906 H   0  0  0  0  0  0  0  0  0  0  0  0
   -4.9711    3.7610   -0.3368 H   0  0  0  0  0  0  0  0  0  0  0  0
   -2.3305    1.1213    1.7688 H   0  0  0  0  0  0  0  0  0  0  0  0
    2.3428   -0.3043    2.2147 H   0  0  0  0  0  0  0  0  0  0  0  0
    5.1479    2.1652    0.7834 H   0  0  0  0  0  0  0  0  0  0  0  0
    7.4986    1.4597    1.0089 H   0  0  0  0  0  0  0  0  0  0  0  0
    8.1058   -0.9328    0.8270 H   0  0  0  0  0  0  0  0  0  0  0  0
    6.3750   -2.6244    0.3931 H   0  0  0  0  0  0  0  0  0  0  0  0
    1.9743   -3.4567    1.0608 H   0  0  0  0  0  0  0  0  0  0  0  0
    3.3122    1.6900   -1.5162 H   0  0  0  0  0  0  0  0  0  0  0  0
    0.9577    2.4600   -1.7169 H   0  0  0  0  0  0  0  0  0  0  0  0
  1  2  1  0
  2  3  1  0
  3  4  1  0
  4  5  1  0
  5  6  1  0
  6  7  1  0
  7  8  1  0
  8  9  2  0
  8 10  1  0
  7 11  1  0
 11 12  1  0
 12 13  2  0
 13 14  1  0
 14 15  2  0
 15 16  1  0
 16 17  1  0
 17 18  2  0
 18 19  1  0
 19 20  2  0
 20 21  1  0
 21 22  2  0
 22 23  1  0
 23 24  2  0
 23 25  2  0
 23 26  1  0
 16 27  2  0
 27 28  1  0
 28 29  2  0
 29 11  1  0
 29 14  1  0
 22 17  1  0
  1 30  1  0
  1 31  1  0
  1 32  1  0
  2 33  1  0
  2 34  1  0
  3 35  1  0
  3 36  1  0
  4 37  1  0
  4 38  1  0
  5 39  1  0
  5 40  1  0
  6 41  1  0
  6 42  1  0
  7 43  1  0
 10 44  1  0
 12 45  1  0
 15 46  1  0
 18 47  1  0
 19 48  1  0
 20 49  1  0
 21 50  1  0
 26 51  1  0
 27 52  1  0
 28 53  1  0
M  END
$$$$
