
     RDKit          3D

 44 47  0  0  0  0  0  0  0  0999 V2000
    6.0104   -3.3021    0.1420 F   0  0  0  0  0  0  0  0  0  0  0  0
    5.3447   -2.6737    1.1803 C   0  0  0  0  0  0  0  0  0  0  0  0
    5.3137   -3.5199    2.2729 F   0  0  0  0  0  0  0  0  0  0  0  0
    6.0486   -1.5299    1.5153 F   0  0  0  0  0  0  0  0  0  0  0  0
    3.9323   -2.3308    0.7780 C   0  0  0  0  0  0  0  0  0  0  0  0
    3.2313   -3.1496   -0.1282 C   0  0  0  0  0  0  0  0  0  0  0  0
    1.9060   -2.8605   -0.4696 C   0  0  0  0  0  0  0  0  0  0  0  0
    1.2617   -1.7627    0.1056 C   0  0  0  0  0  0  0  0  0  0  0  0
   -0.0253   -1.4703   -0.2120 N   0  0  0  0  0  0  0  0  0  0  0  0
   -0.6774   -0.4125    0.3452 C   0  0  0  0  0  0  0  0  0  0  0  0
   -2.0429   -0.1559   -0.0278 N   0  0  0  0  0  0  0  0  0  0  0  0
   -3.1011   -0.1605    0.9912 C   0  0  0  0  0  0  0  0  0  0  0  0
   -4.3929   -0.7711    0.4247 C   0  0  0  0  0  0  0  0  0  0  0  0
   -4.0838   -1.8973   -0.4673 N   0  0  0  0  0  0  0  0  0  0  0  0
   -3.3315   -1.4772   -1.6677 C   0  0  0  0  0  0  0  0  0  0  0  0
   -2.4374   -0.2423   -1.4363 C   0  0  0  0  0  0  0  0  0  0  0  0
    0.0134    0.4060    1.2650 C   0  0  0  0  0  0  0  0  0  0  0  0
   -0.7225    1.8759    1.9846 S   0  0  0  0  0  0  0  0  0  0  0  0
   -0.1887    2.9178    0.6274 C   0  0  0  0  0  0  0  0  0  0  0  0
    1.0872    3.4960    0.6446 C   0  0  0  0  0  0  0  0  0  0  0  0
    1.5057    4.2996   -0.4208 C   0  0  0  0  0  0  0  0  0  0  0  0
    0.6492    4.5305   -1.5021 C   0  0  0  0  0  0  0  0  0  0  0  0
   -0.6277    3.9603   -1.5172 C   0  0  0  0  0  0  0  0  0  0  0  0
   -1.0481    3.1572   -0.4525 C   0  0  0  0  0  0  0  0  0  0  0  0
    1.3017    0.1086    1.5825 N   0  0  0  0  0  0  0  0  0  0  0  0
    1.9430   -0.9536    1.0316 C   0  0  0  0  0  0  0  0  0  0  0  0
    3.2686   -1.2413    1.3726 C   0  0  0  0  0  0  0  0  0  0  0  0
    3.7083   -4.0148   -0.5712 H   0  0  0  0  0  0  0  0  0  0  0  0
    1.3819   -3.4941   -1.1745 H   0  0  0  0  0  0  0  0  0  0  0  0
   -3.3034    0.8758    1.3332 H   0  0  0  0  0  0  0  0  0  0  0  0
   -2.7782   -0.7674    1.8660 H   0  0  0  0  0  0  0  0  0  0  0  0
   -4.9683    0.0014   -0.1324 H   0  0  0  0  0  0  0  0  0  0  0  0
   -5.0343   -1.1258    1.2600 H   0  0  0  0  0  0  0  0  0  0  0  0
   -3.5088   -2.5929    0.0652 H   0  0  0  0  0  0  0  0  0  0  0  0
   -2.6961   -2.3225   -2.0139 H   0  0  0  0  0  0  0  0  0  0  0  0
   -4.0508   -1.2573   -2.4854 H   0  0  0  0  0  0  0  0  0  0  0  0
   -1.5493   -0.2765   -2.1052 H   0  0  0  0  0  0  0  0  0  0  0  0
   -3.0085    0.6741   -1.7006 H   0  0  0  0  0  0  0  0  0  0  0  0
    1.7558    3.3174    1.4771 H   0  0  0  0  0  0  0  0  0  0  0  0
    2.4933    4.7422   -0.4090 H   0  0  0  0  0  0  0  0  0  0  0  0
    0.9739    5.1521   -2.3265 H   0  0  0  0  0  0  0  0  0  0  0  0
   -1.2916    4.1417   -2.3525 H   0  0  0  0  0  0  0  0  0  0  0  0
   -2.0395    2.7240   -0.4673 H   0  0  0  0  0  0  0  0  0  0  0  0
    3.7776   -0.6181    2.0981 H   0  0  0  0  0  0  0  0  0  0  0  0
  1  2  1  0
  2  3  1  0
  2  4  1  0
  2  5  1  0
  5  6  2  0
  6  7  1  0
  7  8  2  0
  8  9  1  0
  9 10  2  0
 10 11  1  0
 11 12  1  0
 12 13  1  0
 13 14  1  0
 14 15  1  0
 15 16  1  0
 10 17  1  0
 17 18  1  0
 18 19  1  0
 19 20  2  0
 20 21  1  0
 21 22  2  0
 22 23  1  0
 23 24  2  0
 17 25  2  0
 25 26  1  0
 26 27  2  0
 27  5  1  0
 26  8  1  0
 16 11  1  0
 24 19  1  0
  6 28  1  0
  7 29  1  0
 12 30  1  0
 12 31  1  0
 13 32  1  0
 13 33  1  0
 14 34  1  0
 15 35  1  0
 15 36  1  0
 16 37  1  0
 16 38  1  0
 20 39  1  0
 21 40  1  0
 22 41  1  0
 23 42  1  0
 24 43  1  0
 27 44  1  0
M  END
$$$$
