
     RDKit          3D

 45 47  0  0  0  0  0  0  0  0999 V2000
   -8.9468    0.7433   -0.4799 C   0  0  0  0  0  0  0  0  0  0  0  0
   -7.5337    0.8229   -0.6221 O   0  0  0  0  0  0  0  0  0  0  0  0
   -6.6667   -0.1470   -0.1067 C   0  0  0  0  0  0  0  0  0  0  0  0
   -7.1317   -1.1430    0.5139 O   0  0  0  0  0  0  0  0  0  0  0  0
   -5.2054   -0.0021   -0.2906 C   0  0  0  0  0  0  0  0  0  0  0  0
   -4.6846    1.1051   -0.9807 C   0  0  0  0  0  0  0  0  0  0  0  0
   -3.3063    1.2430   -1.1565 C   0  0  0  0  0  0  0  0  0  0  0  0
   -2.4315    0.2816   -0.6469 C   0  0  0  0  0  0  0  0  0  0  0  0
   -2.9335   -0.8338    0.0510 C   0  0  0  0  0  0  0  0  0  0  0  0
   -2.1029   -1.8335    0.5846 O   0  0  0  0  0  0  0  0  0  0  0  0
   -0.6755   -1.8128    0.5816 C   0  0  0  0  0  0  0  0  0  0  0  0
   -0.1484   -0.8497    1.6520 C   0  0  0  0  0  0  0  0  0  0  0  0
    1.3763   -0.7590    1.6257 C   0  0  0  0  0  0  0  0  0  0  0  0
    1.8025   -0.1698    0.3993 O   0  0  0  0  0  0  0  0  0  0  0  0
    3.1408    0.0605    0.0481 C   0  0  0  0  0  0  0  0  0  0  0  0
    4.2086   -0.2728    0.9152 C   0  0  0  0  0  0  0  0  0  0  0  0
    5.5109   -0.0137    0.4962 C   0  0  0  0  0  0  0  0  0  0  0  0
    5.7783    0.5473   -0.7164 C   0  0  0  0  0  0  0  0  0  0  0  0
    4.7546    0.8892   -1.5974 C   0  0  0  0  0  0  0  0  0  0  0  0
    3.4242    0.6442   -1.2135 C   0  0  0  0  0  0  0  0  0  0  0  0
    2.3972    0.9845   -2.0936 O   0  0  0  0  0  0  0  0  0  0  0  0
    7.2458    0.7047   -0.8899 C   0  0  0  0  0  0  0  0  0  0  0  0
    7.8054    0.1366    0.4377 C   0  0  0  0  0  0  0  0  0  0  0  0
    6.6677   -0.2681    1.1993 O   0  0  0  0  0  0  0  0  0  0  0  0
   -4.3176   -0.9670    0.2204 C   0  0  0  0  0  0  0  0  0  0  0  0
   -9.4125    1.6233   -0.9691 H   0  0  0  0  0  0  0  0  0  0  0  0
   -9.2212    0.7427    0.5963 H   0  0  0  0  0  0  0  0  0  0  0  0
   -9.3263   -0.1809   -0.9649 H   0  0  0  0  0  0  0  0  0  0  0  0
   -5.3407    1.8651   -1.3861 H   0  0  0  0  0  0  0  0  0  0  0  0
   -2.9143    2.0988   -1.6910 H   0  0  0  0  0  0  0  0  0  0  0  0
   -1.3711    0.4185   -0.8037 H   0  0  0  0  0  0  0  0  0  0  0  0
   -0.2941   -1.5542   -0.4292 H   0  0  0  0  0  0  0  0  0  0  0  0
   -0.3152   -2.8370    0.8163 H   0  0  0  0  0  0  0  0  0  0  0  0
   -0.4726   -1.2099    2.6524 H   0  0  0  0  0  0  0  0  0  0  0  0
   -0.5733    0.1652    1.5019 H   0  0  0  0  0  0  0  0  0  0  0  0
    1.8158   -1.7748    1.7335 H   0  0  0  0  0  0  0  0  0  0  0  0
    1.7119   -0.1267    2.4760 H   0  0  0  0  0  0  0  0  0  0  0  0
    4.0404   -0.7187    1.8857 H   0  0  0  0  0  0  0  0  0  0  0  0
    4.9812    1.3341   -2.5579 H   0  0  0  0  0  0  0  0  0  0  0  0
    1.4215    0.8294   -1.8693 H   0  0  0  0  0  0  0  0  0  0  0  0
    7.5989    0.1118   -1.7608 H   0  0  0  0  0  0  0  0  0  0  0  0
    7.5090    1.7775   -1.0101 H   0  0  0  0  0  0  0  0  0  0  0  0
    8.4599   -0.7405    0.2465 H   0  0  0  0  0  0  0  0  0  0  0  0
    8.3705    0.9154    0.9928 H   0  0  0  0  0  0  0  0  0  0  0  0
   -4.6956   -1.8293    0.7559 H   0  0  0  0  0  0  0  0  0  0  0  0
  1  2  1  0
  2  3  1  0
  3  4  2  0
  3  5  1  0
  5  6  2  0
  6  7  1  0
  7  8  2  0
  8  9  1  0
  9 10  1  0
 10 11  1  0
 11 12  1  0
 12 13  1  0
 13 14  1  0
 14 15  1  0
 15 16  2  0
 16 17  1  0
 17 18  2  0
 18 19  1  0
 19 20  2  0
 20 21  1  0
 18 22  1  0
 22 23  1  0
 23 24  1  0
  9 25  2  0
 25  5  1  0
 20 15  1  0
 24 17  1  0
  1 26  1  0
  1 27  1  0
  1 28  1  0
  6 29  1  0
  7 30  1  0
  8 31  1  0
 11 32  1  0
 11 33  1  0
 12 34  1  0
 12 35  1  0
 13 36  1  0
 13 37  1  0
 16 38  1  0
 19 39  1  0
 21 40  1  0
 22 41  1  0
 22 42  1  0
 23 43  1  0
 23 44  1  0
 25 45  1  0
M  END
$$$$
