
     RDKit          3D

 40 42  0  0  0  0  0  0  0  0999 V2000
   -4.4414   -0.9230   -1.9784 C   0  0  0  0  0  0  0  0  0  0  0  0
   -4.2450   -0.1374   -0.7612 N   0  0  0  0  0  0  0  0  0  0  0  0
   -5.3869    0.5828   -0.2005 C   0  0  0  0  0  0  0  0  0  0  0  0
   -2.9134    0.2796   -0.4151 C   0  0  0  0  0  0  0  0  0  0  0  0
   -2.4999    1.5781   -0.7361 C   0  0  0  0  0  0  0  0  0  0  0  0
   -1.2096    2.0035   -0.4353 C   0  0  0  0  0  0  0  0  0  0  0  0
   -0.3105    1.1414    0.1901 C   0  0  0  0  0  0  0  0  0  0  0  0
   -0.6906   -0.1732    0.5339 C   0  0  0  0  0  0  0  0  0  0  0  0
    0.2065   -1.0706    1.1756 C   0  0  0  0  0  0  0  0  0  0  0  0
    1.8759   -0.6220    1.5739 S   0  0  0  0  0  6  0  0  0  0  0  0
    2.5834   -1.7719    2.2354 O   0  0  0  0  0  0  0  0  0  0  0  0
    1.8586    0.5502    2.5149 O   0  0  0  0  0  0  0  0  0  0  0  0
    2.7208   -0.2085    0.1180 N   0  0  0  0  0  0  0  0  0  0  0  0
    4.0380    0.3579    0.1418 C   0  0  0  0  0  0  0  0  0  0  0  0
    4.6803    0.5522    1.3267 N   0  0  0  0  0  0  0  0  0  0  0  0
    5.9282    1.0858    1.3805 C   0  0  0  0  0  0  0  0  0  0  0  0
    6.5713    1.4445    0.1951 C   0  0  0  0  0  0  0  0  0  0  0  0
    8.3237    2.1966    0.2295 Br  0  0  0  0  0  0  0  0  0  0  0  0
    5.9380    1.2539   -0.9913 N   0  0  0  0  0  0  0  0  0  0  0  0
    4.6882    0.7200   -1.0494 C   0  0  0  0  0  0  0  0  0  0  0  0
    4.0681    0.5394   -2.2824 O   0  0  0  0  0  0  0  0  0  0  0  0
   -0.2312   -2.3616    1.5062 C   0  0  0  0  0  0  0  0  0  0  0  0
   -1.5298   -2.7709    1.2170 C   0  0  0  0  0  0  0  0  0  0  0  0
   -2.4169   -1.9038    0.5864 C   0  0  0  0  0  0  0  0  0  0  0  0
   -2.0146   -0.6043    0.2288 C   0  0  0  0  0  0  0  0  0  0  0  0
   -3.5515   -1.5552   -2.1860 H   0  0  0  0  0  0  0  0  0  0  0  0
   -4.6077   -0.2420   -2.8395 H   0  0  0  0  0  0  0  0  0  0  0  0
   -5.3216   -1.5902   -1.8631 H   0  0  0  0  0  0  0  0  0  0  0  0
   -5.6468    1.4428   -0.8531 H   0  0  0  0  0  0  0  0  0  0  0  0
   -5.1465    0.9564    0.8180 H   0  0  0  0  0  0  0  0  0  0  0  0
   -6.2634   -0.0946   -0.1225 H   0  0  0  0  0  0  0  0  0  0  0  0
   -3.1802    2.2587   -1.2324 H   0  0  0  0  0  0  0  0  0  0  0  0
   -0.9017    3.0090   -0.6923 H   0  0  0  0  0  0  0  0  0  0  0  0
    0.6775    1.5230    0.3994 H   0  0  0  0  0  0  0  0  0  0  0  0
    2.2411   -0.3875   -0.7920 H   0  0  0  0  0  0  0  0  0  0  0  0
    6.4136    1.2286    2.3367 H   0  0  0  0  0  0  0  0  0  0  0  0
    4.5351    0.8005   -3.1425 H   0  0  0  0  0  0  0  0  0  0  0  0
    0.4328   -3.0622    1.9949 H   0  0  0  0  0  0  0  0  0  0  0  0
   -1.8516   -3.7692    1.4847 H   0  0  0  0  0  0  0  0  0  0  0  0
   -3.4204   -2.2568    0.3857 H   0  0  0  0  0  0  0  0  0  0  0  0
  1  2  1  0
  2  3  1  0
  2  4  1  0
  4  5  2  0
  5  6  1  0
  6  7  2  0
  7  8  1  0
  8  9  2  0
  9 10  1  0
 10 11  2  0
 10 12  2  0
 10 13  1  0
 13 14  1  0
 14 15  2  0
 15 16  1  0
 16 17  2  0
 17 18  1  0
 17 19  1  0
 19 20  2  0
 20 21  1  0
  9 22  1  0
 22 23  2  0
 23 24  1  0
 24 25  2  0
 25  4  1  0
 25  8  1  0
 20 14  1  0
  1 26  1  0
  1 27  1  0
  1 28  1  0
  3 29  1  0
  3 30  1  0
  3 31  1  0
  5 32  1  0
  6 33  1  0
  7 34  1  0
 13 35  1  0
 16 36  1  0
 21 37  1  0
 22 38  1  0
 23 39  1  0
 24 40  1  0
M  END
$$$$
