
     RDKit          3D

 54 57  0  0  0  0  0  0  0  0999 V2000
   -2.5788   -2.5709   -0.8035 C   0  0  0  0  0  0  0  0  0  0  0  0
   -2.1097   -2.3964    0.2930 C   0  0  0  0  0  0  0  0  0  0  0  0
   -1.5440   -2.1749    1.6280 C   0  0  0  0  0  0  0  0  0  0  0  0
   -1.0445   -0.7976    1.7468 N   0  0  0  0  0  0  0  0  0  0  0  0
   -1.8959    0.2339    2.3627 C   0  0  0  0  0  0  0  0  0  0  0  0
   -3.2290    0.3210    1.6670 C   0  0  0  0  0  0  0  0  0  0  0  0
   -4.3941   -0.1391    2.3017 C   0  0  0  0  0  0  0  0  0  0  0  0
   -5.6259   -0.0868    1.6439 C   0  0  0  0  0  0  0  0  0  0  0  0
   -5.7054    0.4186    0.3428 C   0  0  0  0  0  0  0  0  0  0  0  0
   -6.9032    0.4684   -0.2966 N   0  0  0  0  0  0  0  0  0  0  0  0
   -7.0009    0.9445   -1.5657 C   0  0  0  0  0  0  0  0  0  0  0  0
   -8.3342    1.0278   -2.2298 C   0  0  0  0  0  0  0  0  0  0  0  0
   -5.8917    1.3995   -2.2077 N   0  0  0  0  0  0  0  0  0  0  0  0
   -4.6678    1.3721   -1.6150 C   0  0  0  0  0  0  0  0  0  0  0  0
   -3.5552    1.8380   -2.3121 O   0  0  0  0  0  0  0  0  0  0  0  0
   -4.5409    0.8768   -0.3081 C   0  0  0  0  0  0  0  0  0  0  0  0
   -3.3052    0.8274    0.3587 C   0  0  0  0  0  0  0  0  0  0  0  0
    0.3524   -0.5279    1.4998 C   0  0  0  0  0  0  0  0  0  0  0  0
    0.9743   -0.9981    0.3319 C   0  0  0  0  0  0  0  0  0  0  0  0
    2.3323   -0.7573    0.1036 C   0  0  0  0  0  0  0  0  0  0  0  0
    3.1010   -0.0487    1.0444 C   0  0  0  0  0  0  0  0  0  0  0  0
    4.5422    0.2151    0.8121 C   0  0  0  0  0  0  0  0  0  0  0  0
    5.1213    1.1179    1.4761 O   0  0  0  0  0  0  0  0  0  0  0  0
    5.2963   -0.5745   -0.1231 N   0  0  0  0  0  0  0  0  0  0  0  0
    6.5462   -0.1516   -0.6964 C   0  0  0  0  0  0  0  0  0  0  0  0
    7.5046   -1.1148   -1.0515 C   0  0  0  0  0  0  0  0  0  0  0  0
    8.7177   -0.7273   -1.6284 C   0  0  0  0  0  0  0  0  0  0  0  0
    8.9794    0.6243   -1.8687 C   0  0  0  0  0  0  0  0  0  0  0  0
    8.0243    1.5894   -1.5382 C   0  0  0  0  0  0  0  0  0  0  0  0
    6.8093    1.2060   -0.9599 C   0  0  0  0  0  0  0  0  0  0  0  0
    2.4752    0.4278    2.2095 C   0  0  0  0  0  0  0  0  0  0  0  0
    1.1182    0.1870    2.4364 C   0  0  0  0  0  0  0  0  0  0  0  0
   -2.9922   -2.7216   -1.7660 H   0  0  0  0  0  0  0  0  0  0  0  0
   -2.3340   -2.3671    2.3853 H   0  0  0  0  0  0  0  0  0  0  0  0
   -0.7242   -2.9034    1.8086 H   0  0  0  0  0  0  0  0  0  0  0  0
   -2.0219    0.0072    3.4436 H   0  0  0  0  0  0  0  0  0  0  0  0
   -1.4122    1.2322    2.2905 H   0  0  0  0  0  0  0  0  0  0  0  0
   -4.3490   -0.5434    3.3053 H   0  0  0  0  0  0  0  0  0  0  0  0
   -6.5167   -0.4422    2.1471 H   0  0  0  0  0  0  0  0  0  0  0  0
   -8.9692    0.1708   -1.9197 H   0  0  0  0  0  0  0  0  0  0  0  0
   -8.2163    1.0023   -3.3339 H   0  0  0  0  0  0  0  0  0  0  0  0
   -8.8326    1.9754   -1.9388 H   0  0  0  0  0  0  0  0  0  0  0  0
   -3.6462    2.1939   -3.2561 H   0  0  0  0  0  0  0  0  0  0  0  0
   -2.4013    1.1690   -0.1325 H   0  0  0  0  0  0  0  0  0  0  0  0
    0.4063   -1.5385   -0.4135 H   0  0  0  0  0  0  0  0  0  0  0  0
    2.7705   -1.1119   -0.8196 H   0  0  0  0  0  0  0  0  0  0  0  0
    4.9819   -1.5545   -0.3040 H   0  0  0  0  0  0  0  0  0  0  0  0
    7.3135   -2.1662   -0.8721 H   0  0  0  0  0  0  0  0  0  0  0  0
    9.4542   -1.4755   -1.8917 H   0  0  0  0  0  0  0  0  0  0  0  0
    9.9186    0.9231   -2.3174 H   0  0  0  0  0  0  0  0  0  0  0  0
    8.2219    2.6346   -1.7368 H   0  0  0  0  0  0  0  0  0  0  0  0
    6.0721    1.9672   -0.7396 H   0  0  0  0  0  0  0  0  0  0  0  0
    3.0386    0.9756    2.9547 H   0  0  0  0  0  0  0  0  0  0  0  0
    0.6700    0.5433    3.3552 H   0  0  0  0  0  0  0  0  0  0  0  0
  1  2  3  0
  2  3  1  0
  3  4  1  0
  4  5  1  0
  5  6  1  0
  6  7  2  0
  7  8  1  0
  8  9  2  0
  9 10  1  0
 10 11  2  0
 11 12  1  0
 11 13  1  0
 13 14  2  0
 14 15  1  0
 14 16  1  0
 16 17  2  0
  4 18  1  0
 18 19  2  0
 19 20  1  0
 20 21  2  0
 21 22  1  0
 22 23  2  0
 22 24  1  0
 24 25  1  0
 25 26  2  0
 26 27  1  0
 27 28  2  0
 28 29  1  0
 29 30  2  0
 21 31  1  0
 31 32  2  0
 17  6  1  0
 32 18  1  0
 16  9  1  0
 30 25  1  0
  1 33  1  0
  3 34  1  0
  3 35  1  0
  5 36  1  0
  5 37  1  0
  7 38  1  0
  8 39  1  0
 12 40  1  0
 12 41  1  0
 12 42  1  0
 15 43  1  0
 17 44  1  0
 19 45  1  0
 20 46  1  0
 24 47  1  0
 26 48  1  0
 27 49  1  0
 28 50  1  0
 29 51  1  0
 30 52  1  0
 31 53  1  0
 32 54  1  0
M  END
$$$$
