
     RDKit          3D

 51 54  0  0  0  0  0  0  0  0999 V2000
   -4.7035    2.8144    1.6545 C   0  0  0  0  0  0  0  0  0  0  0  0
   -4.5263    1.3034    1.5853 C   0  0  0  0  0  0  0  0  0  0  0  0
   -4.0243    0.9267    0.2422 N   0  0  0  0  0  0  0  0  0  0  0  0
   -4.9758    0.1032   -0.5347 C   0  0  0  0  0  0  0  0  0  0  0  0
   -6.1259    0.9554   -1.0641 C   0  0  0  0  0  0  0  0  0  0  0  0
   -2.6623    0.3475    0.2759 C   0  0  0  0  0  0  0  0  0  0  0  0
   -2.6117   -1.0820    0.8542 C   0  0  0  0  0  0  0  0  0  0  0  0
   -1.2245   -1.5070    1.0386 N   0  0  0  0  0  0  0  0  0  0  0  0
   -0.2899   -1.6155   -0.0485 C   0  0  0  0  0  0  0  0  0  0  0  0
   -0.6848   -2.2629   -1.2582 C   0  0  0  0  0  0  0  0  0  0  0  0
    0.2215   -2.4293   -2.3275 C   0  0  0  0  0  0  0  0  0  0  0  0
    1.5117   -1.9423   -2.1573 C   0  0  0  0  0  0  0  0  0  0  0  0
    2.5465   -1.9665   -3.0191 N   0  0  0  0  0  0  0  0  0  0  0  0
    3.5395   -1.3338   -2.3293 C   0  0  0  0  0  0  0  0  0  0  0  0
    3.1473   -0.9267   -1.0887 N   0  0  0  0  0  0  0  0  0  0  0  0
    3.7524   -0.2524   -0.0593 C   0  0  0  0  0  0  0  0  0  0  0  0
    5.1048    0.1741   -0.1003 C   0  0  0  0  0  0  0  0  0  0  0  0
    5.8968   -0.1050   -1.2240 O   0  0  0  0  0  0  0  0  0  0  0  0
    7.2624    0.2703   -1.3756 C   0  0  0  0  0  0  0  0  0  0  0  0
    5.6369    0.8739    1.0003 C   0  0  0  0  0  0  0  0  0  0  0  0
    4.8561    1.1471    2.1207 C   0  0  0  0  0  0  0  0  0  0  0  0
    3.5299    0.7299    2.1755 C   0  0  0  0  0  0  0  0  0  0  0  0
    2.9580    0.0277    1.1010 C   0  0  0  0  0  0  0  0  0  0  0  0
    1.5968   -0.3991    1.1540 C   0  0  0  0  0  0  0  0  0  0  0  0
    0.8894   -0.1169    2.1592 O   0  0  0  0  0  0  0  0  0  0  0  0
    1.0433   -1.1182    0.0683 C   0  0  0  0  0  0  0  0  0  0  0  0
    1.8798   -1.3259   -1.0154 C   0  0  0  0  0  0  0  0  0  0  0  0
   -5.4226    3.1560    0.8805 H   0  0  0  0  0  0  0  0  0  0  0  0
   -3.7268    3.3180    1.4906 H   0  0  0  0  0  0  0  0  0  0  0  0
   -5.0916    3.1012    2.6548 H   0  0  0  0  0  0  0  0  0  0  0  0
   -5.4997    0.8183    1.8207 H   0  0  0  0  0  0  0  0  0  0  0  0
   -3.8230    1.0104    2.3957 H   0  0  0  0  0  0  0  0  0  0  0  0
   -4.4664   -0.3432   -1.4180 H   0  0  0  0  0  0  0  0  0  0  0  0
   -5.3790   -0.7319    0.0807 H   0  0  0  0  0  0  0  0  0  0  0  0
   -5.7280    1.8190   -1.6383 H   0  0  0  0  0  0  0  0  0  0  0  0
   -6.7640    0.3427   -1.7357 H   0  0  0  0  0  0  0  0  0  0  0  0
   -6.7552    1.3278   -0.2293 H   0  0  0  0  0  0  0  0  0  0  0  0
   -2.2496    0.3376   -0.7566 H   0  0  0  0  0  0  0  0  0  0  0  0
   -1.9924    1.0098    0.8688 H   0  0  0  0  0  0  0  0  0  0  0  0
   -3.1285   -1.1161    1.8359 H   0  0  0  0  0  0  0  0  0  0  0  0
   -3.1343   -1.7948    0.1844 H   0  0  0  0  0  0  0  0  0  0  0  0
   -0.9069   -1.7336    2.0072 H   0  0  0  0  0  0  0  0  0  0  0  0
   -1.6846   -2.6598   -1.3662 H   0  0  0  0  0  0  0  0  0  0  0  0
   -0.0759   -2.9233   -3.2433 H   0  0  0  0  0  0  0  0  0  0  0  0
    4.5162   -1.1796   -2.7578 H   0  0  0  0  0  0  0  0  0  0  0  0
    7.6267   -0.0828   -2.3620 H   0  0  0  0  0  0  0  0  0  0  0  0
    7.3618    1.3757   -1.3361 H   0  0  0  0  0  0  0  0  0  0  0  0
    7.8788   -0.2005   -0.5809 H   0  0  0  0  0  0  0  0  0  0  0  0
    6.6630    1.2145    1.0021 H   0  0  0  0  0  0  0  0  0  0  0  0
    5.2845    1.6865    2.9558 H   0  0  0  0  0  0  0  0  0  0  0  0
    2.9534    0.9582    3.0636 H   0  0  0  0  0  0  0  0  0  0  0  0
  1  2  1  0
  2  3  1  0
  3  4  1  0
  4  5  1  0
  3  6  1  0
  6  7  1  0
  7  8  1  0
  8  9  1  0
  9 10  2  0
 10 11  1  0
 11 12  2  0
 12 13  1  0
 13 14  2  0
 14 15  1  0
 15 16  1  0
 16 17  2  0
 17 18  1  0
 18 19  1  0
 17 20  1  0
 20 21  2  0
 21 22  1  0
 22 23  2  0
 23 24  1  0
 24 25  2  0
 24 26  1  0
 26 27  2  0
 26  9  1  0
 27 12  1  0
 27 15  1  0
 23 16  1  0
  1 28  1  0
  1 29  1  0
  1 30  1  0
  2 31  1  0
  2 32  1  0
  4 33  1  0
  4 34  1  0
  5 35  1  0
  5 36  1  0
  5 37  1  0
  6 38  1  0
  6 39  1  0
  7 40  1  0
  7 41  1  0
  8 42  1  0
 10 43  1  0
 11 44  1  0
 14 45  1  0
 19 46  1  0
 19 47  1  0
 19 48  1  0
 20 49  1  0
 21 50  1  0
 22 51  1  0
M  END
$$$$
