
     RDKit          3D

 54 57  0  0  0  0  0  0  0  0999 V2000
   -0.7006   -1.6636   -4.2881 C   0  0  0  0  0  0  0  0  0  0  0  0
   -1.0365   -0.9529   -3.3745 C   0  0  0  0  0  0  0  0  0  0  0  0
   -1.4421   -0.0900   -2.2595 C   0  0  0  0  0  0  0  0  0  0  0  0
   -0.7353   -0.4765   -1.0293 N   0  0  0  0  0  0  0  0  0  0  0  0
   -1.1985   -1.6653   -0.2918 C   0  0  0  0  0  0  0  0  0  0  0  0
   -2.5775   -1.4603    0.2930 C   0  0  0  0  0  0  0  0  0  0  0  0
   -2.9151   -0.2561    0.9314 C   0  0  0  0  0  0  0  0  0  0  0  0
   -4.1775   -0.0862    1.4990 C   0  0  0  0  0  0  0  0  0  0  0  0
   -5.1170   -1.1188    1.4491 C   0  0  0  0  0  0  0  0  0  0  0  0
   -6.3402   -0.9374    2.0089 N   0  0  0  0  0  0  0  0  0  0  0  0
   -7.2792   -1.9156    1.9760 C   0  0  0  0  0  0  0  0  0  0  0  0
   -8.6015   -1.7019    2.6338 C   0  0  0  0  0  0  0  0  0  0  0  0
   -6.9930   -3.1092    1.3961 N   0  0  0  0  0  0  0  0  0  0  0  0
   -5.7888   -3.3568    0.8172 C   0  0  0  0  0  0  0  0  0  0  0  0
   -5.5940   -4.6133    0.2384 O   0  0  0  0  0  0  0  0  0  0  0  0
   -4.7958   -2.3469    0.8255 C   0  0  0  0  0  0  0  0  0  0  0  0
   -3.5159   -2.5069    0.2546 C   0  0  0  0  0  0  0  0  0  0  0  0
    0.4773    0.2091   -0.6326 C   0  0  0  0  0  0  0  0  0  0  0  0
    0.7622    0.4353    0.7261 C   0  0  0  0  0  0  0  0  0  0  0  0
    1.9268    1.1058    1.1089 C   0  0  0  0  0  0  0  0  0  0  0  0
    2.8329    1.5744    0.1435 C   0  0  0  0  0  0  0  0  0  0  0  0
    4.0659    2.2826    0.5643 C   0  0  0  0  0  0  0  0  0  0  0  0
    4.5136    2.1055    1.7301 O   0  0  0  0  0  0  0  0  0  0  0  0
    4.7466    3.1819   -0.3266 N   0  0  0  0  0  0  0  0  0  0  0  0
    6.0698    3.7231   -0.0265 C   0  0  0  0  0  0  0  0  0  0  0  0
    7.1071    2.6520   -0.1604 C   0  0  0  0  0  0  0  0  0  0  0  0
    7.7098    1.9544    0.8641 C   0  0  0  0  0  0  0  0  0  0  0  0
    8.5368    1.0376    0.2474 C   0  0  0  0  0  0  0  0  0  0  0  0
    8.4401    1.1576   -1.0584 O   0  0  0  0  0  0  0  0  0  0  0  0
    7.5852    2.1149   -1.3374 C   0  0  0  0  0  0  0  0  0  0  0  0
    2.5586    1.3372   -1.2140 C   0  0  0  0  0  0  0  0  0  0  0  0
    1.3935    0.6667   -1.5969 C   0  0  0  0  0  0  0  0  0  0  0  0
   -0.4050   -2.2880   -5.0895 H   0  0  0  0  0  0  0  0  0  0  0  0
   -2.5393   -0.1806   -2.1185 H   0  0  0  0  0  0  0  0  0  0  0  0
   -1.2310    0.9696   -2.5166 H   0  0  0  0  0  0  0  0  0  0  0  0
   -0.5000   -1.9307    0.5294 H   0  0  0  0  0  0  0  0  0  0  0  0
   -1.1967   -2.5335   -0.9863 H   0  0  0  0  0  0  0  0  0  0  0  0
   -2.2076    0.5602    0.9822 H   0  0  0  0  0  0  0  0  0  0  0  0
   -4.4243    0.8523    1.9802 H   0  0  0  0  0  0  0  0  0  0  0  0
   -9.3731   -2.3495    2.1663 H   0  0  0  0  0  0  0  0  0  0  0  0
   -8.5218   -1.9508    3.7126 H   0  0  0  0  0  0  0  0  0  0  0  0
   -8.9137   -0.6416    2.5259 H   0  0  0  0  0  0  0  0  0  0  0  0
   -4.7430   -4.9063   -0.2187 H   0  0  0  0  0  0  0  0  0  0  0  0
   -3.2254   -3.4300   -0.2215 H   0  0  0  0  0  0  0  0  0  0  0  0
    0.0789    0.1074    1.4974 H   0  0  0  0  0  0  0  0  0  0  0  0
    2.1110    1.2707    2.1634 H   0  0  0  0  0  0  0  0  0  0  0  0
    4.2701    3.5128   -1.1949 H   0  0  0  0  0  0  0  0  0  0  0  0
    6.3056    4.5413   -0.7405 H   0  0  0  0  0  0  0  0  0  0  0  0
    6.0821    4.1546    0.9975 H   0  0  0  0  0  0  0  0  0  0  0  0
    7.5612    2.0890    1.9272 H   0  0  0  0  0  0  0  0  0  0  0  0
    9.1718    0.3194    0.7486 H   0  0  0  0  0  0  0  0  0  0  0  0
    7.3082    2.4175   -2.3387 H   0  0  0  0  0  0  0  0  0  0  0  0
    3.2526    1.6448   -1.9848 H   0  0  0  0  0  0  0  0  0  0  0  0
    1.2218    0.4908   -2.6500 H   0  0  0  0  0  0  0  0  0  0  0  0
  1  2  3  0
  2  3  1  0
  3  4  1  0
  4  5  1  0
  5  6  1  0
  6  7  2  0
  7  8  1  0
  8  9  2  0
  9 10  1  0
 10 11  2  0
 11 12  1  0
 11 13  1  0
 13 14  2  0
 14 15  1  0
 14 16  1  0
 16 17  2  0
  4 18  1  0
 18 19  2  0
 19 20  1  0
 20 21  2  0
 21 22  1  0
 22 23  2  0
 22 24  1  0
 24 25  1  0
 25 26  1  0
 26 27  1  0
 27 28  2  0
 28 29  1  0
 29 30  1  0
 21 31  1  0
 31 32  2  0
 17  6  1  0
 32 18  1  0
 16  9  1  0
 30 26  2  0
  1 33  1  0
  3 34  1  0
  3 35  1  0
  5 36  1  0
  5 37  1  0
  7 38  1  0
  8 39  1  0
 12 40  1  0
 12 41  1  0
 12 42  1  0
 15 43  1  0
 17 44  1  0
 19 45  1  0
 20 46  1  0
 24 47  1  0
 25 48  1  0
 25 49  1  0
 27 50  1  0
 28 51  1  0
 30 52  1  0
 31 53  1  0
 32 54  1  0
M  END
$$$$
