
     RDKit          3D

 43 45  0  0  0  0  0  0  0  0999 V2000
    5.8746   -1.2117   -1.4590 C   0  0  0  0  0  0  0  0  0  0  0  0
    4.7954   -0.1388   -1.3548 C   0  0  0  0  0  0  0  0  0  0  0  0
    3.5671   -0.6859   -0.7749 N   0  0  0  0  0  0  0  0  0  0  0  0
    2.4884    0.1564   -0.3216 C   0  0  0  0  0  0  0  0  0  0  0  0
    2.1838    1.3291   -1.0311 C   0  0  0  0  0  0  0  0  0  0  0  0
    1.1114    2.1304   -0.6562 C   0  0  0  0  0  0  0  0  0  0  0  0
    0.3148    1.7798    0.4291 C   0  0  0  0  0  0  0  0  0  0  0  0
    0.5846    0.6161    1.1766 C   0  0  0  0  0  0  0  0  0  0  0  0
   -0.2184    0.2440    2.2895 C   0  0  0  0  0  0  0  0  0  0  0  0
   -1.6690    1.1500    2.7649 S   0  0  0  0  0  6  0  0  0  0  0  0
   -1.2627    2.5256    3.2137 O   0  0  0  0  0  0  0  0  0  0  0  0
   -2.3812    0.4660    3.8984 O   0  0  0  0  0  0  0  0  0  0  0  0
   -2.7565    1.2735    1.4205 N   0  0  0  0  0  0  0  0  0  0  0  0
   -3.1322    0.1276    0.6439 C   0  0  0  0  0  0  0  0  0  0  0  0
   -2.7385   -1.1185    1.0263 N   0  0  0  0  0  0  0  0  0  0  0  0
   -3.0694   -2.2223    0.3085 C   0  0  0  0  0  0  0  0  0  0  0  0
   -3.8333   -2.0810   -0.8499 C   0  0  0  0  0  0  0  0  0  0  0  0
   -4.3181   -3.6064   -1.8867 Br  0  0  0  0  0  0  0  0  0  0  0  0
   -4.2320   -0.8424   -1.2382 N   0  0  0  0  0  0  0  0  0  0  0  0
   -3.9024    0.2689   -0.5225 C   0  0  0  0  0  0  0  0  0  0  0  0
   -4.3199    1.5362   -0.9429 O   0  0  0  0  0  0  0  0  0  0  0  0
   -5.0946    1.7415   -2.1181 C   0  0  0  0  0  0  0  0  0  0  0  0
    0.1177   -0.8970    3.0300 C   0  0  0  0  0  0  0  0  0  0  0  0
    1.2255   -1.6652    2.6903 C   0  0  0  0  0  0  0  0  0  0  0  0
    2.0115   -1.3229    1.5943 C   0  0  0  0  0  0  0  0  0  0  0  0
    1.6985   -0.1968    0.8065 C   0  0  0  0  0  0  0  0  0  0  0  0
    6.8007   -0.7699   -1.8834 H   0  0  0  0  0  0  0  0  0  0  0  0
    6.1020   -1.6227   -0.4524 H   0  0  0  0  0  0  0  0  0  0  0  0
    5.5339   -2.0342   -2.1232 H   0  0  0  0  0  0  0  0  0  0  0  0
    4.5864    0.2582   -2.3707 H   0  0  0  0  0  0  0  0  0  0  0  0
    5.1724    0.6870   -0.7133 H   0  0  0  0  0  0  0  0  0  0  0  0
    3.4744   -1.7227   -0.6864 H   0  0  0  0  0  0  0  0  0  0  0  0
    2.7627    1.6190   -1.8971 H   0  0  0  0  0  0  0  0  0  0  0  0
    0.8894    3.0285   -1.2185 H   0  0  0  0  0  0  0  0  0  0  0  0
   -0.5016    2.4412    0.6762 H   0  0  0  0  0  0  0  0  0  0  0  0
   -3.1046    2.2233    1.1618 H   0  0  0  0  0  0  0  0  0  0  0  0
   -2.7400   -3.1989    0.6374 H   0  0  0  0  0  0  0  0  0  0  0  0
   -5.2971    2.8257   -2.2362 H   0  0  0  0  0  0  0  0  0  0  0  0
   -6.0616    1.2016   -2.0353 H   0  0  0  0  0  0  0  0  0  0  0  0
   -4.5375    1.3805   -3.0085 H   0  0  0  0  0  0  0  0  0  0  0  0
   -0.4777   -1.1983    3.8817 H   0  0  0  0  0  0  0  0  0  0  0  0
    1.4781   -2.5351    3.2832 H   0  0  0  0  0  0  0  0  0  0  0  0
    2.8750   -1.9397    1.3928 H   0  0  0  0  0  0  0  0  0  0  0  0
  1  2  1  0
  2  3  1  0
  3  4  1  0
  4  5  2  0
  5  6  1  0
  6  7  2  0
  7  8  1  0
  8  9  2  0
  9 10  1  0
 10 11  2  0
 10 12  2  0
 10 13  1  0
 13 14  1  0
 14 15  2  0
 15 16  1  0
 16 17  2  0
 17 18  1  0
 17 19  1  0
 19 20  2  0
 20 21  1  0
 21 22  1  0
  9 23  1  0
 23 24  2  0
 24 25  1  0
 25 26  2  0
 26  4  1  0
 26  8  1  0
 20 14  1  0
  1 27  1  0
  1 28  1  0
  1 29  1  0
  2 30  1  0
  2 31  1  0
  3 32  1  0
  5 33  1  0
  6 34  1  0
  7 35  1  0
 13 36  1  0
 16 37  1  0
 22 38  1  0
 22 39  1  0
 22 40  1  0
 23 41  1  0
 24 42  1  0
 25 43  1  0
M  END
$$$$
