
     RDKit          3D

 45 48  0  0  0  0  0  0  0  0999 V2000
   -3.6332   -3.3410   -1.0395 C   0  0  0  0  0  0  0  0  0  0  0  0
   -2.7681   -2.1880   -0.7485 N   0  0  0  0  0  0  0  0  0  0  0  0
   -2.3240   -1.5599   -2.0087 C   0  0  0  0  0  0  0  0  0  0  0  0
   -1.5302   -0.3085   -1.7493 C   0  0  0  0  0  0  0  0  0  0  0  0
   -1.6852    0.4060   -0.6245 C   0  0  0  0  0  0  0  0  0  0  0  0
   -0.9079    1.6495   -0.4350 C   0  0  0  0  0  0  0  0  0  0  0  0
   -1.5218    2.8770   -0.7293 C   0  0  0  0  0  0  0  0  0  0  0  0
   -2.8344    2.9047   -1.2025 O   0  0  0  0  0  0  0  0  0  0  0  0
   -0.8210    4.0722   -0.5507 C   0  0  0  0  0  0  0  0  0  0  0  0
    0.4945    4.0689   -0.0754 C   0  0  0  0  0  0  0  0  0  0  0  0
    1.1602    5.2847    0.0895 O   0  0  0  0  0  0  0  0  0  0  0  0
    1.1301    2.8433    0.2317 C   0  0  0  0  0  0  0  0  0  0  0  0
    2.4576    2.7756    0.7167 C   0  0  0  0  0  0  0  0  0  0  0  0
    3.1423    3.8188    0.8899 O   0  0  0  0  0  0  0  0  0  0  0  0
    3.0109    1.6023    1.0017 O   0  0  0  0  0  0  0  0  0  0  0  0
    2.3775    0.4436    0.8599 C   0  0  0  0  0  0  0  0  0  0  0  0
    3.0899   -0.8070    1.1973 C   0  0  0  0  0  0  0  0  0  0  0  0
    4.3847   -0.9988    0.6865 C   0  0  0  0  0  0  0  0  0  0  0  0
    5.0924   -2.1700    0.9676 C   0  0  0  0  0  0  0  0  0  0  0  0
    4.5206   -3.1570    1.7713 C   0  0  0  0  0  0  0  0  0  0  0  0
    3.2441   -2.9705    2.3056 C   0  0  0  0  0  0  0  0  0  0  0  0
    2.5242   -1.8006    2.0314 C   0  0  0  0  0  0  0  0  0  0  0  0
    0.9628   -1.5893    2.8202 Cl  0  0  0  0  0  0  0  0  0  0  0  0
    1.0704    0.4193    0.3631 C   0  0  0  0  0  0  0  0  0  0  0  0
    0.4237    1.6269    0.0504 C   0  0  0  0  0  0  0  0  0  0  0  0
   -2.5314   -0.0989    0.5178 C   0  0  0  0  0  0  0  0  0  0  0  0
   -3.4939   -1.2034    0.0732 C   0  0  0  0  0  0  0  0  0  0  0  0
   -3.9167   -3.8521   -0.0944 H   0  0  0  0  0  0  0  0  0  0  0  0
   -4.5582   -3.0291   -1.5744 H   0  0  0  0  0  0  0  0  0  0  0  0
   -3.0867   -4.0816   -1.6626 H   0  0  0  0  0  0  0  0  0  0  0  0
   -3.1939   -1.2973   -2.6525 H   0  0  0  0  0  0  0  0  0  0  0  0
   -1.6769   -2.2696   -2.5683 H   0  0  0  0  0  0  0  0  0  0  0  0
   -0.8905    0.0650   -2.5406 H   0  0  0  0  0  0  0  0  0  0  0  0
   -3.3024    3.7761   -1.4229 H   0  0  0  0  0  0  0  0  0  0  0  0
   -1.3040    5.0132   -0.7828 H   0  0  0  0  0  0  0  0  0  0  0  0
    0.7167    6.1700   -0.1263 H   0  0  0  0  0  0  0  0  0  0  0  0
    4.8420   -0.2463    0.0553 H   0  0  0  0  0  0  0  0  0  0  0  0
    6.0852   -2.3126    0.5607 H   0  0  0  0  0  0  0  0  0  0  0  0
    5.0713   -4.0628    1.9894 H   0  0  0  0  0  0  0  0  0  0  0  0
    2.8189   -3.7330    2.9460 H   0  0  0  0  0  0  0  0  0  0  0  0
    0.5815   -0.5343    0.2113 H   0  0  0  0  0  0  0  0  0  0  0  0
   -3.1138    0.7404    0.9552 H   0  0  0  0  0  0  0  0  0  0  0  0
   -1.8573   -0.5002    1.3051 H   0  0  0  0  0  0  0  0  0  0  0  0
   -3.9092   -1.6897    0.9839 H   0  0  0  0  0  0  0  0  0  0  0  0
   -4.3407   -0.7561   -0.4974 H   0  0  0  0  0  0  0  0  0  0  0  0
  1  2  1  0
  2  3  1  0
  3  4  1  0
  4  5  2  0
  5  6  1  0
  6  7  2  0
  7  8  1  0
  7  9  1  0
  9 10  2  0
 10 11  1  0
 10 12  1  0
 12 13  1  0
 13 14  2  0
 13 15  1  0
 15 16  1  0
 16 17  1  0
 17 18  2  0
 18 19  1  0
 19 20  2  0
 20 21  1  0
 21 22  2  0
 22 23  1  0
 16 24  2  0
 24 25  1  0
  5 26  1  0
 26 27  1  0
 27  2  1  0
 25  6  1  0
 25 12  2  0
 22 17  1  0
  1 28  1  0
  1 29  1  0
  1 30  1  0
  3 31  1  0
  3 32  1  0
  4 33  1  0
  8 34  1  0
  9 35  1  0
 11 36  1  0
 18 37  1  0
 19 38  1  0
 20 39  1  0
 21 40  1  0
 24 41  1  0
 26 42  1  0
 26 43  1  0
 27 44  1  0
 27 45  1  0
M  END
$$$$
