
     RDKit          3D

 45 48  0  0  0  0  0  0  0  0999 V2000
   -3.7040   -0.9227   -3.2382 C   0  0  0  0  0  0  0  0  0  0  0  0
   -2.8004   -0.6897   -2.1017 N   0  0  0  0  0  0  0  0  0  0  0  0
   -3.3053   -1.3889   -0.9035 C   0  0  0  0  0  0  0  0  0  0  0  0
   -2.4831   -1.0656    0.3155 C   0  0  0  0  0  0  0  0  0  0  0  0
   -1.7646    0.0651    0.4108 C   0  0  0  0  0  0  0  0  0  0  0  0
   -1.0360    0.3658    1.6661 C   0  0  0  0  0  0  0  0  0  0  0  0
   -1.7499    0.6162    2.8472 C   0  0  0  0  0  0  0  0  0  0  0  0
   -3.1451    0.5927    2.8403 O   0  0  0  0  0  0  0  0  0  0  0  0
   -1.0643    0.9084    4.0283 C   0  0  0  0  0  0  0  0  0  0  0  0
    0.3318    0.9658    4.0624 C   0  0  0  0  0  0  0  0  0  0  0  0
    0.9102    1.3625    5.2718 O   0  0  0  0  0  0  0  0  0  0  0  0
    1.0773    0.6516    2.8898 C   0  0  0  0  0  0  0  0  0  0  0  0
    2.4893    0.5499    2.8423 C   0  0  0  0  0  0  0  0  0  0  0  0
    3.2022    0.6727    3.8718 O   0  0  0  0  0  0  0  0  0  0  0  0
    3.1241    0.2674    1.6330 C   0  0  0  0  0  0  0  0  0  0  0  0
    2.3555    0.0516    0.4847 C   0  0  0  0  0  0  0  0  0  0  0  0
    2.9909   -0.2368   -0.8239 C   0  0  0  0  0  0  0  0  0  0  0  0
    4.1497    0.4679   -1.2046 C   0  0  0  0  0  0  0  0  0  0  0  0
    4.7477    0.2378   -2.4456 C   0  0  0  0  0  0  0  0  0  0  0  0
    4.1982   -0.6947   -3.3247 C   0  0  0  0  0  0  0  0  0  0  0  0
    3.0499   -1.4014   -2.9647 C   0  0  0  0  0  0  0  0  0  0  0  0
    2.4394   -1.1813   -1.7235 C   0  0  0  0  0  0  0  0  0  0  0  0
    0.9015   -2.2502   -1.2962 Br  0  0  0  0  0  0  0  0  0  0  0  0
    1.0330    0.1057    0.5658 O   0  0  0  0  0  0  0  0  0  0  0  0
    0.3711    0.3774    1.6869 C   0  0  0  0  0  0  0  0  0  0  0  0
   -1.6015    0.9855   -0.7772 C   0  0  0  0  0  0  0  0  0  0  0  0
   -2.6873    0.7536   -1.8297 C   0  0  0  0  0  0  0  0  0  0  0  0
   -4.7170   -0.5047   -3.0431 H   0  0  0  0  0  0  0  0  0  0  0  0
   -3.2895   -0.4531   -4.1560 H   0  0  0  0  0  0  0  0  0  0  0  0
   -3.7939   -2.0123   -3.4382 H   0  0  0  0  0  0  0  0  0  0  0  0
   -3.2591   -2.4869   -1.0698 H   0  0  0  0  0  0  0  0  0  0  0  0
   -4.3635   -1.1109   -0.6953 H   0  0  0  0  0  0  0  0  0  0  0  0
   -2.5639   -1.7265    1.1708 H   0  0  0  0  0  0  0  0  0  0  0  0
   -3.6846    0.7750    3.6785 H   0  0  0  0  0  0  0  0  0  0  0  0
   -1.6250    1.1278    4.9287 H   0  0  0  0  0  0  0  0  0  0  0  0
    1.8485    1.7191    5.3707 H   0  0  0  0  0  0  0  0  0  0  0  0
    4.2043    0.1862    1.5981 H   0  0  0  0  0  0  0  0  0  0  0  0
    4.5824    1.2150   -0.5510 H   0  0  0  0  0  0  0  0  0  0  0  0
    5.6355    0.7885   -2.7284 H   0  0  0  0  0  0  0  0  0  0  0  0
    4.6632   -0.8713   -4.2860 H   0  0  0  0  0  0  0  0  0  0  0  0
    2.6364   -2.1287   -3.6519 H   0  0  0  0  0  0  0  0  0  0  0  0
   -1.6372    2.0438   -0.4400 H   0  0  0  0  0  0  0  0  0  0  0  0
   -0.6118    0.8029   -1.2466 H   0  0  0  0  0  0  0  0  0  0  0  0
   -2.3980    1.3010   -2.7544 H   0  0  0  0  0  0  0  0  0  0  0  0
   -3.6570    1.1689   -1.4693 H   0  0  0  0  0  0  0  0  0  0  0  0
  1  2  1  0
  2  3  1  0
  3  4  1  0
  4  5  2  0
  5  6  1  0
  6  7  2  0
  7  8  1  0
  7  9  1  0
  9 10  2  0
 10 11  1  0
 10 12  1  0
 12 13  1  0
 13 14  2  0
 13 15  1  0
 15 16  2  0
 16 17  1  0
 17 18  2  0
 18 19  1  0
 19 20  2  0
 20 21  1  0
 21 22  2  0
 22 23  1  0
 16 24  1  0
 24 25  1  0
  5 26  1  0
 26 27  1  0
 27  2  1  0
 25  6  1  0
 25 12  2  0
 22 17  1  0
  1 28  1  0
  1 29  1  0
  1 30  1  0
  3 31  1  0
  3 32  1  0
  4 33  1  0
  8 34  1  0
  9 35  1  0
 11 36  1  0
 15 37  1  0
 18 38  1  0
 19 39  1  0
 20 40  1  0
 21 41  1  0
 26 42  1  0
 26 43  1  0
 27 44  1  0
 27 45  1  0
M  END
$$$$
