
     RDKit          3D

 56 59  0  0  0  0  0  0  0  0999 V2000
    4.6649   -2.7726    0.0004 C   0  0  0  0  0  0  0  0  0  0  0  0
    4.5552   -1.7580    1.1395 C   0  0  0  0  0  0  0  0  0  0  0  0
    3.3588   -0.8015    0.9707 C   0  0  0  0  0  0  0  0  0  0  0  0
    1.9547   -1.4031    1.0489 C   0  0  0  0  0  0  0  0  0  0  0  0
    1.7560   -2.6631    1.6435 C   0  0  0  0  0  0  0  0  0  0  0  0
    0.4958   -3.2493    1.6253 C   0  0  0  0  0  0  0  0  0  0  0  0
    0.3249   -4.3896    2.1303 O   0  0  0  0  0  0  0  0  0  0  0  0
   -0.5269   -2.6219    1.0716 O   0  0  0  0  0  0  0  0  0  0  0  0
   -0.4370   -1.4063    0.5424 C   0  0  0  0  0  0  0  0  0  0  0  0
   -1.5925   -0.8198   -0.0170 C   0  0  0  0  0  0  0  0  0  0  0  0
   -1.5493    0.5248   -0.4343 C   0  0  0  0  0  0  0  0  0  0  0  0
   -0.3477    1.2407   -0.3826 C   0  0  0  0  0  0  0  0  0  0  0  0
    0.8195    0.6404    0.1138 C   0  0  0  0  0  0  0  0  0  0  0  0
    0.8035   -0.7086    0.5589 C   0  0  0  0  0  0  0  0  0  0  0  0
    1.9665    1.4360    0.2211 O   0  0  0  0  0  0  0  0  0  0  0  0
    2.1646    2.6509   -0.5105 C   0  0  0  0  0  0  0  0  0  0  0  0
    2.8485    2.3177   -1.8408 C   0  0  0  0  0  0  0  0  0  0  0  0
    3.0606    3.5724    0.3216 C   0  0  0  0  0  0  0  0  0  0  0  0
    0.8479    3.3396   -0.7862 C   0  0  0  0  0  0  0  0  0  0  0  0
   -0.3026    2.6655   -0.7730 C   0  0  0  0  0  0  0  0  0  0  0  0
   -2.7096    1.1689   -0.8907 O   0  0  0  0  0  0  0  0  0  0  0  0
   -4.0140    0.5962   -0.7950 C   0  0  2  0  0  0  0  0  0  0  0  0
   -4.7348    1.0071    0.5191 C   0  0  0  0  0  0  0  0  0  0  0  0
   -3.8137    1.3530    1.6912 C   0  0  0  0  0  0  0  0  0  0  0  0
   -3.9424   -0.9331   -1.0182 C   0  0  1  0  0  0  0  0  0  0  0  0
   -3.6158   -1.2394   -2.4936 C   0  0  0  0  0  0  0  0  0  0  0  0
   -2.9120   -1.5827   -0.0570 C   0  0  1  0  0  0  0  0  0  0  0  0
   -2.6897   -2.9213   -0.4269 O   0  0  0  0  0  0  0  0  0  0  0  0
    4.7448   -2.2469   -0.9750 H   0  0  0  0  0  0  0  0  0  0  0  0
    3.7854   -3.4465   -0.0234 H   0  0  0  0  0  0  0  0  0  0  0  0
    5.5750   -3.3915    0.1429 H   0  0  0  0  0  0  0  0  0  0  0  0
    5.4826   -1.1456    1.1354 H   0  0  0  0  0  0  0  0  0  0  0  0
    4.5318   -2.2698    2.1233 H   0  0  0  0  0  0  0  0  0  0  0  0
    3.4409   -0.0121    1.7486 H   0  0  0  0  0  0  0  0  0  0  0  0
    3.4942   -0.3304   -0.0255 H   0  0  0  0  0  0  0  0  0  0  0  0
    2.5621   -3.2138    2.1038 H   0  0  0  0  0  0  0  0  0  0  0  0
    3.0320    3.2400   -2.4327 H   0  0  0  0  0  0  0  0  0  0  0  0
    3.8197    1.8119   -1.6573 H   0  0  0  0  0  0  0  0  0  0  0  0
    2.2118    1.6318   -2.4397 H   0  0  0  0  0  0  0  0  0  0  0  0
    4.0249    3.0690    0.5417 H   0  0  0  0  0  0  0  0  0  0  0  0
    3.2685    4.5209   -0.2196 H   0  0  0  0  0  0  0  0  0  0  0  0
    2.5660    3.8136    1.2865 H   0  0  0  0  0  0  0  0  0  0  0  0
    0.8443    4.3779   -1.0968 H   0  0  0  0  0  0  0  0  0  0  0  0
   -1.2121    3.1866   -1.0423 H   0  0  0  0  0  0  0  0  0  0  0  0
   -4.6231    1.0268   -1.6202 H   0  0  0  0  0  0  0  0  0  0  0  0
   -5.4389    0.2119    0.8413 H   0  0  0  0  0  0  0  0  0  0  0  0
   -5.3523    1.9079    0.3145 H   0  0  0  0  0  0  0  0  0  0  0  0
   -3.1615    2.2149    1.4328 H   0  0  0  0  0  0  0  0  0  0  0  0
   -3.1854    0.4889    1.9813 H   0  0  0  0  0  0  0  0  0  0  0  0
   -4.4302    1.6360    2.5717 H   0  0  0  0  0  0  0  0  0  0  0  0
   -4.9433   -1.3744   -0.8130 H   0  0  0  0  0  0  0  0  0  0  0  0
   -2.6022   -0.8735   -2.7633 H   0  0  0  0  0  0  0  0  0  0  0  0
   -3.6643   -2.3321   -2.6855 H   0  0  0  0  0  0  0  0  0  0  0  0
   -4.3589   -0.7539   -3.1614 H   0  0  0  0  0  0  0  0  0  0  0  0
   -3.3320   -1.5677    0.9739 H   0  0  0  0  0  0  0  0  0  0  0  0
   -3.5134   -3.4232   -0.1940 H   0  0  0  0  0  0  0  0  0  0  0  0
  1  2  1  0
  2  3  1  0
  3  4  1  0
  4  5  2  0
  5  6  1  0
  6  7  2  0
  6  8  1  0
  8  9  1  0
  9 10  2  0
 10 11  1  0
 11 12  2  0
 12 13  1  0
 13 14  2  0
 13 15  1  0
 15 16  1  0
 16 17  1  0
 16 18  1  0
 16 19  1  0
 19 20  2  0
 11 21  1  0
 21 22  1  0
 22 23  1  0
 23 24  1  0
 22 25  1  0
 25 26  1  0
 25 27  1  0
 27 28  1  0
 14  4  1  0
 14  9  1  0
 27 10  1  0
 20 12  1  0
  1 29  1  0
  1 30  1  0
  1 31  1  0
  2 32  1  0
  2 33  1  0
  3 34  1  0
  3 35  1  0
  5 36  1  0
 17 37  1  0
 17 38  1  0
 17 39  1  0
 18 40  1  0
 18 41  1  0
 18 42  1  0
 19 43  1  0
 20 44  1  0
 22 45  1  6
 23 46  1  0
 23 47  1  0
 24 48  1  0
 24 49  1  0
 24 50  1  0
 25 51  1  1
 26 52  1  0
 26 53  1  0
 26 54  1  0
 27 55  1  1
 28 56  1  0
M  END
$$$$
