
     RDKit          3D

 62 65  0  0  0  0  0  0  0  0999 V2000
   -7.5615    1.0214   -1.4006 C   0  0  0  0  0  0  0  0  0  0  0  0
   -7.2901    1.4474    0.0384 C   0  0  0  0  0  0  0  0  0  0  0  0
   -5.9738    0.9822    0.4764 N   0  0  0  0  0  0  0  0  0  0  0  0
   -5.6160   -0.4049    0.6471 C   0  0  0  0  0  0  0  0  0  0  0  0
   -6.5927   -1.3930    0.8677 C   0  0  0  0  0  0  0  0  0  0  0  0
   -6.2158   -2.7192    1.0799 C   0  0  0  0  0  0  0  0  0  0  0  0
   -4.8636   -3.0555    1.0764 C   0  0  0  0  0  0  0  0  0  0  0  0
   -3.9262   -2.0980    0.8576 N   0  0  0  0  0  0  0  0  0  0  0  0
   -4.2600   -0.7966    0.6400 C   0  0  0  0  0  0  0  0  0  0  0  0
   -3.2191    0.1528    0.3822 N   0  0  0  0  0  0  0  0  0  0  0  0
   -3.0046    0.6330   -0.9873 C   0  0  0  0  0  0  0  0  0  0  0  0
   -1.9882    1.7784   -1.0211 C   0  0  0  0  0  0  0  0  0  0  0  0
   -0.7862    1.4306   -0.2462 N   0  0  0  0  0  0  0  0  0  0  0  0
    0.4854    1.9623   -0.6796 C   0  0  0  0  0  0  0  0  0  0  0  0
    0.5045    3.0529   -1.3133 O   0  0  0  0  0  0  0  0  0  0  0  0
    1.7678    1.2325   -0.5295 C   0  0  0  0  0  0  0  0  0  0  0  0
    2.7876    1.2813   -1.4733 C   0  0  0  0  0  0  0  0  0  0  0  0
    3.8100    0.5134   -0.9551 C   0  0  0  0  0  0  0  0  0  0  0  0
    5.0677    0.2119   -1.4806 C   0  0  0  0  0  0  0  0  0  0  0  0
    5.4741    0.7398   -2.8309 C   0  0  0  0  0  0  0  0  0  0  0  0
    5.9102   -0.6336   -0.7202 C   0  0  0  0  0  0  0  0  0  0  0  0
    7.1766   -0.9605   -1.2137 O   0  0  0  0  0  0  0  0  0  0  0  0
    8.3393   -0.2600   -0.7892 C   0  0  0  0  0  0  0  0  0  0  0  0
    5.4723   -1.1589    0.5323 C   0  0  0  0  0  0  0  0  0  0  0  0
    6.3586   -2.1188    1.2903 C   0  0  0  0  0  0  0  0  0  0  0  0
    4.2106   -0.7634    1.0664 C   0  0  0  0  0  0  0  0  0  0  0  0
    3.7169   -1.2465    2.4092 C   0  0  0  0  0  0  0  0  0  0  0  0
    3.3939    0.0490    0.2643 C   0  0  0  0  0  0  0  0  0  0  0  0
    2.1468    0.4844    0.5356 N   0  0  0  0  0  0  0  0  0  0  0  0
   -0.9263    0.7372    1.0443 C   0  0  0  0  0  0  0  0  0  0  0  0
   -2.3899    0.6375    1.4871 C   0  0  0  0  0  0  0  0  0  0  0  0
   -8.5321    1.4422   -1.7373 H   0  0  0  0  0  0  0  0  0  0  0  0
   -7.6089   -0.0846   -1.4791 H   0  0  0  0  0  0  0  0  0  0  0  0
   -6.7566    1.3985   -2.0660 H   0  0  0  0  0  0  0  0  0  0  0  0
   -8.0833    1.0695    0.7162 H   0  0  0  0  0  0  0  0  0  0  0  0
   -7.3181    2.5579    0.0862 H   0  0  0  0  0  0  0  0  0  0  0  0
   -5.2485    1.7147    0.6472 H   0  0  0  0  0  0  0  0  0  0  0  0
   -7.6444   -1.1473    0.8938 H   0  0  0  0  0  0  0  0  0  0  0  0
   -6.9663   -3.4793    1.2537 H   0  0  0  0  0  0  0  0  0  0  0  0
   -4.5581   -4.0795    1.2450 H   0  0  0  0  0  0  0  0  0  0  0  0
   -3.9624    0.9900   -1.4231 H   0  0  0  0  0  0  0  0  0  0  0  0
   -2.6311   -0.2082   -1.6106 H   0  0  0  0  0  0  0  0  0  0  0  0
   -2.4454    2.6974   -0.5939 H   0  0  0  0  0  0  0  0  0  0  0  0
   -1.7269    1.9810   -2.0835 H   0  0  0  0  0  0  0  0  0  0  0  0
    2.7767    1.8075   -2.4193 H   0  0  0  0  0  0  0  0  0  0  0  0
    6.5495    0.5696   -3.0430 H   0  0  0  0  0  0  0  0  0  0  0  0
    5.2909    1.8341   -2.8799 H   0  0  0  0  0  0  0  0  0  0  0  0
    4.8757    0.2362   -3.6190 H   0  0  0  0  0  0  0  0  0  0  0  0
    8.2542    0.8134   -1.0599 H   0  0  0  0  0  0  0  0  0  0  0  0
    9.2285   -0.6895   -1.2940 H   0  0  0  0  0  0  0  0  0  0  0  0
    8.4676   -0.3538    0.3090 H   0  0  0  0  0  0  0  0  0  0  0  0
    6.8612   -1.5835    2.1228 H   0  0  0  0  0  0  0  0  0  0  0  0
    7.1332   -2.5747    0.6399 H   0  0  0  0  0  0  0  0  0  0  0  0
    5.7592   -2.9599    1.6978 H   0  0  0  0  0  0  0  0  0  0  0  0
    3.0960   -2.1562    2.2713 H   0  0  0  0  0  0  0  0  0  0  0  0
    4.5548   -1.4755    3.0984 H   0  0  0  0  0  0  0  0  0  0  0  0
    3.1152   -0.4644    2.9153 H   0  0  0  0  0  0  0  0  0  0  0  0
    1.6187    0.3112    1.4138 H   0  0  0  0  0  0  0  0  0  0  0  0
   -0.3730    1.2935    1.8311 H   0  0  0  0  0  0  0  0  0  0  0  0
   -0.5198   -0.2923    0.9488 H   0  0  0  0  0  0  0  0  0  0  0  0
   -2.7545    1.6393    1.8020 H   0  0  0  0  0  0  0  0  0  0  0  0
   -2.4604   -0.0457    2.3623 H   0  0  0  0  0  0  0  0  0  0  0  0
  1  2  1  0
  2  3  1  0
  3  4  1  0
  4  5  2  0
  5  6  1  0
  6  7  2  0
  7  8  1  0
  8  9  2  0
  9 10  1  0
 10 11  1  0
 11 12  1  0
 12 13  1  0
 13 14  1  0
 14 15  2  0
 14 16  1  0
 16 17  2  0
 17 18  1  0
 18 19  2  0
 19 20  1  0
 19 21  1  0
 21 22  1  0
 22 23  1  0
 21 24  2  0
 24 25  1  0
 24 26  1  0
 26 27  1  0
 26 28  2  0
 28 29  1  0
 13 30  1  0
 30 31  1  0
  9  4  1  0
 31 10  1  0
 29 16  1  0
 28 18  1  0
  1 32  1  0
  1 33  1  0
  1 34  1  0
  2 35  1  0
  2 36  1  0
  3 37  1  0
  5 38  1  0
  6 39  1  0
  7 40  1  0
 11 41  1  0
 11 42  1  0
 12 43  1  0
 12 44  1  0
 17 45  1  0
 20 46  1  0
 20 47  1  0
 20 48  1  0
 23 49  1  0
 23 50  1  0
 23 51  1  0
 25 52  1  0
 25 53  1  0
 25 54  1  0
 27 55  1  0
 27 56  1  0
 27 57  1  0
 29 58  1  0
 30 59  1  0
 30 60  1  0
 31 61  1  0
 31 62  1  0
M  END
$$$$
