
     RDKit          3D

 57 59  0  0  0  0  0  0  0  0999 V2000
   -3.6504    0.0404    3.9029 C   0  0  0  0  0  0  0  0  0  0  0  0
   -3.7428    1.1389    2.8419 C   0  0  0  0  0  0  0  0  0  0  0  0
   -2.9662    0.7904    1.5569 C   0  0  0  0  0  0  0  0  0  0  0  0
   -1.4409    0.7128    1.6462 C   0  0  0  0  0  0  0  0  0  0  0  0
   -0.7647    1.2740    2.7468 C   0  0  0  0  0  0  0  0  0  0  0  0
    0.6100    1.1129    2.8741 C   0  0  0  0  0  0  0  0  0  0  0  0
    1.2088    1.5820    3.8772 O   0  0  0  0  0  0  0  0  0  0  0  0
    1.2962    0.4645    1.9498 O   0  0  0  0  0  0  0  0  0  0  0  0
    0.7453   -0.0318    0.8483 C   0  0  0  0  0  0  0  0  0  0  0  0
    1.5709   -0.6829   -0.0848 C   0  0  0  0  0  0  0  0  0  0  0  0
    3.0149   -0.8697    0.1912 C   0  0  0  0  0  0  0  0  0  0  0  0
    3.3729   -2.0064    0.6063 O   0  0  0  0  0  0  0  0  0  0  0  0
    4.0823    0.2239    0.0340 C   0  0  0  0  0  0  0  0  0  0  0  0
    4.5488    0.6466    1.4461 C   0  0  0  0  0  0  0  0  0  0  0  0
    5.3063   -0.3946   -0.6869 C   0  0  0  0  0  0  0  0  0  0  0  0
    3.6173    1.5108   -0.7468 C   0  0  0  0  0  0  0  0  0  0  0  0
    3.3338    1.2897   -2.2396 C   0  0  0  0  0  0  0  0  0  0  0  0
    2.4812    2.0890   -0.1552 O   0  0  0  0  0  0  0  0  0  0  0  0
    1.0113   -1.2755   -1.2262 C   0  0  0  0  0  0  0  0  0  0  0  0
    1.8420   -2.0441   -2.0502 O   0  0  0  0  0  0  0  0  0  0  0  0
   -0.3536   -1.0786   -1.5182 C   0  0  0  0  0  0  0  0  0  0  0  0
   -1.1780   -0.3939   -0.6037 C   0  0  0  0  0  0  0  0  0  0  0  0
   -0.6523    0.0947    0.6229 C   0  0  0  0  0  0  0  0  0  0  0  0
   -2.5125   -0.1694   -0.9648 O   0  0  0  0  0  0  0  0  0  0  0  0
   -3.2043   -0.9397   -1.9526 C   0  0  0  0  0  0  0  0  0  0  0  0
   -4.3105   -0.0668   -2.5550 C   0  0  0  0  0  0  0  0  0  0  0  0
   -3.8187   -2.1747   -1.2800 C   0  0  0  0  0  0  0  0  0  0  0  0
   -2.2562   -1.3836   -3.0405 C   0  0  0  0  0  0  0  0  0  0  0  0
   -0.9455   -1.4925   -2.8139 C   0  0  0  0  0  0  0  0  0  0  0  0
   -4.0523   -0.9146    3.5028 H   0  0  0  0  0  0  0  0  0  0  0  0
   -2.6028   -0.1189    4.2291 H   0  0  0  0  0  0  0  0  0  0  0  0
   -4.2524    0.3317    4.7891 H   0  0  0  0  0  0  0  0  0  0  0  0
   -3.4263    2.1186    3.2553 H   0  0  0  0  0  0  0  0  0  0  0  0
   -4.8150    1.2539    2.5710 H   0  0  0  0  0  0  0  0  0  0  0  0
   -3.3578   -0.1957    1.2302 H   0  0  0  0  0  0  0  0  0  0  0  0
   -3.2283    1.5480    0.7873 H   0  0  0  0  0  0  0  0  0  0  0  0
   -1.2817    1.8130    3.5261 H   0  0  0  0  0  0  0  0  0  0  0  0
    3.7264    1.1122    2.0241 H   0  0  0  0  0  0  0  0  0  0  0  0
    4.9146   -0.2299    2.0241 H   0  0  0  0  0  0  0  0  0  0  0  0
    5.3790    1.3831    1.3816 H   0  0  0  0  0  0  0  0  0  0  0  0
    5.7834   -1.1827   -0.0644 H   0  0  0  0  0  0  0  0  0  0  0  0
    5.0045   -0.8694   -1.6450 H   0  0  0  0  0  0  0  0  0  0  0  0
    6.0748    0.3799   -0.8992 H   0  0  0  0  0  0  0  0  0  0  0  0
    4.4551    2.2503   -0.7185 H   0  0  0  0  0  0  0  0  0  0  0  0
    2.9294    2.2248   -2.6820 H   0  0  0  0  0  0  0  0  0  0  0  0
    2.5942    0.4875   -2.4038 H   0  0  0  0  0  0  0  0  0  0  0  0
    4.2662    1.0426   -2.7882 H   0  0  0  0  0  0  0  0  0  0  0  0
    2.7959    2.7393    0.5256 H   0  0  0  0  0  0  0  0  0  0  0  0
    1.5086   -2.6126   -2.8157 H   0  0  0  0  0  0  0  0  0  0  0  0
   -5.0017    0.2821   -1.7578 H   0  0  0  0  0  0  0  0  0  0  0  0
   -3.8676    0.8268   -3.0454 H   0  0  0  0  0  0  0  0  0  0  0  0
   -4.8962   -0.6344   -3.3105 H   0  0  0  0  0  0  0  0  0  0  0  0
   -3.0219   -2.8024   -0.8257 H   0  0  0  0  0  0  0  0  0  0  0  0
   -4.5179   -1.8662   -0.4734 H   0  0  0  0  0  0  0  0  0  0  0  0
   -4.3766   -2.7894   -2.0193 H   0  0  0  0  0  0  0  0  0  0  0  0
   -2.6530   -1.7012   -3.9979 H   0  0  0  0  0  0  0  0  0  0  0  0
   -0.3258   -1.8428   -3.6260 H   0  0  0  0  0  0  0  0  0  0  0  0
  1  2  1  0
  2  3  1  0
  3  4  1  0
  4  5  2  0
  5  6  1  0
  6  7  2  0
  6  8  1  0
  8  9  1  0
  9 10  2  0
 10 11  1  0
 11 12  2  0
 11 13  1  0
 13 14  1  0
 13 15  1  0
 13 16  1  0
 16 17  1  0
 16 18  1  0
 10 19  1  0
 19 20  1  0
 19 21  2  0
 21 22  1  0
 22 23  2  0
 22 24  1  0
 24 25  1  0
 25 26  1  0
 25 27  1  0
 25 28  1  0
 28 29  2  0
 23  4  1  0
 23  9  1  0
 29 21  1  0
  1 30  1  0
  1 31  1  0
  1 32  1  0
  2 33  1  0
  2 34  1  0
  3 35  1  0
  3 36  1  0
  5 37  1  0
 14 38  1  0
 14 39  1  0
 14 40  1  0
 15 41  1  0
 15 42  1  0
 15 43  1  0
 16 44  1  0
 17 45  1  0
 17 46  1  0
 17 47  1  0
 18 48  1  0
 20 49  1  0
 26 50  1  0
 26 51  1  0
 26 52  1  0
 27 53  1  0
 27 54  1  0
 27 55  1  0
 28 56  1  0
 29 57  1  0
M  END
$$$$
