
     RDKit          3D

 57 60  0  0  0  0  0  0  0  0999 V2000
    1.8831   -2.9615   -2.9354 C   0  0  0  0  0  0  0  0  0  0  0  0
    1.7553   -1.9065   -2.3670 C   0  0  0  0  0  0  0  0  0  0  0  0
    1.6013   -0.6230   -1.6721 C   0  0  0  0  0  0  0  0  0  0  0  0
    1.2037   -0.8368   -0.2715 N   0  0  0  0  0  0  0  0  0  0  0  0
    2.1488   -1.4573    0.6736 C   0  0  0  0  0  0  0  0  0  0  0  0
    3.4297   -0.6673    0.7656 C   0  0  0  0  0  0  0  0  0  0  0  0
    3.4787    0.5041    1.5335 C   0  0  0  0  0  0  0  0  0  0  0  0
    4.6511    1.2570    1.5976 C   0  0  0  0  0  0  0  0  0  0  0  0
    5.7868    0.8532    0.8900 C   0  0  0  0  0  0  0  0  0  0  0  0
    6.9189    1.5985    0.9608 N   0  0  0  0  0  0  0  0  0  0  0  0
    8.0414    1.2350    0.2916 C   0  0  0  0  0  0  0  0  0  0  0  0
    9.2601    2.0935    0.3568 C   0  0  0  0  0  0  0  0  0  0  0  0
    8.0357    0.1220   -0.4856 N   0  0  0  0  0  0  0  0  0  0  0  0
    6.9365   -0.6685   -0.6010 C   0  0  0  0  0  0  0  0  0  0  0  0
    7.0317   -1.7963   -1.4198 O   0  0  0  0  0  0  0  0  0  0  0  0
    5.7572   -0.3206    0.1009 C   0  0  0  0  0  0  0  0  0  0  0  0
    4.5671   -1.0749    0.0467 C   0  0  0  0  0  0  0  0  0  0  0  0
   -0.1785   -0.6749    0.1118 C   0  0  0  0  0  0  0  0  0  0  0  0
   -1.2111   -1.1855   -0.6924 C   0  0  0  0  0  0  0  0  0  0  0  0
   -2.5484   -1.0246   -0.3192 C   0  0  0  0  0  0  0  0  0  0  0  0
   -2.8817   -0.3528    0.8700 C   0  0  0  0  0  0  0  0  0  0  0  0
   -4.2962   -0.1653    1.2723 C   0  0  0  0  0  0  0  0  0  0  0  0
   -4.5985    0.7821    2.0488 O   0  0  0  0  0  0  0  0  0  0  0  0
   -5.3245   -1.0530    0.8038 N   0  0  0  0  0  0  0  0  0  0  0  0
   -6.7454   -0.7564    0.9709 C   0  0  0  0  0  0  0  0  0  0  0  0
   -7.1508    0.3681    0.0576 C   0  0  0  0  0  0  0  0  0  0  0  0
   -7.2200    0.1557   -1.3291 C   0  0  0  0  0  0  0  0  0  0  0  0
   -7.5704    1.2041   -2.1856 C   0  0  0  0  0  0  0  0  0  0  0  0
   -7.8493    2.4706   -1.6647 C   0  0  0  0  0  0  0  0  0  0  0  0
   -7.7763    2.6913   -0.2865 C   0  0  0  0  0  0  0  0  0  0  0  0
   -7.4261    1.6457    0.5736 C   0  0  0  0  0  0  0  0  0  0  0  0
   -1.8480    0.1695    1.6662 C   0  0  0  0  0  0  0  0  0  0  0  0
   -0.5113    0.0062    1.2928 C   0  0  0  0  0  0  0  0  0  0  0  0
    1.9953   -3.8882   -3.4340 H   0  0  0  0  0  0  0  0  0  0  0  0
    0.8439   -0.0100   -2.2062 H   0  0  0  0  0  0  0  0  0  0  0  0
    2.5593   -0.0658   -1.7201 H   0  0  0  0  0  0  0  0  0  0  0  0
    1.7029   -1.5372    1.6888 H   0  0  0  0  0  0  0  0  0  0  0  0
    2.3557   -2.5006    0.3509 H   0  0  0  0  0  0  0  0  0  0  0  0
    2.6094    0.8353    2.0855 H   0  0  0  0  0  0  0  0  0  0  0  0
    4.6744    2.1583    2.1979 H   0  0  0  0  0  0  0  0  0  0  0  0
    9.3127    2.6101    1.3385 H   0  0  0  0  0  0  0  0  0  0  0  0
    9.2213    2.8517   -0.4527 H   0  0  0  0  0  0  0  0  0  0  0  0
   10.1727    1.4730    0.2324 H   0  0  0  0  0  0  0  0  0  0  0  0
    6.2803   -2.4509   -1.5808 H   0  0  0  0  0  0  0  0  0  0  0  0
    4.4944   -1.9713   -0.5488 H   0  0  0  0  0  0  0  0  0  0  0  0
   -0.9839   -1.7157   -1.6077 H   0  0  0  0  0  0  0  0  0  0  0  0
   -3.3166   -1.4086   -0.9769 H   0  0  0  0  0  0  0  0  0  0  0  0
   -5.0642   -1.9646    0.3661 H   0  0  0  0  0  0  0  0  0  0  0  0
   -6.9575   -0.5139    2.0351 H   0  0  0  0  0  0  0  0  0  0  0  0
   -7.3426   -1.6592    0.7177 H   0  0  0  0  0  0  0  0  0  0  0  0
   -6.9994   -0.8198   -1.7447 H   0  0  0  0  0  0  0  0  0  0  0  0
   -7.6234    1.0351   -3.2533 H   0  0  0  0  0  0  0  0  0  0  0  0
   -8.1194    3.2813   -2.3288 H   0  0  0  0  0  0  0  0  0  0  0  0
   -7.9890    3.6736    0.1154 H   0  0  0  0  0  0  0  0  0  0  0  0
   -7.3675    1.8334    1.6385 H   0  0  0  0  0  0  0  0  0  0  0  0
   -2.0727    0.6988    2.5840 H   0  0  0  0  0  0  0  0  0  0  0  0
    0.2632    0.4237    1.9209 H   0  0  0  0  0  0  0  0  0  0  0  0
  1  2  3  0
  2  3  1  0
  3  4  1  0
  4  5  1  0
  5  6  1  0
  6  7  2  0
  7  8  1  0
  8  9  2  0
  9 10  1  0
 10 11  2  0
 11 12  1  0
 11 13  1  0
 13 14  2  0
 14 15  1  0
 14 16  1  0
 16 17  2  0
  4 18  1  0
 18 19  2  0
 19 20  1  0
 20 21  2  0
 21 22  1  0
 22 23  2  0
 22 24  1  0
 24 25  1  0
 25 26  1  0
 26 27  2  0
 27 28  1  0
 28 29  2  0
 29 30  1  0
 30 31  2  0
 21 32  1  0
 32 33  2  0
 17  6  1  0
 33 18  1  0
 16  9  1  0
 31 26  1  0
  1 34  1  0
  3 35  1  0
  3 36  1  0
  5 37  1  0
  5 38  1  0
  7 39  1  0
  8 40  1  0
 12 41  1  0
 12 42  1  0
 12 43  1  0
 15 44  1  0
 17 45  1  0
 19 46  1  0
 20 47  1  0
 24 48  1  0
 25 49  1  0
 25 50  1  0
 27 51  1  0
 28 52  1  0
 29 53  1  0
 30 54  1  0
 31 55  1  0
 32 56  1  0
 33 57  1  0
M  END
$$$$
