
     RDKit          3D

 60 63  0  0  0  0  0  0  0  0999 V2000
   -2.2995   -4.4407    0.9497 C   0  0  0  0  0  0  0  0  0  0  0  0
   -3.0154   -3.0979    0.8460 C   0  0  0  0  0  0  0  0  0  0  0  0
   -2.5431   -2.3172   -0.3881 C   0  0  0  0  0  0  0  0  0  0  0  0
   -3.2587   -0.9638   -0.5320 C   0  0  0  0  0  0  0  0  0  0  0  0
   -2.9921   -0.0733    0.6186 N   0  0  0  0  0  0  0  0  0  0  0  0
   -4.0574    0.9224    0.8999 C   0  0  0  0  0  0  0  0  0  0  0  0
   -4.6431    1.6570   -0.3315 C   0  0  0  0  0  0  0  0  0  0  0  0
   -3.6357    2.5555   -1.0629 C   0  0  0  0  0  0  0  0  0  0  0  0
   -4.3154    3.3548   -2.1704 C   0  0  0  0  0  0  0  0  0  0  0  0
   -1.6250    0.4901    0.6586 C   0  0  0  0  0  0  0  0  0  0  0  0
   -1.0479    0.3190    2.0668 C   0  0  0  0  0  0  0  0  0  0  0  0
    0.4107    0.4346    2.0513 N   0  0  0  0  0  0  0  0  0  0  0  0
    1.2722   -0.5256    1.4144 C   0  0  0  0  0  0  0  0  0  0  0  0
    0.9740   -1.9210    1.5047 C   0  0  0  0  0  0  0  0  0  0  0  0
    1.8338   -2.8935    0.9433 C   0  0  0  0  0  0  0  0  0  0  0  0
    2.9846   -2.4445    0.3056 C   0  0  0  0  0  0  0  0  0  0  0  0
    3.9644   -3.1558   -0.2934 N   0  0  0  0  0  0  0  0  0  0  0  0
    4.8223   -2.1897   -0.7353 C   0  0  0  0  0  0  0  0  0  0  0  0
    4.3957   -0.9378   -0.4308 N   0  0  0  0  0  0  0  0  0  0  0  0
    4.8899    0.3084   -0.6691 C   0  0  0  0  0  0  0  0  0  0  0  0
    6.1020    0.5114   -1.3439 C   0  0  0  0  0  0  0  0  0  0  0  0
    6.5645    1.8092   -1.5743 C   0  0  0  0  0  0  0  0  0  0  0  0
    5.8255    2.9151   -1.1416 C   0  0  0  0  0  0  0  0  0  0  0  0
    6.3070    4.1993   -1.3908 O   0  0  0  0  0  0  0  0  0  0  0  0
    4.6130    2.7272   -0.4639 C   0  0  0  0  0  0  0  0  0  0  0  0
    4.1300    1.4283   -0.2131 C   0  0  0  0  0  0  0  0  0  0  0  0
    2.8988    1.2105    0.4801 C   0  0  0  0  0  0  0  0  0  0  0  0
    2.2030    2.1958    0.8447 O   0  0  0  0  0  0  0  0  0  0  0  0
    2.4575   -0.1161    0.7288 C   0  0  0  0  0  0  0  0  0  0  0  0
    3.2553   -1.1276    0.2178 C   0  0  0  0  0  0  0  0  0  0  0  0
   -1.2022   -4.2851    1.0438 H   0  0  0  0  0  0  0  0  0  0  0  0
   -2.5078   -5.0589    0.0482 H   0  0  0  0  0  0  0  0  0  0  0  0
   -2.6607   -4.9870    1.8485 H   0  0  0  0  0  0  0  0  0  0  0  0
   -4.1094   -3.2771    0.7807 H   0  0  0  0  0  0  0  0  0  0  0  0
   -2.8084   -2.5146    1.7655 H   0  0  0  0  0  0  0  0  0  0  0  0
   -2.7599   -2.9188   -1.2973 H   0  0  0  0  0  0  0  0  0  0  0  0
   -1.4428   -2.1755   -0.3441 H   0  0  0  0  0  0  0  0  0  0  0  0
   -2.9386   -0.4799   -1.4804 H   0  0  0  0  0  0  0  0  0  0  0  0
   -4.3474   -1.1796   -0.6097 H   0  0  0  0  0  0  0  0  0  0  0  0
   -4.8954    0.3893    1.4001 H   0  0  0  0  0  0  0  0  0  0  0  0
   -3.7005    1.6734    1.6378 H   0  0  0  0  0  0  0  0  0  0  0  0
   -5.0888    0.9346   -1.0463 H   0  0  0  0  0  0  0  0  0  0  0  0
   -5.4799    2.2953    0.0305 H   0  0  0  0  0  0  0  0  0  0  0  0
   -2.8392    1.9338   -1.5239 H   0  0  0  0  0  0  0  0  0  0  0  0
   -3.1723    3.2661   -0.3448 H   0  0  0  0  0  0  0  0  0  0  0  0
   -4.8234    2.6714   -2.8841 H   0  0  0  0  0  0  0  0  0  0  0  0
   -5.0659    4.0494   -1.7365 H   0  0  0  0  0  0  0  0  0  0  0  0
   -3.5584    3.9509   -2.7233 H   0  0  0  0  0  0  0  0  0  0  0  0
   -1.6102    1.5696    0.4061 H   0  0  0  0  0  0  0  0  0  0  0  0
   -0.9598   -0.0026   -0.0829 H   0  0  0  0  0  0  0  0  0  0  0  0
   -1.4720    1.1082    2.7227 H   0  0  0  0  0  0  0  0  0  0  0  0
   -1.3500   -0.6517    2.5053 H   0  0  0  0  0  0  0  0  0  0  0  0
    0.8368    1.2321    2.5714 H   0  0  0  0  0  0  0  0  0  0  0  0
    0.0972   -2.2667    2.0390 H   0  0  0  0  0  0  0  0  0  0  0  0
    1.6104   -3.9493    1.0197 H   0  0  0  0  0  0  0  0  0  0  0  0
    5.7346   -2.4108   -1.2712 H   0  0  0  0  0  0  0  0  0  0  0  0
    6.6940   -0.3264   -1.6915 H   0  0  0  0  0  0  0  0  0  0  0  0
    7.5030    1.9577   -2.0921 H   0  0  0  0  0  0  0  0  0  0  0  0
    5.7910    5.0236   -1.1087 H   0  0  0  0  0  0  0  0  0  0  0  0
    4.0552    3.5947   -0.1346 H   0  0  0  0  0  0  0  0  0  0  0  0
  1  2  1  0
  2  3  1  0
  3  4  1  0
  4  5  1  0
  5  6  1  0
  6  7  1  0
  7  8  1  0
  8  9  1  0
  5 10  1  0
 10 11  1  0
 11 12  1  0
 12 13  1  0
 13 14  2  0
 14 15  1  0
 15 16  2  0
 16 17  1  0
 17 18  2  0
 18 19  1  0
 19 20  1  0
 20 21  2  0
 21 22  1  0
 22 23  2  0
 23 24  1  0
 23 25  1  0
 25 26  2  0
 26 27  1  0
 27 28  2  0
 27 29  1  0
 29 30  2  0
 29 13  1  0
 30 16  1  0
 30 19  1  0
 26 20  1  0
  1 31  1  0
  1 32  1  0
  1 33  1  0
  2 34  1  0
  2 35  1  0
  3 36  1  0
  3 37  1  0
  4 38  1  0
  4 39  1  0
  6 40  1  0
  6 41  1  0
  7 42  1  0
  7 43  1  0
  8 44  1  0
  8 45  1  0
  9 46  1  0
  9 47  1  0
  9 48  1  0
 10 49  1  0
 10 50  1  0
 11 51  1  0
 11 52  1  0
 12 53  1  0
 14 54  1  0
 15 55  1  0
 18 56  1  0
 21 57  1  0
 22 58  1  0
 24 59  1  0
 25 60  1  0
M  END
$$$$
