
     RDKit          3D

 33 35  0  0  0  0  0  0  0  0999 V2000
    2.3647   -0.5229   -2.8508 O   0  0  0  0  0  0  0  0  0  0  0  0
    2.1384   -0.3116   -1.6286 C   0  0  0  0  0  0  0  0  0  0  0  0
    3.2815   -0.2917   -0.6863 C   0  0  0  0  0  0  0  0  0  0  0  0
    4.2638   -1.2913   -0.7933 C   0  0  0  0  0  0  0  0  0  0  0  0
    5.3478   -1.3194    0.0871 C   0  0  0  0  0  0  0  0  0  0  0  0
    5.4704   -0.3439    1.0787 C   0  0  0  0  0  0  0  0  0  0  0  0
    6.8336   -0.3806    2.1821 Cl  0  0  0  0  0  0  0  0  0  0  0  0
    4.5124    0.6680    1.1838 C   0  0  0  0  0  0  0  0  0  0  0  0
    3.4213    0.7063    0.3065 C   0  0  0  0  0  0  0  0  0  0  0  0
    2.3031    2.0609    0.4404 Cl  0  0  0  0  0  0  0  0  0  0  0  0
    0.7377   -0.1695   -1.1589 C   0  0  0  0  0  0  0  0  0  0  0  0
    0.3591   -0.7599    0.0599 C   0  0  0  0  0  0  0  0  0  0  0  0
   -0.9525   -0.6550    0.5258 C   0  0  0  0  0  0  0  0  0  0  0  0
   -1.9134    0.0514   -0.2096 C   0  0  0  0  0  0  0  0  0  0  0  0
   -3.2677    0.1370    0.2734 N   0  0  0  0  0  0  0  0  0  0  0  0
   -3.8619   -0.9840    0.6934 N   0  0  0  0  0  0  0  0  0  0  0  0
   -5.1349   -0.9862    1.1597 C   0  0  0  0  0  0  0  0  0  0  0  0
   -5.8346    0.2145    1.2028 C   0  0  0  0  0  0  0  0  0  0  0  0
   -7.0204    0.2440    1.6271 O   0  0  0  0  0  0  0  0  0  0  0  0
   -5.2259    1.3549    0.7876 N   0  0  0  0  0  0  0  0  0  0  0  0
   -3.9446    1.3289    0.3311 C   0  0  0  0  0  0  0  0  0  0  0  0
   -3.3873    2.4074   -0.0135 O   0  0  0  0  0  0  0  0  0  0  0  0
   -1.5470    0.6296   -1.4356 C   0  0  0  0  0  0  0  0  0  0  0  0
   -0.2339    0.5287   -1.9112 C   0  0  0  0  0  0  0  0  0  0  0  0
    0.1573    1.3416   -3.4240 Cl  0  0  0  0  0  0  0  0  0  0  0  0
    4.1818   -2.0621   -1.5501 H   0  0  0  0  0  0  0  0  0  0  0  0
    6.0910   -2.1016   -0.0018 H   0  0  0  0  0  0  0  0  0  0  0  0
    4.6222    1.4334    1.9420 H   0  0  0  0  0  0  0  0  0  0  0  0
    1.0789   -1.3138    0.6500 H   0  0  0  0  0  0  0  0  0  0  0  0
   -1.2194   -1.1177    1.4676 H   0  0  0  0  0  0  0  0  0  0  0  0
   -5.5907   -1.9110    1.4894 H   0  0  0  0  0  0  0  0  0  0  0  0
   -5.7439    2.2625    0.8283 H   0  0  0  0  0  0  0  0  0  0  0  0
   -2.2868    1.1530   -2.0283 H   0  0  0  0  0  0  0  0  0  0  0  0
  1  2  2  0
  2  3  1  0
  3  4  2  0
  4  5  1  0
  5  6  2  0
  6  7  1  0
  6  8  1  0
  8  9  2  0
  9 10  1  0
  2 11  1  0
 11 12  2  0
 12 13  1  0
 13 14  2  0
 14 15  1  0
 15 16  1  0
 16 17  2  0
 17 18  1  0
 18 19  2  0
 18 20  1  0
 20 21  1  0
 21 22  2  0
 14 23  1  0
 23 24  2  0
 24 25  1  0
  9  3  1  0
 24 11  1  0
 21 15  1  0
  4 26  1  0
  5 27  1  0
  8 28  1  0
 12 29  1  0
 13 30  1  0
 17 31  1  0
 20 32  1  0
 23 33  1  0
M  END
$$$$
