
     RDKit          3D

 53 55  0  0  0  0  0  0  0  0999 V2000
    1.4798   -1.4321    4.4455 C   0  0  0  0  0  0  0  0  0  0  0  0
    1.4454   -1.4234    3.2407 C   0  0  0  0  0  0  0  0  0  0  0  0
    1.4037   -1.4098    1.7737 C   0  0  0  0  0  0  0  0  0  0  0  0
    0.9494   -0.0998    1.2809 N   0  0  0  0  0  0  0  0  0  0  0  0
    1.8108    1.0838    1.4497 C   0  0  0  0  0  0  0  0  0  0  0  0
    3.1534    0.8812    0.7956 C   0  0  0  0  0  0  0  0  0  0  0  0
    4.2830    0.5816    1.5758 C   0  0  0  0  0  0  0  0  0  0  0  0
    5.5236    0.3630    0.9711 C   0  0  0  0  0  0  0  0  0  0  0  0
    5.6486    0.4367   -0.4193 C   0  0  0  0  0  0  0  0  0  0  0  0
    6.8541    0.2226   -1.0074 N   0  0  0  0  0  0  0  0  0  0  0  0
    6.9986    0.2948   -2.3568 C   0  0  0  0  0  0  0  0  0  0  0  0
    8.3256    0.0178   -2.9803 C   0  0  0  0  0  0  0  0  0  0  0  0
    5.9209    0.5606   -3.1420 N   0  0  0  0  0  0  0  0  0  0  0  0
    4.6912    0.7828   -2.6060 C   0  0  0  0  0  0  0  0  0  0  0  0
    3.6146    1.0589   -3.4456 O   0  0  0  0  0  0  0  0  0  0  0  0
    4.5210    0.7289   -1.2140 C   0  0  0  0  0  0  0  0  0  0  0  0
    3.2759    0.9484   -0.6018 C   0  0  0  0  0  0  0  0  0  0  0  0
   -0.4242    0.0732    0.8701 C   0  0  0  0  0  0  0  0  0  0  0  0
   -1.4738   -0.4801    1.6228 C   0  0  0  0  0  0  0  0  0  0  0  0
   -2.8022   -0.3136    1.2209 C   0  0  0  0  0  0  0  0  0  0  0  0
   -3.1097    0.4042    0.0518 C   0  0  0  0  0  0  0  0  0  0  0  0
   -4.5140    0.5948   -0.3853 C   0  0  0  0  0  0  0  0  0  0  0  0
   -4.8056    1.5835   -1.1131 O   0  0  0  0  0  0  0  0  0  0  0  0
   -5.5429   -0.3347   -0.0104 N   0  0  0  0  0  0  0  0  0  0  0  0
   -6.9503   -0.0675   -0.3078 C   0  0  0  0  0  0  0  0  0  0  0  0
   -7.8413   -1.2097    0.1914 C   0  0  0  0  0  0  0  0  0  0  0  0
   -9.3117   -0.9361   -0.1106 C   0  0  0  0  0  0  0  0  0  0  0  0
   -2.0596    0.9671   -0.6936 C   0  0  0  0  0  0  0  0  0  0  0  0
   -0.7320    0.7996   -0.2909 C   0  0  0  0  0  0  0  0  0  0  0  0
    1.5098   -1.4392    5.5032 H   0  0  0  0  0  0  0  0  0  0  0  0
    2.4146   -1.6407    1.3793 H   0  0  0  0  0  0  0  0  0  0  0  0
    0.7266   -2.2176    1.4220 H   0  0  0  0  0  0  0  0  0  0  0  0
    1.9318    1.2944    2.5344 H   0  0  0  0  0  0  0  0  0  0  0  0
    1.3355    1.9897    1.0150 H   0  0  0  0  0  0  0  0  0  0  0  0
    4.2018    0.5106    2.6534 H   0  0  0  0  0  0  0  0  0  0  0  0
    6.3856    0.1335    1.5852 H   0  0  0  0  0  0  0  0  0  0  0  0
    8.4202   -1.0700   -3.1791 H   0  0  0  0  0  0  0  0  0  0  0  0
    9.1424    0.3367   -2.2989 H   0  0  0  0  0  0  0  0  0  0  0  0
    8.4232    0.5735   -3.9368 H   0  0  0  0  0  0  0  0  0  0  0  0
    3.7350    1.0972   -4.4507 H   0  0  0  0  0  0  0  0  0  0  0  0
    2.4047    1.1694   -1.2041 H   0  0  0  0  0  0  0  0  0  0  0  0
   -1.2685   -1.0258    2.5341 H   0  0  0  0  0  0  0  0  0  0  0  0
   -3.5839   -0.7257    1.8447 H   0  0  0  0  0  0  0  0  0  0  0  0
   -5.2785   -1.2383    0.4426 H   0  0  0  0  0  0  0  0  0  0  0  0
   -7.2526    0.8808    0.1880 H   0  0  0  0  0  0  0  0  0  0  0  0
   -7.0764    0.0468   -1.4067 H   0  0  0  0  0  0  0  0  0  0  0  0
   -7.5410   -2.1589   -0.3035 H   0  0  0  0  0  0  0  0  0  0  0  0
   -7.7132   -1.3279    1.2895 H   0  0  0  0  0  0  0  0  0  0  0  0
   -9.9306   -1.7794    0.2616 H   0  0  0  0  0  0  0  0  0  0  0  0
   -9.4686   -0.8366   -1.2058 H   0  0  0  0  0  0  0  0  0  0  0  0
   -9.6421   -0.0032    0.3939 H   0  0  0  0  0  0  0  0  0  0  0  0
   -2.2641    1.5267   -1.5980 H   0  0  0  0  0  0  0  0  0  0  0  0
    0.0556    1.2273   -0.8951 H   0  0  0  0  0  0  0  0  0  0  0  0
  1  2  3  0
  2  3  1  0
  3  4  1  0
  4  5  1  0
  5  6  1  0
  6  7  2  0
  7  8  1  0
  8  9  2  0
  9 10  1  0
 10 11  2  0
 11 12  1  0
 11 13  1  0
 13 14  2  0
 14 15  1  0
 14 16  1  0
 16 17  2  0
  4 18  1  0
 18 19  2  0
 19 20  1  0
 20 21  2  0
 21 22  1  0
 22 23  2  0
 22 24  1  0
 24 25  1  0
 25 26  1  0
 26 27  1  0
 21 28  1  0
 28 29  2  0
 17  6  1  0
 29 18  1  0
 16  9  1  0
  1 30  1  0
  3 31  1  0
  3 32  1  0
  5 33  1  0
  5 34  1  0
  7 35  1  0
  8 36  1  0
 12 37  1  0
 12 38  1  0
 12 39  1  0
 15 40  1  0
 17 41  1  0
 19 42  1  0
 20 43  1  0
 24 44  1  0
 25 45  1  0
 25 46  1  0
 26 47  1  0
 26 48  1  0
 27 49  1  0
 27 50  1  0
 27 51  1  0
 28 52  1  0
 29 53  1  0
M  END
$$$$
