
     RDKit          3D

 53 56  0  0  0  0  0  0  0  0999 V2000
   -4.1782    2.0768    1.7868 C   0  0  0  0  0  0  0  0  0  0  0  0
   -3.8789    0.7825    1.0319 C   0  0  0  0  0  0  0  0  0  0  0  0
   -3.4648    1.0408   -0.4269 C   0  0  0  0  0  0  0  0  0  0  0  0
   -2.0810    1.6567   -0.5328 C   0  0  0  0  0  0  0  0  0  0  0  0
   -2.0213    3.0445   -0.7277 C   0  0  0  0  0  0  0  0  0  0  0  0
   -0.7885    3.6772   -0.8326 C   0  0  0  0  0  0  0  0  0  0  0  0
   -0.7331    4.9219   -1.0121 O   0  0  0  0  0  0  0  0  0  0  0  0
    0.3313    2.9787   -0.7445 O   0  0  0  0  0  0  0  0  0  0  0  0
    0.3568    1.6630   -0.5505 C   0  0  0  0  0  0  0  0  0  0  0  0
    1.6043    1.0177   -0.4654 C   0  0  0  0  0  0  0  0  0  0  0  0
    1.6602   -0.3754   -0.2834 C   0  0  0  0  0  0  0  0  0  0  0  0
    0.4778   -1.1126   -0.1483 C   0  0  0  0  0  0  0  0  0  0  0  0
   -0.7726   -0.4765   -0.2246 C   0  0  0  0  0  0  0  0  0  0  0  0
   -0.8559    0.9271   -0.4298 C   0  0  0  0  0  0  0  0  0  0  0  0
   -1.9178   -1.2643   -0.0635 O   0  0  0  0  0  0  0  0  0  0  0  0
   -1.9368   -2.6896   -0.2018 C   0  0  0  0  0  0  0  0  0  0  0  0
   -3.0154   -3.2457    0.7341 C   0  0  0  0  0  0  0  0  0  0  0  0
   -2.2750   -3.0376   -1.6570 C   0  0  0  0  0  0  0  0  0  0  0  0
   -0.5960   -3.2916    0.1545 C   0  0  0  0  0  0  0  0  0  0  0  0
    0.5218   -2.5646    0.1209 C   0  0  0  0  0  0  0  0  0  0  0  0
    2.8976   -1.0301   -0.2074 O   0  0  0  0  0  0  0  0  0  0  0  0
    4.1279   -0.3921   -0.5425 C   0  0  2  0  0  0  0  0  0  0  0  0
    5.2985   -1.2217   -0.0109 C   0  0  0  0  0  0  0  0  0  0  0  0
    4.1274    1.0718   -0.0366 C   0  0  2  0  0  0  0  0  0  0  0  0
    4.1442    1.1617    1.5026 C   0  0  0  0  0  0  0  0  0  0  0  0
    2.8929    1.8177   -0.6104 C   0  0  1  0  0  0  0  0  0  0  0  0
    3.1076    2.1730   -1.9552 O   0  0  0  0  0  0  0  0  0  0  0  0
   -4.5362    1.8344    2.8095 H   0  0  0  0  0  0  0  0  0  0  0  0
   -4.9673    2.6580    1.2640 H   0  0  0  0  0  0  0  0  0  0  0  0
   -3.2611    2.6964    1.8751 H   0  0  0  0  0  0  0  0  0  0  0  0
   -4.7949    0.1532    1.0339 H   0  0  0  0  0  0  0  0  0  0  0  0
   -3.0867    0.2267    1.5761 H   0  0  0  0  0  0  0  0  0  0  0  0
   -3.5278    0.1121   -1.0275 H   0  0  0  0  0  0  0  0  0  0  0  0
   -4.2233    1.7045   -0.8986 H   0  0  0  0  0  0  0  0  0  0  0  0
   -2.9280    3.6348   -0.7972 H   0  0  0  0  0  0  0  0  0  0  0  0
   -2.7716   -2.9944    1.7888 H   0  0  0  0  0  0  0  0  0  0  0  0
   -4.0031   -2.7978    0.4912 H   0  0  0  0  0  0  0  0  0  0  0  0
   -3.0922   -4.3506    0.6389 H   0  0  0  0  0  0  0  0  0  0  0  0
   -3.2555   -2.5978   -1.9397 H   0  0  0  0  0  0  0  0  0  0  0  0
   -2.3238   -4.1392   -1.7983 H   0  0  0  0  0  0  0  0  0  0  0  0
   -1.5012   -2.6256   -2.3402 H   0  0  0  0  0  0  0  0  0  0  0  0
   -0.5232   -4.3574    0.3375 H   0  0  0  0  0  0  0  0  0  0  0  0
    1.4681   -3.0564    0.3093 H   0  0  0  0  0  0  0  0  0  0  0  0
    4.2219   -0.3810   -1.6499 H   0  0  0  0  0  0  0  0  0  0  0  0
    6.2583   -0.6879   -0.1770 H   0  0  0  0  0  0  0  0  0  0  0  0
    5.3386   -2.1934   -0.5472 H   0  0  0  0  0  0  0  0  0  0  0  0
    5.1741   -1.4337    1.0717 H   0  0  0  0  0  0  0  0  0  0  0  0
    5.0459    1.5783   -0.4091 H   0  0  0  0  0  0  0  0  0  0  0  0
    4.0753    2.2213    1.8284 H   0  0  0  0  0  0  0  0  0  0  0  0
    3.2956    0.5984    1.9453 H   0  0  0  0  0  0  0  0  0  0  0  0
    5.0964    0.7611    1.9073 H   0  0  0  0  0  0  0  0  0  0  0  0
    2.7789    2.7694   -0.0464 H   0  0  0  0  0  0  0  0  0  0  0  0
    3.0101    1.3573   -2.5119 H   0  0  0  0  0  0  0  0  0  0  0  0
  1  2  1  0
  2  3  1  0
  3  4  1  0
  4  5  2  0
  5  6  1  0
  6  7  2  0
  6  8  1  0
  8  9  1  0
  9 10  2  0
 10 11  1  0
 11 12  2  0
 12 13  1  0
 13 14  2  0
 13 15  1  0
 15 16  1  0
 16 17  1  0
 16 18  1  0
 16 19  1  0
 19 20  2  0
 11 21  1  0
 21 22  1  0
 22 23  1  0
 22 24  1  0
 24 25  1  0
 24 26  1  0
 26 27  1  0
 14  4  1  0
 14  9  1  0
 26 10  1  0
 20 12  1  0
  1 28  1  0
  1 29  1  0
  1 30  1  0
  2 31  1  0
  2 32  1  0
  3 33  1  0
  3 34  1  0
  5 35  1  0
 17 36  1  0
 17 37  1  0
 17 38  1  0
 18 39  1  0
 18 40  1  0
 18 41  1  0
 19 42  1  0
 20 43  1  0
 22 44  1  6
 23 45  1  0
 23 46  1  0
 23 47  1  0
 24 48  1  6
 25 49  1  0
 25 50  1  0
 25 51  1  0
 26 52  1  1
 27 53  1  0
M  END
$$$$
