
     RDKit          3D

 49 50  0  0  0  0  0  0  0  0999 V2000
   -2.9390   -3.8518   -1.0093 C   0  0  0  0  0  0  0  0  0  0  0  0
   -1.7734   -3.0232   -1.4836 C   0  0  0  0  0  0  0  0  0  0  0  0
   -1.3415   -3.1552   -2.9226 C   0  0  0  0  0  0  0  0  0  0  0  0
   -1.1585   -2.1719   -0.6340 C   0  0  0  0  0  0  0  0  0  0  0  0
    0.0117   -1.3055   -1.0409 C   0  0  0  0  0  0  0  0  0  0  0  0
    0.4900   -0.3858    0.1029 C   0  0  1  0  0  0  0  0  0  0  0  0
    1.6679    0.3187   -0.2977 O   0  0  0  0  0  0  0  0  0  0  0  0
    2.9383   -0.2641   -0.3711 C   0  0  0  0  0  0  0  0  0  0  0  0
    3.1067   -1.4627   -0.0180 O   0  0  0  0  0  0  0  0  0  0  0  0
    4.0598    0.5665   -0.8605 C   0  0  0  0  0  0  0  0  0  0  0  0
    5.3432    0.1760   -1.0044 C   0  0  0  0  0  0  0  0  0  0  0  0
    5.8172   -1.2155   -0.6703 C   0  0  0  0  0  0  0  0  0  0  0  0
    6.3360    1.1814   -1.5246 C   0  0  0  0  0  0  0  0  0  0  0  0
   -0.5792    0.6257    0.4838 C   0  0  0  0  0  0  0  0  0  0  0  0
   -0.8989    1.6081   -0.3703 C   0  0  0  0  0  0  0  0  0  0  0  0
   -1.9364    2.5999   -0.0558 C   0  0  0  0  0  0  0  0  0  0  0  0
   -2.0836    3.5728   -0.8409 O   0  0  0  0  0  0  0  0  0  0  0  0
   -2.7167    2.4967    1.2086 C   0  0  0  0  0  0  0  0  0  0  0  0
   -3.8356    3.3270    1.4885 C   0  0  0  0  0  0  0  0  0  0  0  0
   -4.4415    4.1436    0.5311 O   0  0  0  0  0  0  0  0  0  0  0  0
   -4.4007    3.3193    2.7632 C   0  0  0  0  0  0  0  0  0  0  0  0
   -3.8992    2.4882    3.7571 C   0  0  0  0  0  0  0  0  0  0  0  0
   -2.8357    1.6249    3.4953 C   0  0  0  0  0  0  0  0  0  0  0  0
   -2.3450    0.8783    4.5691 O   0  0  0  0  0  0  0  0  0  0  0  0
   -2.2781    1.5681    2.1891 C   0  0  0  0  0  0  0  0  0  0  0  0
   -1.2886    0.5254    1.7852 C   0  0  0  0  0  0  0  0  0  0  0  0
   -1.1061   -0.4938    2.5026 O   0  0  0  0  0  0  0  0  0  0  0  0
   -3.1231   -3.7343    0.0805 H   0  0  0  0  0  0  0  0  0  0  0  0
   -3.8556   -3.5458   -1.5558 H   0  0  0  0  0  0  0  0  0  0  0  0
   -2.7386   -4.9248   -1.2121 H   0  0  0  0  0  0  0  0  0  0  0  0
   -1.4500   -2.1812   -3.4443 H   0  0  0  0  0  0  0  0  0  0  0  0
   -1.9664   -3.9028   -3.4560 H   0  0  0  0  0  0  0  0  0  0  0  0
   -0.2839   -3.4889   -2.9739 H   0  0  0  0  0  0  0  0  0  0  0  0
   -1.5140   -2.1080    0.3901 H   0  0  0  0  0  0  0  0  0  0  0  0
    0.8475   -1.9704   -1.3451 H   0  0  0  0  0  0  0  0  0  0  0  0
   -0.2677   -0.6876   -1.9210 H   0  0  0  0  0  0  0  0  0  0  0  0
    0.7436   -1.0146    0.9848 H   0  0  0  0  0  0  0  0  0  0  0  0
    3.8037    1.5860   -1.1261 H   0  0  0  0  0  0  0  0  0  0  0  0
    5.6420   -1.4290    0.4049 H   0  0  0  0  0  0  0  0  0  0  0  0
    6.9040   -1.3342   -0.8612 H   0  0  0  0  0  0  0  0  0  0  0  0
    5.2841   -1.9595   -1.2989 H   0  0  0  0  0  0  0  0  0  0  0  0
    7.3573    0.7540   -1.6028 H   0  0  0  0  0  0  0  0  0  0  0  0
    6.3791    2.0552   -0.8405 H   0  0  0  0  0  0  0  0  0  0  0  0
    6.0274    1.5263   -2.5343 H   0  0  0  0  0  0  0  0  0  0  0  0
   -0.3781    1.6952   -1.3171 H   0  0  0  0  0  0  0  0  0  0  0  0
   -4.3206    4.0278   -0.4648 H   0  0  0  0  0  0  0  0  0  0  0  0
   -5.2425    3.9637    2.9845 H   0  0  0  0  0  0  0  0  0  0  0  0
   -4.3357    2.5218    4.7479 H   0  0  0  0  0  0  0  0  0  0  0  0
   -1.4259    0.4597    4.5886 H   0  0  0  0  0  0  0  0  0  0  0  0
  1  2  1  0
  2  3  1  0
  2  4  2  3
  4  5  1  0
  5  6  1  0
  6  7  1  0
  7  8  1  0
  8  9  2  0
  8 10  1  0
 10 11  2  3
 11 12  1  0
 11 13  1  0
  6 14  1  0
 14 15  2  0
 15 16  1  0
 16 17  2  0
 16 18  1  0
 18 19  2  0
 19 20  1  0
 19 21  1  0
 21 22  2  0
 22 23  1  0
 23 24  1  0
 23 25  2  0
 25 26  1  0
 26 27  2  0
 26 14  1  0
 25 18  1  0
  1 28  1  0
  1 29  1  0
  1 30  1  0
  3 31  1  0
  3 32  1  0
  3 33  1  0
  4 34  1  0
  5 35  1  0
  5 36  1  0
  6 37  1  1
 10 38  1  0
 12 39  1  0
 12 40  1  0
 12 41  1  0
 13 42  1  0
 13 43  1  0
 13 44  1  0
 15 45  1  0
 20 46  1  0
 21 47  1  0
 22 48  1  0
 24 49  1  0
M  END
$$$$
