
     RDKit          3D

 53 55  0  0  0  0  0  0  0  0999 V2000
    4.9897   -0.2634   -1.9474 O   0  0  0  0  0  0  0  0  0  0  0  0
    4.0520   -0.3517   -0.7753 S   0  0  0  0  0  6  0  0  0  0  0  0
    3.4931   -1.7446   -0.7066 O   0  0  0  0  0  0  0  0  0  0  0  0
    2.7425    0.8609   -0.9368 C   0  0  0  0  0  0  0  0  0  0  0  0
    2.1671    0.9635   -2.3604 C   0  0  0  0  0  0  0  0  0  0  0  0
    1.1977   -0.1583   -2.8078 C   0  0  1  0  0  0  0  0  0  0  0  0
    1.8733   -1.3857   -2.8947 O   0  0  0  0  0  0  0  0  0  0  0  0
   -0.1127   -0.2839   -1.9778 C   0  0  1  0  0  0  0  0  0  0  0  0
   -0.0452   -1.2755   -0.8218 C   0  0  0  0  0  0  0  0  0  0  0  0
   -1.0209   -0.7059    0.1597 C   0  0  0  0  0  0  0  0  0  0  0  0
   -1.0282    0.7821   -0.1803 C   0  0  2  0  0  0  0  0  0  0  0  0
   -2.4230    1.4003   -0.0499 C   0  0  0  0  0  0  0  0  0  0  0  0
   -3.2803    0.8559   -1.0349 O   0  0  0  0  0  0  0  0  0  0  0  0
   -4.6284    1.1623   -0.7403 C   0  0  0  0  0  0  0  0  0  0  0  0
   -5.2137    0.1157    0.1702 C   0  0  0  0  0  0  0  0  0  0  0  0
   -5.6066    0.4438    1.4785 C   0  0  0  0  0  0  0  0  0  0  0  0
   -6.1251   -0.5413    2.3249 C   0  0  0  0  0  0  0  0  0  0  0  0
   -6.2507   -1.8580    1.8735 C   0  0  0  0  0  0  0  0  0  0  0  0
   -5.8580   -2.1923    0.5745 C   0  0  0  0  0  0  0  0  0  0  0  0
   -5.3399   -1.2101   -0.2753 C   0  0  0  0  0  0  0  0  0  0  0  0
   -0.5347    0.9712   -1.4897 O   0  0  0  0  0  0  0  0  0  0  0  0
    4.9307   -0.0216    0.7135 C   0  0  0  0  0  0  0  0  0  0  0  0
    6.1393    0.6902    0.6858 C   0  0  0  0  0  0  0  0  0  0  0  0
    6.8235    0.9577    1.8761 C   0  0  0  0  0  0  0  0  0  0  0  0
    6.3019    0.5213    3.0975 C   0  0  0  0  0  0  0  0  0  0  0  0
    5.0933   -0.1804    3.1305 C   0  0  0  0  0  0  0  0  0  0  0  0
    4.4070   -0.4495    1.9420 C   0  0  0  0  0  0  0  0  0  0  0  0
    3.1852    1.8473   -0.6820 H   0  0  0  0  0  0  0  0  0  0  0  0
    1.9528    0.6754   -0.1858 H   0  0  0  0  0  0  0  0  0  0  0  0
    1.6334    1.9355   -2.4421 H   0  0  0  0  0  0  0  0  0  0  0  0
    3.0051    1.0225   -3.0879 H   0  0  0  0  0  0  0  0  0  0  0  0
    0.8877    0.1343   -3.8391 H   0  0  0  0  0  0  0  0  0  0  0  0
    1.3058   -1.9890   -3.4427 H   0  0  0  0  0  0  0  0  0  0  0  0
   -0.9060   -0.6506   -2.6693 H   0  0  0  0  0  0  0  0  0  0  0  0
   -0.3415   -2.2982   -1.1426 H   0  0  0  0  0  0  0  0  0  0  0  0
    0.9619   -1.3212   -0.3642 H   0  0  0  0  0  0  0  0  0  0  0  0
   -2.0197   -1.1706   -0.0010 H   0  0  0  0  0  0  0  0  0  0  0  0
   -0.6975   -0.8852    1.2083 H   0  0  0  0  0  0  0  0  0  0  0  0
   -0.3477    1.3101    0.5239 H   0  0  0  0  0  0  0  0  0  0  0  0
   -2.7945    1.2063    0.9835 H   0  0  0  0  0  0  0  0  0  0  0  0
   -2.3391    2.5003   -0.1972 H   0  0  0  0  0  0  0  0  0  0  0  0
   -5.1992    1.1507   -1.6928 H   0  0  0  0  0  0  0  0  0  0  0  0
   -4.7545    2.1911   -0.3261 H   0  0  0  0  0  0  0  0  0  0  0  0
   -5.5079    1.4582    1.8444 H   0  0  0  0  0  0  0  0  0  0  0  0
   -6.4268   -0.2842    3.3321 H   0  0  0  0  0  0  0  0  0  0  0  0
   -6.6513   -2.6193    2.5305 H   0  0  0  0  0  0  0  0  0  0  0  0
   -5.9533   -3.2127    0.2267 H   0  0  0  0  0  0  0  0  0  0  0  0
   -5.0326   -1.4819   -1.2775 H   0  0  0  0  0  0  0  0  0  0  0  0
    6.5508    1.0395   -0.2523 H   0  0  0  0  0  0  0  0  0  0  0  0
    7.7571    1.5049    1.8517 H   0  0  0  0  0  0  0  0  0  0  0  0
    6.8321    0.7294    4.0179 H   0  0  0  0  0  0  0  0  0  0  0  0
    4.6874   -0.5139    4.0768 H   0  0  0  0  0  0  0  0  0  0  0  0
    3.4684   -0.9879    1.9792 H   0  0  0  0  0  0  0  0  0  0  0  0
  1  2  2  0
  2  3  2  0
  2  4  1  0
  4  5  1  0
  5  6  1  0
  6  7  1  0
  6  8  1  0
  8  9  1  0
  9 10  1  0
 10 11  1  0
 11 12  1  0
 12 13  1  0
 13 14  1  0
 14 15  1  0
 15 16  2  0
 16 17  1  0
 17 18  2  0
 18 19  1  0
 19 20  2  0
 11 21  1  0
  2 22  1  0
 22 23  2  0
 23 24  1  0
 24 25  2  0
 25 26  1  0
 26 27  2  0
 21  8  1  0
 27 22  1  0
 20 15  1  0
  4 28  1  0
  4 29  1  0
  5 30  1  0
  5 31  1  0
  6 32  1  6
  7 33  1  0
  8 34  1  6
  9 35  1  0
  9 36  1  0
 10 37  1  0
 10 38  1  0
 11 39  1  1
 12 40  1  0
 12 41  1  0
 14 42  1  0
 14 43  1  0
 16 44  1  0
 17 45  1  0
 18 46  1  0
 19 47  1  0
 20 48  1  0
 23 49  1  0
 24 50  1  0
 25 51  1  0
 26 52  1  0
 27 53  1  0
M  END
$$$$
