
     RDKit          3D

 52 56  0  0  0  0  0  0  0  0999 V2000
    3.1268   -0.2207    2.9097 C   0  0  0  0  0  0  0  0  0  0  0  0
    3.1125   -0.0242    1.4636 N   0  0  0  0  0  0  0  0  0  0  0  0
    2.2122    0.7065    0.7661 C   0  0  0  0  0  0  0  0  0  0  0  0
    2.4698    0.6106   -0.5992 C   0  0  0  0  0  0  0  0  0  0  0  0
    1.6972    1.2432   -1.6856 C   0  0  0  0  0  0  0  0  0  0  0  0
    0.3660    1.3817   -1.7451 C   0  0  0  0  0  0  0  0  0  0  0  0
   -0.6301    0.8279   -0.8091 C   0  0  0  0  0  0  0  0  0  0  0  0
   -1.7166    1.5128   -0.2772 C   0  0  0  0  0  0  0  0  0  0  0  0
   -2.4177    0.7064    0.5544 N   0  0  0  0  0  0  0  0  0  0  0  0
   -3.6534    1.0642    1.2512 C   0  0  0  0  0  0  0  0  0  0  0  0
   -4.8689    0.6281    0.4249 C   0  0  0  0  0  0  0  0  0  0  0  0
   -6.2004    1.0913    1.0402 C   0  0  0  0  0  0  0  0  0  0  0  0
   -6.5099    0.3982    2.2907 N   0  0  0  0  0  0  0  0  0  0  0  0
   -1.8032   -0.4952    0.5280 C   0  0  0  0  0  0  0  0  0  0  0  0
   -2.1803   -1.6700    1.1860 C   0  0  0  0  0  0  0  0  0  0  0  0
   -1.4038   -2.8230    0.9754 C   0  0  0  0  0  0  0  0  0  0  0  0
   -0.2902   -2.7874    0.1097 C   0  0  0  0  0  0  0  0  0  0  0  0
    0.0620   -1.5971   -0.5489 C   0  0  0  0  0  0  0  0  0  0  0  0
   -0.7071   -0.4581   -0.2999 C   0  0  0  0  0  0  0  0  0  0  0  0
    0.0583    2.2182   -2.9065 C   0  0  0  0  0  0  0  0  0  0  0  0
   -1.0952    2.5657   -3.2727 O   0  0  0  0  0  0  0  0  0  0  0  0
    1.2443    2.5913   -3.5892 N   0  0  0  0  0  0  0  0  0  0  0  0
    2.2672    1.9881   -2.8125 C   0  0  0  0  0  0  0  0  0  0  0  0
    3.4954    2.1426   -3.0422 O   0  0  0  0  0  0  0  0  0  0  0  0
    3.5678   -0.2231   -0.7181 C   0  0  0  0  0  0  0  0  0  0  0  0
    4.2211   -0.7311   -1.8423 C   0  0  0  0  0  0  0  0  0  0  0  0
    5.2926   -1.6180   -1.6367 C   0  0  0  0  0  0  0  0  0  0  0  0
    5.6742   -1.9884   -0.3293 C   0  0  0  0  0  0  0  0  0  0  0  0
    4.9844   -1.4801    0.7856 C   0  0  0  0  0  0  0  0  0  0  0  0
    3.9287   -0.5942    0.5547 C   0  0  0  0  0  0  0  0  0  0  0  0
    4.1479   -0.0371    3.3050 H   0  0  0  0  0  0  0  0  0  0  0  0
    2.4245    0.4833    3.4050 H   0  0  0  0  0  0  0  0  0  0  0  0
    2.8209   -1.2613    3.1467 H   0  0  0  0  0  0  0  0  0  0  0  0
    1.4082    1.2731    1.2187 H   0  0  0  0  0  0  0  0  0  0  0  0
   -1.9737    2.5442   -0.4836 H   0  0  0  0  0  0  0  0  0  0  0  0
   -3.6662    0.5800    2.2500 H   0  0  0  0  0  0  0  0  0  0  0  0
   -3.6839    2.1645    1.4112 H   0  0  0  0  0  0  0  0  0  0  0  0
   -4.8706   -0.4774    0.3093 H   0  0  0  0  0  0  0  0  0  0  0  0
   -4.7840    1.0712   -0.5914 H   0  0  0  0  0  0  0  0  0  0  0  0
   -7.0161    0.8874    0.3138 H   0  0  0  0  0  0  0  0  0  0  0  0
   -6.1801    2.1890    1.2165 H   0  0  0  0  0  0  0  0  0  0  0  0
   -6.3928   -0.6323    2.1555 H   0  0  0  0  0  0  0  0  0  0  0  0
   -5.8415    0.7082    3.0317 H   0  0  0  0  0  0  0  0  0  0  0  0
   -3.0455   -1.7037    1.8344 H   0  0  0  0  0  0  0  0  0  0  0  0
   -1.6695   -3.7474    1.4714 H   0  0  0  0  0  0  0  0  0  0  0  0
    0.2904   -3.6853   -0.0570 H   0  0  0  0  0  0  0  0  0  0  0  0
    0.8952   -1.5782   -1.2377 H   0  0  0  0  0  0  0  0  0  0  0  0
    1.3439    3.2071   -4.4263 H   0  0  0  0  0  0  0  0  0  0  0  0
    3.9080   -0.4707   -2.8441 H   0  0  0  0  0  0  0  0  0  0  0  0
    5.8215   -2.0275   -2.4874 H   0  0  0  0  0  0  0  0  0  0  0  0
    6.4964   -2.6769   -0.1841 H   0  0  0  0  0  0  0  0  0  0  0  0
    5.2633   -1.7765    1.7882 H   0  0  0  0  0  0  0  0  0  0  0  0
  1  2  1  0
  2  3  1  0
  3  4  2  0
  4  5  1  0
  5  6  2  0
  6  7  1  0
  7  8  2  0
  8  9  1  0
  9 10  1  0
 10 11  1  0
 11 12  1  0
 12 13  1  0
  9 14  1  0
 14 15  2  0
 15 16  1  0
 16 17  2  0
 17 18  1  0
 18 19  2  0
  6 20  1  0
 20 21  2  0
 20 22  1  0
 22 23  1  0
 23 24  2  0
  4 25  1  0
 25 26  2  0
 26 27  1  0
 27 28  2  0
 28 29  1  0
 29 30  2  0
 30  2  1  0
 23  5  1  0
 30 25  1  0
 19  7  1  0
 19 14  1  0
  1 31  1  0
  1 32  1  0
  1 33  1  0
  3 34  1  0
  8 35  1  0
 10 36  1  0
 10 37  1  0
 11 38  1  0
 11 39  1  0
 12 40  1  0
 12 41  1  0
 13 42  1  0
 13 43  1  0
 15 44  1  0
 16 45  1  0
 17 46  1  0
 18 47  1  0
 22 48  1  0
 26 49  1  0
 27 50  1  0
 28 51  1  0
 29 52  1  0
M  END
$$$$
