REMARK  Name = 
REMARK  8 active torsions:
REMARK  status: ('A' for Active; 'I' for Inactive)
REMARK    1  A    between atoms: C_1  and  O_2
REMARK    2  A    between atoms: O_2  and  C_3
REMARK    3  A    between atoms: C_6  and  N_7
REMARK    4  A    between atoms: N_7  and  C_8
REMARK    5  A    between atoms: C_22  and  O_23
REMARK    6  A    between atoms: O_23  and  C_24
REMARK    7  A    between atoms: C_24  and  C_25
REMARK    8  A    between atoms: N_28  and  C_29
REMARK                            x       y       z     vdW  Elec       q    Type
REMARK                         _______ _______ _______ _____ _____    ______ ____
ROOT
ATOM      1  C   UNL     1      -0.330  -1.550  -1.043  0.00  0.00    +0.162 A 
ATOM      2  C   UNL     1      -1.524  -0.820  -0.881  0.00  0.00    -0.004 A 
ATOM      3  C   UNL     1      -1.751  -0.070   0.288  0.00  0.00    +0.044 A 
ATOM      4  C   UNL     1      -2.928   0.682   0.503  0.00  0.00    +0.134 A 
ATOM      5  N   UNL     1      -3.085   1.346   1.681  0.00  0.00    -0.220 NA
ATOM      6  C   UNL     1      -2.140   1.306   2.654  0.00  0.00    +0.119 A 
ATOM      7  N   UNL     1      -0.999   0.600   2.465  0.00  0.00    -0.235 NA
ATOM      8  C   UNL     1      -0.781  -0.084   1.312  0.00  0.00    +0.080 A 
ATOM      9  C   UNL     1       0.403  -0.808   1.152  0.00  0.00    +0.010 A 
ATOM     10  C   UNL     1       0.640  -1.537  -0.029  0.00  0.00    +0.164 A 
ENDROOT
BRANCH   1  12
ATOM     11  C   UNL     1      -0.947  -2.405  -3.315  0.00  0.00    +0.079 C 
ATOM     12  O   UNL     1      -0.067  -2.301  -2.200  0.00  0.00    -0.491 OA
ENDBRANCH   1  12
BRANCH   4  13
ATOM     13  N   UNL     1      -3.941   0.804  -0.510  0.00  0.00    -0.294 N 
ATOM     14  H   UNL     1      -3.678   0.702  -1.454  0.00  0.00    +0.000 HD
BRANCH  13  15
ATOM     15  C   UNL     1      -5.321   1.069  -0.205  0.00  0.00    +0.104 A 
ATOM     16  C   UNL     1      -5.966   0.425   0.871  0.00  0.00    +0.148 A 
ATOM     17  F   UNL     1      -5.308  -0.485   1.631  0.00  0.00    -0.203 F 
ATOM     18  C   UNL     1      -7.313   0.688   1.141  0.00  0.00    -0.010 A 
ATOM     19  C   UNL     1      -8.030   1.581   0.340  0.00  0.00    +0.023 A 
ATOM     20 BR   UNL     1      -9.870   1.934   0.713  0.00  0.00    -0.050 Br
ATOM     21  C   UNL     1      -7.403   2.206  -0.741  0.00  0.00    -0.010 A 
ATOM     22  C   UNL     1      -6.057   1.948  -1.018  0.00  0.00    +0.148 A 
ATOM     23  F   UNL     1      -5.465   2.570  -2.069  0.00  0.00    -0.203 F 
ENDBRANCH  13  15
ENDBRANCH   4  13
BRANCH  10  24
ATOM     24  O   UNL     1       1.820  -2.273  -0.235  0.00  0.00    -0.488 OA
BRANCH  24  25
ATOM     25  C   UNL     1       2.986  -2.229   0.590  0.00  0.00    +0.093 C 
BRANCH  25  26
ATOM     26  C   UNL     1       3.745  -0.902   0.406  0.00  0.00    -0.004 C 
ATOM     27  C   UNL     1       4.986  -0.859   1.307  0.00  0.00    -0.034 C 
ATOM     28  C   UNL     1       5.701   0.502   1.189  0.00  0.00    -0.001 C 
ATOM     29  N   UNL     1       5.731   1.057  -0.190  0.00  0.00    -0.305 N 
ATOM     30  C   UNL     1       4.864   2.239  -0.342  0.00  0.00    -0.013 C 
ATOM     31  C   UNL     1       5.483   0.051  -1.244  0.00  0.00    -0.001 C 
ATOM     32  C   UNL     1       4.130  -0.670  -1.075  0.00  0.00    -0.034 C 
ATOM     33  H   UNL     1       6.692   1.369  -0.329  0.00  0.00    +0.000 HD
ENDBRANCH  25  26
ENDBRANCH  24  25
ENDBRANCH  10  24
TORSDOF 6
