REMARK  Name = 
REMARK  5 active torsions:
REMARK  status: ('A' for Active; 'I' for Inactive)
REMARK    1  A    between atoms: C_1  and  N_2
REMARK    2  A    between atoms: N_2  and  C_3
REMARK    3  A    between atoms: N_2  and  C_4
REMARK    4  A    between atoms: C_10  and  N_11
REMARK    5  A    between atoms: N_11  and  C_12
REMARK                            x       y       z     vdW  Elec       q    Type
REMARK                         _______ _______ _______ _____ _____    ______ ____
ROOT
ATOM      1  C   UNL     1      -3.088  -0.006   0.476  0.00  0.00    +0.123 A 
ATOM      2  C   UNL     1      -2.627   0.995  -0.401  0.00  0.00    +0.004 A 
ATOM      3  C   UNL     1      -1.282   1.020  -0.776  0.00  0.00    +0.081 A 
ATOM      4  N   UNL     1      -0.830   1.994  -1.608  0.00  0.00    -0.235 NA
ATOM      5  C   UNL     1       0.473   2.043  -1.983  0.00  0.00    +0.119 A 
ATOM      6  N   UNL     1       1.347   1.108  -1.533  0.00  0.00    -0.220 NA
ATOM      7  C   UNL     1       0.958   0.109  -0.694  0.00  0.00    +0.135 A 
ATOM      8  C   UNL     1      -0.392   0.042  -0.288  0.00  0.00    +0.059 A 
ATOM      9  C   UNL     1      -0.886  -0.930   0.596  0.00  0.00    +0.042 A 
ATOM     10  N   UNL     1      -2.200  -0.927   0.945  0.00  0.00    -0.240 NA
ENDROOT
BRANCH   1  12
ATOM     11  C   UNL     1      -5.465   0.894   0.414  0.00  0.00    +0.002 C 
ATOM     12  N   UNL     1      -4.473  -0.075   0.894  0.00  0.00    -0.321 N 
ATOM     13  C   UNL     1      -4.885  -1.140   1.816  0.00  0.00    +0.002 C 
ENDBRANCH   1  12
BRANCH   7  14
ATOM     14  N   UNL     1       1.915  -0.886  -0.291  0.00  0.00    -0.299 N 
ATOM     15  H   UNL     1       1.592  -1.797  -0.106  0.00  0.00    +0.000 HD
BRANCH  14  16
ATOM     16  C   UNL     1       3.321  -0.618  -0.144  0.00  0.00    +0.033 A 
ATOM     17  C   UNL     1       3.788   0.654   0.236  0.00  0.00    -0.040 A 
ATOM     18  C   UNL     1       5.158   0.884   0.394  0.00  0.00    -0.059 A 
ATOM     19  C   UNL     1       6.072  -0.152   0.186  0.00  0.00    -0.048 A 
ATOM     20  C   UNL     1       5.617  -1.424  -0.172  0.00  0.00    +0.020 A 
ATOM     21 BR   UNL     1       6.865  -2.844  -0.443  0.00  0.00    -0.050 Br
ATOM     22  C   UNL     1       4.246  -1.658  -0.330  0.00  0.00    -0.027 A 
ENDBRANCH  14  16
ENDBRANCH   7  14
TORSDOF 3
