REMARK  Name = 
REMARK  15 active torsions:
REMARK  status: ('A' for Active; 'I' for Inactive)
REMARK    1  A    between atoms: C_1  and  C_2
REMARK    2  A    between atoms: C_2  and  O_4
REMARK    3  A    between atoms: O_4  and  C_5
REMARK    4  A    between atoms: C_11  and  C_12
REMARK    5  A    between atoms: N_14  and  C_15
REMARK    6  A    between atoms: C_21  and  S_22
REMARK    7  A    between atoms: S_22  and  S_23
REMARK    8  A    between atoms: S_23  and  C_24
REMARK    9  A    between atoms: C_25  and  C_26
REMARK   10  A    between atoms: N_28  and  C_29
REMARK   11  A    between atoms: C_36  and  O_37
REMARK   12  A    between atoms: O_37  and  C_38
REMARK   13  A    between atoms: C_38  and  C_39
REMARK   14  A    between atoms: N_45  and  C_46
REMARK   15  A    between atoms: N_47  and  C_48
REMARK                            x       y       z     vdW  Elec       q    Type
REMARK                         _______ _______ _______ _____ _____    ______ ____
ROOT
ATOM      1  S   UNL     1      -0.363   1.026  -0.527  0.00  0.00    -0.032 S 
ENDROOT
BRANCH   1   9
ATOM      2  C   UNL     1      -4.555  -1.947  -1.852  0.00  0.00    +0.142 A 
ATOM      3  C   UNL     1      -4.651  -3.197  -2.507  0.00  0.00    -0.018 A 
ATOM      4  C   UNL     1      -3.496  -3.844  -2.990  0.00  0.00    -0.056 A 
ATOM      5  C   UNL     1      -2.229  -3.265  -2.820  0.00  0.00    -0.037 A 
ATOM      6  C   UNL     1      -2.148  -2.045  -2.145  0.00  0.00    +0.054 A 
ATOM      7  C   UNL     1      -3.273  -1.413  -1.665  0.00  0.00    +0.055 A 
ATOM      8  C   UNL     1      -2.847  -0.234  -1.071  0.00  0.00    +0.080 A 
ATOM      9  C   UNL     1      -1.460  -0.222  -1.211  0.00  0.00    +0.100 A 
ATOM     10  N   UNL     1      -1.038  -1.330  -1.870  0.00  0.00    -0.337 N 
ATOM     11  C   UNL     1       0.329  -1.658  -2.278  0.00  0.00    +0.013 C 
BRANCH   8  12
ATOM     12  C   UNL     1      -3.662   0.764  -0.356  0.00  0.00    +0.252 C 
ATOM     13  O   UNL     1      -4.507   0.373   0.494  0.00  0.00    -0.270 OA
ATOM     14  N   UNL     1      -3.452   2.167  -0.591  0.00  0.00    -0.281 N 
ATOM     15  H   UNL     1      -2.851   2.426  -1.326  0.00  0.00    +0.000 HD
BRANCH  14  16
ATOM     16  C   UNL     1      -4.063   3.216   0.179  0.00  0.00    +0.034 A 
ATOM     17  C   UNL     1      -5.418   3.158   0.559  0.00  0.00    -0.040 A 
ATOM     18  C   UNL     1      -5.991   4.208   1.287  0.00  0.00    -0.060 A 
ATOM     19  C   UNL     1      -5.224   5.326   1.629  0.00  0.00    -0.062 A 
ATOM     20  C   UNL     1      -3.884   5.400   1.236  0.00  0.00    -0.060 A 
ATOM     21  C   UNL     1      -3.308   4.355   0.506  0.00  0.00    -0.040 A 
ENDBRANCH  14  16
ENDBRANCH   8  12
BRANCH   2  22
ATOM     22  O   UNL     1      -5.675  -1.253  -1.372  0.00  0.00    -0.425 OA
BRANCH  22  24
ATOM     23  C   UNL     1      -8.088  -0.668  -1.150  0.00  0.00    +0.034 C 
ATOM     24  C   UNL     1      -6.972  -1.327  -1.892  0.00  0.00    +0.309 C 
ATOM     25  O   UNL     1      -7.196  -1.842  -3.021  0.00  0.00    -0.251 OA
ENDBRANCH  22  24
ENDBRANCH   2  22
ENDBRANCH   1   9
BRANCH   1  26
ATOM     26  S   UNL     1      -0.539   0.267   1.460  0.00  0.00    -0.032 S 
BRANCH  26  27
ATOM     27  C   UNL     1       0.781  -0.929   1.228  0.00  0.00    +0.100 A 
ATOM     28  C   UNL     1       2.139  -0.620   1.193  0.00  0.00    +0.080 A 
ATOM     29  C   UNL     1       2.792  -1.821   0.947  0.00  0.00    +0.055 A 
ATOM     30  C   UNL     1       4.155  -2.140   0.859  0.00  0.00    +0.142 A 
ATOM     31  C   UNL     1       4.492  -3.489   0.595  0.00  0.00    -0.018 A 
ATOM     32  C   UNL     1       3.489  -4.472   0.478  0.00  0.00    -0.056 A 
ATOM     33  C   UNL     1       2.135  -4.129   0.614  0.00  0.00    -0.037 A 
ATOM     34  C   UNL     1       1.815  -2.789   0.847  0.00  0.00    +0.054 A 
ATOM     35  N   UNL     1       0.587  -2.255   1.011  0.00  0.00    -0.337 N 
ATOM     36  C   UNL     1      -0.682  -2.984   1.027  0.00  0.00    +0.013 C 
BRANCH  28  37
ATOM     37  C   UNL     1       2.728   0.723   1.332  0.00  0.00    +0.252 C 
ATOM     38  O   UNL     1       2.275   1.511   2.205  0.00  0.00    -0.270 OA
ATOM     39  N   UNL     1       3.742   1.164   0.418  0.00  0.00    -0.281 N 
ATOM     40  H   UNL     1       3.803   0.716  -0.456  0.00  0.00    +0.000 HD
BRANCH  39  41
ATOM     41  C   UNL     1       4.675   2.221   0.701  0.00  0.00    +0.034 A 
ATOM     42  C   UNL     1       5.077   2.514   2.020  0.00  0.00    -0.040 A 
ATOM     43  C   UNL     1       6.019   3.518   2.261  0.00  0.00    -0.060 A 
ATOM     44  C   UNL     1       6.573   4.232   1.195  0.00  0.00    -0.062 A 
ATOM     45  C   UNL     1       6.191   3.938  -0.117  0.00  0.00    -0.060 A 
ATOM     46  C   UNL     1       5.251   2.933  -0.363  0.00  0.00    -0.040 A 
ENDBRANCH  39  41
ENDBRANCH  28  37
BRANCH  30  47
ATOM     47  O   UNL     1       5.122  -1.135   1.005  0.00  0.00    -0.425 OA
BRANCH  47  48
ATOM     48  C   UNL     1       6.443  -1.321   1.427  0.00  0.00    +0.309 C 
ATOM     49  C   UNL     1       7.420  -0.207   1.264  0.00  0.00    +0.034 C 
ATOM     50  O   UNL     1       6.792  -2.370   2.032  0.00  0.00    -0.251 OA
ENDBRANCH  47  48
ENDBRANCH  30  47
ENDBRANCH  26  27
ENDBRANCH   1  26
TORSDOF 11
