REMARK  Name = 
REMARK  9 active torsions:
REMARK  status: ('A' for Active; 'I' for Inactive)
REMARK    1  A    between atoms: O_1  and  C_2
REMARK    2  A    between atoms: C_2  and  C_3
REMARK    3  A    between atoms: C_3  and  N_4
REMARK    4  A    between atoms: N_4  and  C_5
REMARK    5  A    between atoms: N_4  and  C_8
REMARK    6  A    between atoms: C_5  and  C_6
REMARK    7  A    between atoms: C_6  and  O_7
REMARK    8  A    between atoms: C_14  and  N_15
REMARK    9  A    between atoms: N_15  and  C_16
REMARK                            x       y       z     vdW  Elec       q    Type
REMARK                         _______ _______ _______ _____ _____    ______ ____
ROOT
ATOM      1  C   UNL     1      -2.028  -0.546   0.075  0.00  0.00    +0.123 A 
ATOM      2  C   UNL     1      -1.589   0.122   1.230  0.00  0.00    +0.004 A 
ATOM      3  C   UNL     1      -0.221   0.305   1.444  0.00  0.00    +0.081 A 
ATOM      4  N   UNL     1       0.209   0.964   2.551  0.00  0.00    -0.235 NA
ATOM      5  C   UNL     1       1.532   1.160   2.777  0.00  0.00    +0.119 A 
ATOM      6  N   UNL     1       2.451   0.689   1.896  0.00  0.00    -0.220 NA
ATOM      7  C   UNL     1       2.084   0.024   0.766  0.00  0.00    +0.135 A 
ATOM      8  C   UNL     1       0.713  -0.185   0.509  0.00  0.00    +0.059 A 
ATOM      9  C   UNL     1       0.232  -0.828  -0.643  0.00  0.00    +0.042 A 
ATOM     10  N   UNL     1      -1.106  -0.988  -0.825  0.00  0.00    -0.239 NA
ENDROOT
BRANCH   7  11
ATOM     11  N   UNL     1       3.102  -0.498  -0.106  0.00  0.00    -0.299 N 
ATOM     12  H   UNL     1       2.905  -1.318  -0.615  0.00  0.00    +0.000 HD
BRANCH  11  13
ATOM     13  C   UNL     1       4.392   0.115  -0.273  0.00  0.00    +0.033 A 
ATOM     14  C   UNL     1       4.564   1.506  -0.142  0.00  0.00    -0.040 A 
ATOM     15  C   UNL     1       5.824   2.082  -0.331  0.00  0.00    -0.059 A 
ATOM     16  C   UNL     1       6.919   1.280  -0.663  0.00  0.00    -0.048 A 
ATOM     17  C   UNL     1       6.755  -0.100  -0.814  0.00  0.00    +0.020 A 
ATOM     18 BR   UNL     1       8.249  -1.194  -1.280  0.00  0.00    -0.050 Br
ATOM     19  C   UNL     1       5.495  -0.679  -0.626  0.00  0.00    -0.027 A 
ENDBRANCH  11  13
ENDBRANCH   7  11
BRANCH   1  20
ATOM     20  N   UNL     1      -3.436  -0.741  -0.190  0.00  0.00    -0.311 N 
BRANCH  20  21
ATOM     21  C   UNL     1      -4.373  -1.065   0.899  0.00  0.00    +0.037 C 
BRANCH  21  22
ATOM     22  C   UNL     1      -5.426   0.033   1.077  0.00  0.00    +0.060 C 
BRANCH  22  23
ATOM     23  O   UNL     1      -4.821   1.264   1.361  0.00  0.00    -0.393 OA
ATOM     24  H   UNL     1      -5.505   1.944   1.470  0.00  0.00    +0.000 HD
ENDBRANCH  22  23
ENDBRANCH  21  22
ENDBRANCH  20  21
BRANCH  20  25
ATOM     25  C   UNL     1      -3.914  -0.799  -1.582  0.00  0.00    +0.037 C 
BRANCH  25  26
ATOM     26  C   UNL     1      -3.938   0.594  -2.215  0.00  0.00    +0.060 C 
BRANCH  26  27
ATOM     27  O   UNL     1      -2.633   1.069  -2.398  0.00  0.00    -0.393 OA
ATOM     28  H   UNL     1      -2.187   1.126  -1.539  0.00  0.00    +0.000 HD
ENDBRANCH  26  27
ENDBRANCH  25  26
ENDBRANCH  20  25
ENDBRANCH   1  20
TORSDOF 9
