REMARK  Name = 
REMARK  7 active torsions:
REMARK  status: ('A' for Active; 'I' for Inactive)
REMARK    1  A    between atoms: C_2  and  C_4
REMARK    2  A    between atoms: C_4  and  C_5
REMARK    3  A    between atoms: C_6  and  S_7
REMARK    4  A    between atoms: S_7  and  S_8
REMARK    5  A    between atoms: S_8  and  C_9
REMARK    6  A    between atoms: C_17  and  C_18
REMARK    7  A    between atoms: C_18  and  C_19
REMARK                            x       y       z     vdW  Elec       q    Type
REMARK                         _______ _______ _______ _____ _____    ______ ____
ROOT
ATOM      1  S   UNL     1       0.899  -1.978   0.136  0.00  0.00    -0.032 S 
ENDROOT
BRANCH   1   3
ATOM      2  C   UNL     1       3.000  -0.211  -0.595  0.00  0.00    +0.003 A 
ATOM      3  C   UNL     1       1.809  -0.435   0.093  0.00  0.00    +0.089 A 
ATOM      4  N   UNL     1       1.417   0.676   0.757  0.00  0.00    -0.349 N 
ATOM      5  C   UNL     1       2.353   1.605   0.498  0.00  0.00    +0.048 A 
ATOM      6  C   UNL     1       2.392   2.916   0.969  0.00  0.00    -0.038 A 
ATOM      7  C   UNL     1       3.482   3.720   0.586  0.00  0.00    -0.060 A 
ATOM      8  C   UNL     1       4.498   3.200  -0.246  0.00  0.00    -0.061 A 
ATOM      9  C   UNL     1       4.433   1.872  -0.706  0.00  0.00    -0.052 A 
ATOM     10  C   UNL     1       3.338   1.100  -0.316  0.00  0.00    +0.004 A 
ATOM     11  H   UNL     1       0.612   0.782   1.314  0.00  0.00    +0.000 HD
BRANCH   2  12
ATOM     12  C   UNL     1       3.795  -1.205  -1.389  0.00  0.00    +0.073 C 
BRANCH  12  14
ATOM     13  O   UNL     1       5.994  -1.478  -0.497  0.00  0.00    -0.251 OA
ATOM     14  C   UNL     1       4.799  -1.876  -0.510  0.00  0.00    +0.309 C 
ATOM     15  O   UNL     1       4.403  -2.918   0.322  0.00  0.00    -0.480 OA
ENDBRANCH  12  14
ENDBRANCH   2  12
ENDBRANCH   1   3
BRANCH   1  16
ATOM     16  S   UNL     1      -0.143  -1.530  -1.670  0.00  0.00    -0.032 S 
BRANCH  16  17
ATOM     17  C   UNL     1      -1.485  -0.728  -0.796  0.00  0.00    +0.089 A 
ATOM     18  N   UNL     1      -1.540   0.606  -0.587  0.00  0.00    -0.349 N 
ATOM     19  C   UNL     1      -2.690   0.824   0.075  0.00  0.00    +0.048 A 
ATOM     20  C   UNL     1      -3.196   2.050   0.504  0.00  0.00    -0.038 A 
ATOM     21  C   UNL     1      -4.437   2.054   1.166  0.00  0.00    -0.060 A 
ATOM     22  C   UNL     1      -5.139   0.846   1.377  0.00  0.00    -0.061 A 
ATOM     23  C   UNL     1      -4.606  -0.377   0.931  0.00  0.00    -0.052 A 
ATOM     24  C   UNL     1      -3.370  -0.350   0.284  0.00  0.00    +0.004 A 
ATOM     25  C   UNL     1      -2.605  -1.364  -0.262  0.00  0.00    +0.003 A 
ATOM     26  H   UNL     1      -0.877   1.279  -0.863  0.00  0.00    +0.000 HD
BRANCH  25  27
ATOM     27  C   UNL     1      -2.954  -2.820  -0.348  0.00  0.00    +0.073 C 
BRANCH  27  28
ATOM     28  C   UNL     1      -3.813  -3.070  -1.544  0.00  0.00    +0.309 C 
ATOM     29  O   UNL     1      -3.286  -3.264  -2.672  0.00  0.00    -0.251 OA
ATOM     30  O   UNL     1      -5.199  -3.039  -1.419  0.00  0.00    -0.480 OA
ENDBRANCH  27  28
ENDBRANCH  25  27
ENDBRANCH  16  17
ENDBRANCH   1  16
TORSDOF 7
