REMARK  Name = 
REMARK  3 active torsions:
REMARK  status: ('A' for Active; 'I' for Inactive)
REMARK    1  A    between atoms: C_1  and  N_2
REMARK    2  A    between atoms: C_8  and  C_9
REMARK    3  A    between atoms: N_19  and  C_20
REMARK                            x       y       z     vdW  Elec       q    Type
REMARK                         _______ _______ _______ _____ _____    ______ ____
ROOT
ATOM      1  C   UNL     1      -5.640  -0.424  -0.082  0.00  0.00    +0.000 C 
ATOM      2  N   UNL     1      -4.893  -0.110   1.130  0.00  0.00    -0.316 N 
ATOM      3  C   UNL     1      -3.465  -0.018   1.137  0.00  0.00    +0.217 A 
ATOM      4  N   UNL     1      -2.814   0.276   2.293  0.00  0.00    -0.222 NA
ATOM      5  C   UNL     1      -1.461   0.372   2.332  0.00  0.00    +0.042 A 
ATOM      6  C   UNL     1      -0.714   0.166   1.168  0.00  0.00    +0.037 A 
ATOM      7  C   UNL     1       0.675   0.271   1.163  0.00  0.00    -0.037 A 
ATOM      8  C   UNL     1       1.380   0.081  -0.027  0.00  0.00    +0.050 A 
ATOM      9  C   UNL     1       0.676  -0.229  -1.206  0.00  0.00    +0.260 A 
ATOM     10  O   UNL     1       1.319  -0.388  -2.281  0.00  0.00    -0.267 OA
ATOM     11  N   UNL     1      -0.694  -0.361  -1.188  0.00  0.00    -0.295 N 
ATOM     12  C   UNL     1      -1.423  -0.662  -2.433  0.00  0.00    +0.017 C 
ATOM     13  C   UNL     1      -1.394  -0.144  -0.026  0.00  0.00    +0.148 A 
ATOM     14  N   UNL     1      -2.754  -0.224  -0.005  0.00  0.00    -0.196 NA
ATOM     15  H   UNL     1      -5.386   0.043   1.968  0.00  0.00    +0.000 HD
ENDROOT
BRANCH   8  16
ATOM     16  C   UNL     1       2.854   0.216  -0.028  0.00  0.00    +0.024 A 
ATOM     17  C   UNL     1       3.464   1.366  -0.573  0.00  0.00    +0.050 A 
ATOM     18 CL   UNL     1       2.508   2.685  -1.243  0.00  0.00    -0.083 Cl
ATOM     19  C   UNL     1       4.858   1.486  -0.569  0.00  0.00    -0.043 A 
ATOM     20  C   UNL     1       5.650   0.473  -0.027  0.00  0.00    -0.059 A 
ATOM     21  C   UNL     1       5.055  -0.667   0.515  0.00  0.00    -0.043 A 
ATOM     22  C   UNL     1       3.662  -0.802   0.519  0.00  0.00    +0.050 A 
ATOM     23 CL   UNL     1       2.962  -2.269   1.198  0.00  0.00    -0.083 Cl
ENDBRANCH   8  16
TORSDOF 1
