REMARK  Name = 
REMARK  10 active torsions:
REMARK  status: ('A' for Active; 'I' for Inactive)
REMARK    1  A    between atoms: C_1  and  N_2
REMARK    2  A    between atoms: N_2  and  C_3
REMARK    3  A    between atoms: N_2  and  C_4
REMARK    4  A    between atoms: C_4  and  C_5
REMARK    5  A    between atoms: C_5  and  C_6
REMARK    6  A    between atoms: C_6  and  C_7
REMARK    7  A    between atoms: C_7  and  N_8
REMARK    8  A    between atoms: N_8  and  C_9
REMARK    9  A    between atoms: C_15  and  N_16
REMARK   10  A    between atoms: N_16  and  C_17
REMARK                            x       y       z     vdW  Elec       q    Type
REMARK                         _______ _______ _______ _____ _____    ______ ____
ROOT
ATOM      1  C   UNL     1       0.343   1.214   1.396  0.00  0.00    +0.121 A 
ATOM      2  C   UNL     1      -0.517   2.318   1.355  0.00  0.00    +0.004 A 
ATOM      3  C   UNL     1      -1.878   2.123   1.111  0.00  0.00    +0.081 A 
ATOM      4  N   UNL     1      -2.716   3.189   1.051  0.00  0.00    -0.235 NA
ATOM      5  C   UNL     1      -4.041   3.023   0.808  0.00  0.00    +0.119 A 
ATOM      6  N   UNL     1      -4.550   1.778   0.629  0.00  0.00    -0.220 NA
ATOM      7  C   UNL     1      -3.762   0.668   0.674  0.00  0.00    +0.135 A 
ATOM      8  C   UNL     1      -2.381   0.818   0.920  0.00  0.00    +0.059 A 
ATOM      9  C   UNL     1      -1.479  -0.260   0.957  0.00  0.00    +0.042 A 
ATOM     10  N   UNL     1      -0.160  -0.036   1.194  0.00  0.00    -0.240 NA
ENDROOT
BRANCH   1  11
ATOM     11  N   UNL     1       1.743   1.403   1.648  0.00  0.00    -0.329 N 
ATOM     12  H   UNL     1       2.073   2.314   1.823  0.00  0.00    +0.000 HD
BRANCH  11  13
ATOM     13  C   UNL     1       2.701   0.299   1.655  0.00  0.00    +0.010 C 
BRANCH  13  14
ATOM     14  C   UNL     1       3.014  -0.148   0.220  0.00  0.00    -0.036 C 
BRANCH  14  15
ATOM     15  C   UNL     1       4.039  -1.294   0.180  0.00  0.00    -0.039 C 
BRANCH  15  16
ATOM     16  C   UNL     1       5.489  -0.821   0.429  0.00  0.00    -0.002 C 
BRANCH  16  18
ATOM     17  C   UNL     1       5.998   0.151  -1.743  0.00  0.00    -0.013 C 
ATOM     18  N   UNL     1       6.312  -0.933  -0.795  0.00  0.00    -0.308 N 
ATOM     19  C   UNL     1       7.741  -0.879  -0.448  0.00  0.00    -0.013 C 
ATOM     20  H   UNL     1       6.099  -1.827  -1.238  0.00  0.00    +0.000 HD
ENDBRANCH  16  18
ENDBRANCH  15  16
ENDBRANCH  14  15
ENDBRANCH  13  14
ENDBRANCH  11  13
ENDBRANCH   1  11
BRANCH   7  21
ATOM     21  N   UNL     1      -4.364  -0.630   0.529  0.00  0.00    -0.299 N 
ATOM     22  H   UNL     1      -3.950  -1.391   0.996  0.00  0.00    +0.000 HD
BRANCH  21  23
ATOM     23  C   UNL     1      -5.539  -0.873  -0.264  0.00  0.00    +0.033 A 
ATOM     24  C   UNL     1      -6.393  -1.936   0.072  0.00  0.00    -0.040 A 
ATOM     25  C   UNL     1      -7.530  -2.201  -0.696  0.00  0.00    -0.059 A 
ATOM     26  C   UNL     1      -7.818  -1.416  -1.815  0.00  0.00    -0.048 A 
ATOM     27  C   UNL     1      -6.965  -0.367  -2.172  0.00  0.00    +0.020 A 
ATOM     28 BR   UNL     1      -7.348   0.692  -3.714  0.00  0.00    -0.050 Br
ATOM     29  C   UNL     1      -5.826  -0.099  -1.405  0.00  0.00    -0.027 A 
ENDBRANCH  21  23
ENDBRANCH   7  21
TORSDOF 8
