REMARK  Name = 
REMARK  7 active torsions:
REMARK  status: ('A' for Active; 'I' for Inactive)
REMARK    1  A    between atoms: C_1  and  O_2
REMARK    2  A    between atoms: O_2  and  C_3
REMARK    3  A    between atoms: C_8  and  C_9
REMARK    4  A    between atoms: C_11  and  N_12
REMARK    5  A    between atoms: N_12  and  C_13
REMARK    6  A    between atoms: C_22  and  O_23
REMARK    7  A    between atoms: O_23  and  C_24
REMARK                            x       y       z     vdW  Elec       q    Type
REMARK                         _______ _______ _______ _____ _____    ______ ____
ROOT
ATOM      1  C   UNL     1      -1.773  -2.299  -0.361  0.00  0.00    +0.164 A 
ATOM      2  C   UNL     1      -1.324  -2.120  -1.682  0.00  0.00    +0.010 A 
ATOM      3  C   UNL     1      -0.682  -0.937  -2.059  0.00  0.00    +0.077 A 
ATOM      4  N   UNL     1      -0.270  -0.778  -3.345  0.00  0.00    -0.253 NA
ATOM      5  C   UNL     1       0.349   0.353  -3.766  0.00  0.00    +0.047 A 
ATOM      6  C   UNL     1       0.592   1.399  -2.872  0.00  0.00    +0.091 A 
ATOM      7  C   UNL     1       0.200   1.268  -1.527  0.00  0.00    +0.060 A 
ATOM      8  C   UNL     1      -0.470   0.091  -1.114  0.00  0.00    +0.026 A 
ATOM      9  C   UNL     1      -0.943  -0.082   0.199  0.00  0.00    -0.005 A 
ATOM     10  C   UNL     1      -1.583  -1.277   0.582  0.00  0.00    +0.162 A 
ENDROOT
BRANCH   1  12
ATOM     11  C   UNL     1      -2.675  -4.595  -0.788  0.00  0.00    +0.079 C 
ATOM     12  O   UNL     1      -2.415  -3.476   0.055  0.00  0.00    -0.491 OA
ENDBRANCH   1  12
BRANCH   6  13
ATOM     13  C   UNL     1       1.270   2.584  -3.337  0.00  0.00    +0.103 C 
ATOM     14  N   UNL     1       1.815   3.535  -3.710  0.00  0.00    -0.191 NA
ENDBRANCH   6  13
BRANCH   7  15
ATOM     15  N   UNL     1       0.475   2.334  -0.601  0.00  0.00    -0.313 N 
ATOM     16  H   UNL     1       0.022   3.197  -0.738  0.00  0.00    +0.000 HD
BRANCH  15  17
ATOM     17  C   UNL     1       1.377   2.207   0.514  0.00  0.00    +0.032 A 
ATOM     18  C   UNL     1       1.446   3.239   1.463  0.00  0.00    -0.040 A 
ATOM     19  C   UNL     1       2.306   3.137   2.560  0.00  0.00    -0.059 A 
ATOM     20  C   UNL     1       3.109   2.005   2.718  0.00  0.00    -0.048 A 
ATOM     21  C   UNL     1       3.057   0.974   1.775  0.00  0.00    +0.020 A 
ATOM     22 BR   UNL     1       4.158  -0.572   1.988  0.00  0.00    -0.050 Br
ATOM     23  C   UNL     1       2.199   1.075   0.674  0.00  0.00    -0.027 A 
ENDBRANCH  15  17
ENDBRANCH   7  15
BRANCH  10  24
ATOM     24  O   UNL     1      -2.045  -1.487   1.891  0.00  0.00    -0.491 OA
ATOM     25  C   UNL     1      -1.899  -0.556   2.959  0.00  0.00    +0.079 C 
ENDBRANCH  10  24
TORSDOF 5
