REMARK  Name = 
REMARK  14 active torsions:
REMARK  status: ('A' for Active; 'I' for Inactive)
REMARK    1  A    between atoms: C_1  and  S_2
REMARK    2  A    between atoms: S_2  and  C_5
REMARK    3  A    between atoms: C_5  and  C_6
REMARK    4  A    between atoms: C_6  and  N_7
REMARK    5  A    between atoms: N_7  and  C_8
REMARK    6  A    between atoms: C_8  and  C_9
REMARK    7  A    between atoms: C_9  and  C_10
REMARK    8  A    between atoms: C_10  and  C_11
REMARK    9  A    between atoms: C_11  and  O_12
REMARK   10  A    between atoms: O_12  and  C_13
REMARK   11  A    between atoms: N_21  and  C_22
REMARK   12  A    between atoms: C_25  and  O_26
REMARK   13  A    between atoms: O_26  and  C_27
REMARK   14  A    between atoms: C_27  and  C_28
REMARK                            x       y       z     vdW  Elec       q    Type
REMARK                         _______ _______ _______ _____ _____    ______ ____
ROOT
ATOM      1  C   UNL     1      -1.601   0.278   2.578  0.00  0.00    +0.121 A 
ATOM      2  C   UNL     1      -1.863   0.854   3.825  0.00  0.00    -0.018 A 
ATOM      3  C   UNL     1      -0.823   1.345   4.614  0.00  0.00    -0.032 A 
ATOM      4  C   UNL     1       0.498   1.257   4.168  0.00  0.00    +0.076 A 
ATOM      5  N   UNL     1       1.501   1.756   4.934  0.00  0.00    -0.235 NA
ATOM      6  C   UNL     1       2.792   1.690   4.525  0.00  0.00    +0.119 A 
ATOM      7  N   UNL     1       3.102   1.109   3.340  0.00  0.00    -0.220 NA
ATOM      8  C   UNL     1       2.144   0.593   2.522  0.00  0.00    +0.134 A 
ATOM      9  N   UNL     1       2.540  -0.056   1.301  0.00  0.00    -0.299 N 
ATOM     10  C   UNL     1       0.790   0.659   2.921  0.00  0.00    +0.044 A 
ATOM     11  C   UNL     1      -0.270   0.185   2.123  0.00  0.00    -0.007 A 
ATOM     12  H   UNL     1       1.986  -0.798   0.966  0.00  0.00    +0.000 HD
ENDROOT
BRANCH   9  13
ATOM     13  C   UNL     1       3.703   0.325   0.544  0.00  0.00    +0.034 A 
ATOM     14  C   UNL     1       4.347  -0.626  -0.259  0.00  0.00    -0.037 A 
ATOM     15  C   UNL     1       5.476  -0.279  -1.006  0.00  0.00    -0.017 A 
ATOM     16  C   UNL     1       5.980   1.035  -0.965  0.00  0.00    +0.139 A 
ATOM     17  C   UNL     1       5.316   1.995  -0.186  0.00  0.00    +0.084 A 
ATOM     18 CL   UNL     1       5.892   3.653  -0.139  0.00  0.00    -0.080 Cl
ATOM     19  C   UNL     1       4.183   1.645   0.556  0.00  0.00    -0.019 A 
BRANCH  16  20
ATOM     20  O   UNL     1       7.125   1.426  -1.681  0.00  0.00    -0.486 OA
BRANCH  20  21
ATOM     21  C   UNL     1       7.943   0.561  -2.469  0.00  0.00    +0.115 C 
BRANCH  21  22
ATOM     22  C   UNL     1       8.697  -0.414  -1.601  0.00  0.00    -0.008 A 
ATOM     23  C   UNL     1       9.380   0.035  -0.459  0.00  0.00    -0.055 A 
ATOM     24  C   UNL     1      10.102  -0.866   0.330  0.00  0.00    -0.059 A 
ATOM     25  C   UNL     1      10.160  -2.217  -0.024  0.00  0.00    -0.026 A 
ATOM     26  C   UNL     1       9.494  -2.670  -1.166  0.00  0.00    +0.124 A 
ATOM     27  F   UNL     1       9.559  -3.978  -1.516  0.00  0.00    -0.205 F 
ATOM     28  C   UNL     1       8.770  -1.772  -1.957  0.00  0.00    -0.020 A 
ENDBRANCH  21  22
ENDBRANCH  20  21
ENDBRANCH  16  20
ENDBRANCH   9  13
BRANCH   1  29
ATOM     29  O   UNL     1      -2.690  -0.185   1.825  0.00  0.00    -0.492 OA
BRANCH  29  30
ATOM     30  C   UNL     1      -2.594  -0.765   0.526  0.00  0.00    +0.090 C 
BRANCH  30  31
ATOM     31  C   UNL     1      -3.985  -1.154   0.025  0.00  0.00    -0.017 C 
BRANCH  31  32
ATOM     32  C   UNL     1      -4.890   0.074  -0.145  0.00  0.00    -0.037 C 
BRANCH  32  33
ATOM     33  C   UNL     1      -6.287  -0.331  -0.622  0.00  0.00    -0.004 C 
BRANCH  33  34
ATOM     34  N   UNL     1      -7.133   0.862  -0.770  0.00  0.00    -0.314 N 
ATOM     35  H   UNL     1      -7.228   1.316   0.138  0.00  0.00    +0.000 HD
ATOM     36  H   UNL     1      -6.690   1.488  -1.443  0.00  0.00    +0.000 HD
BRANCH  34  37
ATOM     37  C   UNL     1      -8.470   0.514  -1.273  0.00  0.00    +0.015 C 
BRANCH  37  38
ATOM     38  C   UNL     1      -8.481   0.492  -2.804  0.00  0.00    +0.078 C 
BRANCH  38  40
ATOM     39  C   UNL     1     -10.741  -1.368  -2.953  0.00  0.00    +0.054 C 
ATOM     40  S   UNL     1     -10.133   0.235  -3.437  0.00  0.00    -0.033 S 
ATOM     41  O   UNL     1     -11.055   1.298  -2.907  0.00  0.00    -0.175 OA
ATOM     42  O   UNL     1     -10.101   0.317  -4.937  0.00  0.00    -0.175 OA
ENDBRANCH  38  40
ENDBRANCH  37  38
ENDBRANCH  34  37
ENDBRANCH  33  34
ENDBRANCH  32  33
ENDBRANCH  31  32
ENDBRANCH  30  31
ENDBRANCH  29  30
ENDBRANCH   1  29
TORSDOF 13
