REMARK  Name = 
REMARK  7 active torsions:
REMARK  status: ('A' for Active; 'I' for Inactive)
REMARK    1  A    between atoms: C_1  and  O_2
REMARK    2  A    between atoms: O_2  and  C_3
REMARK    3  A    between atoms: C_6  and  N_7
REMARK    4  A    between atoms: N_7  and  C_8
REMARK    5  A    between atoms: C_21  and  O_22
REMARK    6  A    between atoms: O_22  and  C_23
REMARK    7  A    between atoms: C_23  and  C_24
REMARK                            x       y       z     vdW  Elec       q    Type
REMARK                         _______ _______ _______ _____ _____    ______ ____
ROOT
ATOM      1  C   UNL     1       0.021   1.025  -0.686  0.00  0.00    +0.162 A 
ATOM      2  C   UNL     1       1.338   0.862  -0.212  0.00  0.00    -0.004 A 
ATOM      3  C   UNL     1       1.722  -0.323   0.441  0.00  0.00    +0.044 A 
ATOM      4  C   UNL     1       3.028  -0.540   0.936  0.00  0.00    +0.134 A 
ATOM      5  N   UNL     1       3.325  -1.732   1.523  0.00  0.00    -0.220 NA
ATOM      6  C   UNL     1       2.402  -2.718   1.644  0.00  0.00    +0.119 A 
ATOM      7  N   UNL     1       1.140  -2.528   1.185  0.00  0.00    -0.235 NA
ATOM      8  C   UNL     1       0.779  -1.362   0.591  0.00  0.00    +0.080 A 
ATOM      9  C   UNL     1      -0.527  -1.200   0.122  0.00  0.00    +0.010 A 
ATOM     10  C   UNL     1      -0.914  -0.007  -0.515  0.00  0.00    +0.164 A 
ENDROOT
BRANCH   1  12
ATOM     11  C   UNL     1       0.430   3.330  -1.576  0.00  0.00    +0.079 C 
ATOM     12  O   UNL     1      -0.398   2.197  -1.335  0.00  0.00    -0.491 OA
ENDBRANCH   1  12
BRANCH   4  13
ATOM     13  N   UNL     1       4.032   0.488   0.888  0.00  0.00    -0.297 N 
ATOM     14  H   UNL     1       3.743   1.428   0.934  0.00  0.00    +0.000 HD
BRANCH  13  15
ATOM     15  C   UNL     1       5.440   0.209   0.778  0.00  0.00    +0.068 A 
ATOM     16  C   UNL     1       5.902  -0.925   0.083  0.00  0.00    -0.036 A 
ATOM     17  C   UNL     1       7.273  -1.171  -0.035  0.00  0.00    -0.041 A 
ATOM     18  C   UNL     1       8.196  -0.284   0.526  0.00  0.00    +0.044 A 
ATOM     19 CL   UNL     1       9.916  -0.594   0.373  0.00  0.00    -0.083 Cl
ATOM     20  C   UNL     1       7.747   0.853   1.204  0.00  0.00    -0.006 A 
ATOM     21  C   UNL     1       6.376   1.104   1.325  0.00  0.00    +0.146 A 
ATOM     22  F   UNL     1       5.962   2.213   1.989  0.00  0.00    -0.203 F 
ENDBRANCH  13  15
ENDBRANCH   4  13
BRANCH  10  23
ATOM     23  O   UNL     1      -2.217   0.192  -0.997  0.00  0.00    -0.488 OA
BRANCH  23  24
ATOM     24  C   UNL     1      -3.281  -0.749  -0.871  0.00  0.00    +0.093 C 
BRANCH  24  25
ATOM     25  C   UNL     1      -4.560  -0.181  -1.516  0.00  0.00    -0.004 C 
ATOM     26  C   UNL     1      -5.038   1.119  -0.836  0.00  0.00    -0.034 C 
ATOM     27  C   UNL     1      -5.712   0.845   0.518  0.00  0.00    -0.004 C 
ATOM     28  N   UNL     1      -6.817  -0.115   0.384  0.00  0.00    -0.316 N 
ATOM     29  C   UNL     1      -6.343  -1.397  -0.156  0.00  0.00    -0.004 C 
ATOM     30  C   UNL     1      -5.698  -1.221  -1.540  0.00  0.00    -0.034 C 
ATOM     31  H   UNL     1      -7.519   0.272  -0.246  0.00  0.00    +0.000 HD
ATOM     32  H   UNL     1      -7.215  -0.280   1.308  0.00  0.00    +0.000 HD
ENDBRANCH  24  25
ENDBRANCH  23  24
ENDBRANCH  10  23
TORSDOF 6
REMARK  Name = 
REMARK  7 active torsions:
REMARK  status: ('A' for Active; 'I' for Inactive)
REMARK    1  A    between atoms: C_1  and  O_2
REMARK    2  A    between atoms: O_2  and  C_3
REMARK    3  A    between atoms: C_6  and  N_7
REMARK    4  A    between atoms: N_7  and  C_8
REMARK    5  A    between atoms: C_21  and  O_22
REMARK    6  A    between atoms: O_22  and  C_23
REMARK    7  A    between atoms: C_23  and  C_24
REMARK                            x       y       z     vdW  Elec       q    Type
REMARK                         _______ _______ _______ _____ _____    ______ ____
ROOT
ATOM      1 CL   UNL     1       0.688   0.000   0.000  0.00  0.00    -0.145 Cl
ATOM      2  H   UNL     1       1.916   0.000   0.000  0.00  0.00    +0.000 HD
ENDROOT
TORSDOF 0
