REMARK  Name = 
REMARK  6 active torsions:
REMARK  status: ('A' for Active; 'I' for Inactive)
REMARK    1  A    between atoms: C_1  and  S_2
REMARK    2  A    between atoms: S_2  and  C_5
REMARK    3  A    between atoms: C_5  and  C_6
REMARK    4  A    between atoms: C_6  and  N_7
REMARK    5  A    between atoms: C_10  and  C_11
REMARK    6  A    between atoms: N_19  and  C_20
REMARK                            x       y       z     vdW  Elec       q    Type
REMARK                         _______ _______ _______ _____ _____    ______ ____
ROOT
ATOM      1  C   UNL     1      -0.329  -1.713  -0.705  0.00  0.00    +0.002 A 
ATOM      2  C   UNL     1      -0.473  -3.109  -0.618  0.00  0.00    -0.051 A 
ATOM      3  C   UNL     1      -1.738  -3.690  -0.510  0.00  0.00    -0.035 A 
ATOM      4  C   UNL     1      -2.881  -2.889  -0.491  0.00  0.00    +0.076 A 
ATOM      5  N   UNL     1      -4.105  -3.463  -0.368  0.00  0.00    -0.235 NA
ATOM      6  C   UNL     1      -5.231  -2.709  -0.337  0.00  0.00    +0.119 A 
ATOM      7  N   UNL     1      -5.149  -1.359  -0.438  0.00  0.00    -0.220 NA
ATOM      8  C   UNL     1      -3.953  -0.721  -0.561  0.00  0.00    +0.134 A 
ATOM      9  N   UNL     1      -3.932   0.708  -0.722  0.00  0.00    -0.299 N 
ATOM     10  C   UNL     1      -2.764  -1.485  -0.589  0.00  0.00    +0.041 A 
ATOM     11  C   UNL     1      -1.483  -0.905  -0.678  0.00  0.00    -0.040 A 
ATOM     12  H   UNL     1      -3.218   1.106  -1.271  0.00  0.00    +0.000 HD
ENDROOT
BRANCH   9  13
ATOM     13  C   UNL     1      -4.902   1.586  -0.123  0.00  0.00    +0.034 A 
ATOM     14  C   UNL     1      -5.534   1.258   1.091  0.00  0.00    -0.038 A 
ATOM     15  C   UNL     1      -6.456   2.137   1.665  0.00  0.00    -0.023 A 
ATOM     16  C   UNL     1      -6.749   3.354   1.043  0.00  0.00    +0.142 A 
ATOM     17  F   UNL     1      -7.646   4.199   1.611  0.00  0.00    -0.204 F 
ATOM     18  C   UNL     1      -6.112   3.697  -0.155  0.00  0.00    +0.078 A 
ATOM     19 CL   UNL     1      -6.464   5.228  -0.940  0.00  0.00    -0.081 Cl
ATOM     20  C   UNL     1      -5.187   2.818  -0.731  0.00  0.00    -0.019 A 
ENDBRANCH   9  13
BRANCH   1  24
ATOM     21  N   UNL     1       4.578  -1.669  -0.399  0.00  0.00    -0.322 N 
ATOM     22  C   UNL     1       3.276  -1.126  -0.652  0.00  0.00    +0.159 A 
ATOM     23  N   UNL     1       2.144  -1.841  -0.491  0.00  0.00    -0.225 NA
ATOM     24  C   UNL     1       1.030  -1.119  -0.803  0.00  0.00    +0.080 A 
ATOM     25  C   UNL     1       1.290   0.188  -1.230  0.00  0.00    +0.005 A 
ATOM     26  S   UNL     1       2.954   0.430  -1.204  0.00  0.00    -0.060 S 
ATOM     27  H   UNL     1       4.646  -2.611  -0.120  0.00  0.00    +0.000 HD
BRANCH  21  28
ATOM     28  C   UNL     1       5.808  -0.892  -0.534  0.00  0.00    +0.030 C 
BRANCH  28  29
ATOM     29  C   UNL     1       5.992   0.029   0.672  0.00  0.00    +0.081 C 
BRANCH  29  31
ATOM     30  C   UNL     1       7.664   2.038   1.943  0.00  0.00    +0.055 C 
ATOM     31  S   UNL     1       7.494   0.982   0.522  0.00  0.00    -0.032 S 
ATOM     32  O   UNL     1       7.438   1.827  -0.720  0.00  0.00    -0.175 OA
ATOM     33  O   UNL     1       8.678   0.059   0.445  0.00  0.00    -0.175 OA
ENDBRANCH  29  31
ENDBRANCH  28  29
ENDBRANCH  21  28
ENDBRANCH   1  24
TORSDOF 5
