REMARK  Name = 
REMARK  8 active torsions:
REMARK  status: ('A' for Active; 'I' for Inactive)
REMARK    1  A    between atoms: C_1  and  O_2
REMARK    2  A    between atoms: O_2  and  C_3
REMARK    3  A    between atoms: C_6  and  N_7
REMARK    4  A    between atoms: N_7  and  C_8
REMARK    5  A    between atoms: C_21  and  O_22
REMARK    6  A    between atoms: O_22  and  C_23
REMARK    7  A    between atoms: C_23  and  C_24
REMARK    8  A    between atoms: C_24  and  C_25
REMARK                            x       y       z     vdW  Elec       q    Type
REMARK                         _______ _______ _______ _____ _____    ______ ____
ROOT
ATOM      1  C   UNL     1       0.090  -1.771  -0.693  0.00  0.00    +0.162 A 
ATOM      2  C   UNL     1       1.360  -1.190  -0.511  0.00  0.00    -0.004 A 
ATOM      3  C   UNL     1       1.770  -0.751   0.762  0.00  0.00    +0.044 A 
ATOM      4  C   UNL     1       3.029  -0.158   1.002  0.00  0.00    +0.134 A 
ATOM      5  N   UNL     1       3.332   0.272   2.258  0.00  0.00    -0.220 NA
ATOM      6  C   UNL     1       2.455   0.146   3.285  0.00  0.00    +0.119 A 
ATOM      7  N   UNL     1       1.244  -0.428   3.080  0.00  0.00    -0.235 NA
ATOM      8  C   UNL     1       0.882  -0.878   1.851  0.00  0.00    +0.080 A 
ATOM      9  C   UNL     1      -0.376  -1.458   1.670  0.00  0.00    +0.010 A 
ATOM     10  C   UNL     1      -0.780  -1.906   0.399  0.00  0.00    +0.164 A 
ENDROOT
BRANCH   1  12
ATOM     11  C   UNL     1       0.404  -2.128  -3.152  0.00  0.00    +0.079 C 
ATOM     12  O   UNL     1      -0.352  -2.219  -1.949  0.00  0.00    -0.491 OA
ENDBRANCH   1  12
BRANCH   4  13
ATOM     13  N   UNL     1       4.022  -0.049  -0.034  0.00  0.00    -0.297 N 
ATOM     14  H   UNL     1       4.032  -0.728  -0.747  0.00  0.00    +0.000 HD
BRANCH  13  15
ATOM     15  C   UNL     1       5.000   1.005  -0.077  0.00  0.00    +0.068 A 
ATOM     16  C   UNL     1       4.702   2.291   0.412  0.00  0.00    -0.037 A 
ATOM     17  C   UNL     1       5.655   3.311   0.348  0.00  0.00    -0.046 A 
ATOM     18  C   UNL     1       6.911   3.062  -0.212  0.00  0.00    +0.021 A 
ATOM     19 BR   UNL     1       8.213   4.457  -0.297  0.00  0.00    -0.050 Br
ATOM     20  C   UNL     1       7.211   1.793  -0.716  0.00  0.00    -0.011 A 
ATOM     21  C   UNL     1       6.259   0.769  -0.656  0.00  0.00    +0.145 A 
ATOM     22  F   UNL     1       6.572  -0.456  -1.148  0.00  0.00    -0.204 F 
ENDBRANCH  13  15
ENDBRANCH   4  13
BRANCH  10  23
ATOM     23  O   UNL     1      -2.039  -2.487   0.171  0.00  0.00    -0.488 OA
BRANCH  23  24
ATOM     24  C   UNL     1      -3.127  -2.510   1.095  0.00  0.00    +0.090 C 
BRANCH  24  25
ATOM     25  C   UNL     1      -3.750  -1.115   1.279  0.00  0.00    -0.016 C 
BRANCH  25  26
ATOM     26  C   UNL     1      -4.551  -0.630   0.046  0.00  0.00    -0.036 C 
ATOM     27  C   UNL     1      -5.377   0.638   0.387  0.00  0.00    -0.037 C 
ATOM     28  C   UNL     1      -4.644   1.915  -0.044  0.00  0.00    -0.004 C 
ATOM     29  N   UNL     1      -4.418   1.962  -1.502  0.00  0.00    -0.316 N 
ATOM     30  C   UNL     1      -4.240   0.640  -2.138  0.00  0.00    -0.004 C 
ATOM     31  C   UNL     1      -3.633  -0.393  -1.181  0.00  0.00    -0.037 C 
ATOM     32  H   UNL     1      -3.579   2.515  -1.677  0.00  0.00    +0.000 HD
ATOM     33  H   UNL     1      -5.258   2.370  -1.913  0.00  0.00    +0.000 HD
ENDBRANCH  25  26
ENDBRANCH  24  25
ENDBRANCH  23  24
ENDBRANCH  10  23
TORSDOF 7
