REMARK  Name = 
REMARK  9 active torsions:
REMARK  status: ('A' for Active; 'I' for Inactive)
REMARK    1  A    between atoms: C_1  and  S_2
REMARK    2  A    between atoms: S_2  and  C_5
REMARK    3  A    between atoms: C_5  and  C_6
REMARK    4  A    between atoms: C_6  and  N_7
REMARK    5  A    between atoms: C_10  and  C_11
REMARK    6  A    between atoms: N_19  and  C_20
REMARK    7  A    between atoms: C_23  and  O_24
REMARK    8  A    between atoms: O_24  and  C_25
REMARK    9  A    between atoms: C_25  and  C_26
REMARK                            x       y       z     vdW  Elec       q    Type
REMARK                         _______ _______ _______ _____ _____    ______ ____
ROOT
ATOM      1  C   UNL     1       2.711  -0.482   0.893  0.00  0.00    +0.002 A 
ATOM      2  C   UNL     1       3.001  -0.035   2.194  0.00  0.00    -0.051 A 
ATOM      3  C   UNL     1       2.028   0.605   2.962  0.00  0.00    -0.035 A 
ATOM      4  C   UNL     1       0.752   0.825   2.439  0.00  0.00    +0.076 A 
ATOM      5  N   UNL     1      -0.192   1.435   3.202  0.00  0.00    -0.235 NA
ATOM      6  C   UNL     1      -1.439   1.659   2.721  0.00  0.00    +0.119 A 
ATOM      7  N   UNL     1      -1.760   1.285   1.458  0.00  0.00    -0.220 NA
ATOM      8  C   UNL     1      -0.861   0.668   0.643  0.00  0.00    +0.134 A 
ATOM      9  N   UNL     1      -1.242   0.347  -0.706  0.00  0.00    -0.299 N 
ATOM     10  C   UNL     1       0.443   0.412   1.125  0.00  0.00    +0.041 A 
ATOM     11  C   UNL     1       1.425  -0.252   0.363  0.00  0.00    -0.040 A 
ATOM     12  H   UNL     1      -0.549   0.365  -1.405  0.00  0.00    +0.000 HD
ENDROOT
BRANCH   1  16
ATOM     13  N   UNL     1       7.293  -1.853  -0.277  0.00  0.00    -0.322 N 
ATOM     14  C   UNL     1       5.869  -1.778  -0.400  0.00  0.00    +0.159 A 
ATOM     15  N   UNL     1       5.078  -1.081   0.443  0.00  0.00    -0.225 NA
ATOM     16  C   UNL     1       3.762  -1.171   0.101  0.00  0.00    +0.080 A 
ATOM     17  C   UNL     1       3.513  -1.962  -1.027  0.00  0.00    +0.005 A 
ATOM     18  S   UNL     1       4.984  -2.547  -1.598  0.00  0.00    -0.060 S 
ATOM     19  H   UNL     1       7.795  -2.412  -0.914  0.00  0.00    +0.000 HD
BRANCH  13  20
ATOM     20  C   UNL     1       8.031  -1.133   0.759  0.00  0.00    +0.030 C 
BRANCH  20  21
ATOM     21  C   UNL     1       8.070   0.372   0.472  0.00  0.00    +0.081 C 
BRANCH  21  23
ATOM     22  C   UNL     1       9.102   2.506  -1.210  0.00  0.00    +0.055 C 
ATOM     23  S   UNL     1       8.955   0.742  -1.037  0.00  0.00    -0.032 S 
ATOM     24  O   UNL     1       8.208   0.193  -2.220  0.00  0.00    -0.175 OA
ATOM     25  O   UNL     1      10.329   0.134  -0.987  0.00  0.00    -0.175 OA
ENDBRANCH  21  23
ENDBRANCH  20  21
ENDBRANCH  13  20
ENDBRANCH   1  16
BRANCH   9  26
ATOM     26  C   UNL     1      -2.586   0.000  -1.084  0.00  0.00    +0.034 A 
ATOM     27  C   UNL     1      -3.449  -0.655  -0.191  0.00  0.00    -0.037 A 
ATOM     28  C   UNL     1      -4.745  -0.999  -0.583  0.00  0.00    -0.017 A 
ATOM     29  C   UNL     1      -5.201  -0.699  -1.881  0.00  0.00    +0.139 A 
ATOM     30  C   UNL     1      -4.329  -0.066  -2.780  0.00  0.00    +0.084 A 
ATOM     31 CL   UNL     1      -4.857   0.316  -4.412  0.00  0.00    -0.080 Cl
ATOM     32  C   UNL     1      -3.031   0.275  -2.385  0.00  0.00    -0.019 A 
BRANCH  29  33
ATOM     33  O   UNL     1      -6.500  -1.016  -2.314  0.00  0.00    -0.486 OA
BRANCH  33  34
ATOM     34  C   UNL     1      -7.541  -1.542  -1.490  0.00  0.00    +0.115 C 
BRANCH  34  35
ATOM     35  C   UNL     1      -8.019  -0.507  -0.506  0.00  0.00    -0.010 A 
ATOM     36  C   UNL     1      -8.424   0.760  -0.959  0.00  0.00    -0.055 A 
ATOM     37  C   UNL     1      -8.874   1.722  -0.050  0.00  0.00    -0.061 A 
ATOM     38  C   UNL     1      -8.930   1.425   1.314  0.00  0.00    -0.062 A 
ATOM     39  C   UNL     1      -8.539   0.163   1.771  0.00  0.00    -0.061 A 
ATOM     40  C   UNL     1      -8.089  -0.802   0.866  0.00  0.00    -0.055 A 
ENDBRANCH  34  35
ENDBRANCH  33  34
ENDBRANCH  29  33
ENDBRANCH   9  26
TORSDOF 8
