REMARK  Name = 
REMARK  8 active torsions:
REMARK  status: ('A' for Active; 'I' for Inactive)
REMARK    1  A    between atoms: C_1  and  N_2
REMARK    2  A    between atoms: N_2  and  C_3
REMARK    3  A    between atoms: N_2  and  C_4
REMARK    4  A    between atoms: C_4  and  C_5
REMARK    5  A    between atoms: C_5  and  C_6
REMARK    6  A    between atoms: C_6  and  N_7
REMARK    7  A    between atoms: C_13  and  N_14
REMARK    8  A    between atoms: N_14  and  C_15
REMARK                            x       y       z     vdW  Elec       q    Type
REMARK                         _______ _______ _______ _____ _____    ______ ____
ROOT
ATOM      1  N   UNL     1      -1.913   1.483  -1.247  0.00  0.00    -0.347 N 
ATOM      2  C   UNL     1      -1.742   1.355  -2.585  0.00  0.00    +0.006 A 
ATOM      3  C   UNL     1      -0.493   0.814  -2.867  0.00  0.00    -0.036 A 
ATOM      4  C   UNL     1       0.098   0.599  -1.640  0.00  0.00    +0.001 A 
ATOM      5  C   UNL     1       1.343   0.063  -1.325  0.00  0.00    -0.040 A 
ATOM      6  C   UNL     1       1.687  -0.064   0.043  0.00  0.00    +0.041 A 
ATOM      7  C   UNL     1       2.923  -0.590   0.474  0.00  0.00    +0.134 A 
ATOM      8  N   UNL     1       3.189  -0.654   1.807  0.00  0.00    -0.220 NA
ATOM      9  C   UNL     1       2.301  -0.222   2.738  0.00  0.00    +0.119 A 
ATOM     10  N   UNL     1       1.102   0.282   2.355  0.00  0.00    -0.235 NA
ATOM     11  C   UNL     1       0.767   0.374   1.043  0.00  0.00    +0.078 A 
ATOM     12  C   UNL     1      -0.483   0.909   0.682  0.00  0.00    -0.011 A 
ATOM     13  C   UNL     1      -0.786   1.009  -0.677  0.00  0.00    +0.051 A 
ENDROOT
BRANCH   7  14
ATOM     14  N   UNL     1       3.884  -1.113  -0.461  0.00  0.00    -0.299 N 
ATOM     15  H   UNL     1       3.552  -1.502  -1.302  0.00  0.00    +0.000 HD
BRANCH  14  16
ATOM     16  C   UNL     1       5.303  -1.098  -0.229  0.00  0.00    +0.033 A 
ATOM     17  C   UNL     1       5.908  -0.089   0.544  0.00  0.00    -0.040 A 
ATOM     18  C   UNL     1       7.292  -0.083   0.738  0.00  0.00    -0.059 A 
ATOM     19  C   UNL     1       8.086  -1.073   0.155  0.00  0.00    -0.048 A 
ATOM     20  C   UNL     1       7.497  -2.069  -0.630  0.00  0.00    +0.020 A 
ATOM     21 BR   UNL     1       8.585  -3.416  -1.438  0.00  0.00    -0.050 Br
ATOM     22  C   UNL     1       6.112  -2.077  -0.827  0.00  0.00    -0.027 A 
ENDBRANCH  14  16
ENDBRANCH   7  14
BRANCH   1  23
ATOM     23  C   UNL     1      -3.125   1.959  -0.579  0.00  0.00    +0.024 C 
BRANCH  23  24
ATOM     24  C   UNL     1      -4.003   0.773  -0.169  0.00  0.00    -0.022 C 
BRANCH  24  25
ATOM     25  C   UNL     1      -5.281   1.258   0.544  0.00  0.00    -0.000 C 
BRANCH  25  27
ATOM     26  C   UNL     1      -6.726  -0.617  -0.134  0.00  0.00    -0.013 C 
ATOM     27  N   UNL     1      -6.183   0.170   0.985  0.00  0.00    -0.308 N 
ATOM     28  C   UNL     1      -5.577  -0.702   2.004  0.00  0.00    -0.013 C 
ATOM     29  H   UNL     1      -6.971   0.643   1.428  0.00  0.00    +0.000 HD
ENDBRANCH  25  27
ENDBRANCH  24  25
ENDBRANCH  23  24
ENDBRANCH   1  23
TORSDOF 6
