REMARK  Name = 
REMARK  12 active torsions:
REMARK  status: ('A' for Active; 'I' for Inactive)
REMARK    1  A    between atoms: O_1  and  C_2
REMARK    2  A    between atoms: C_2  and  C_3
REMARK    3  A    between atoms: C_3  and  N_4
REMARK    4  A    between atoms: N_4  and  C_5
REMARK    5  A    between atoms: N_4  and  C_8
REMARK    6  A    between atoms: C_5  and  C_6
REMARK    7  A    between atoms: C_6  and  O_7
REMARK    8  A    between atoms: C_8  and  C_9
REMARK    9  A    between atoms: C_9  and  N_10
REMARK   10  A    between atoms: N_10  and  C_11
REMARK   11  A    between atoms: C_17  and  N_18
REMARK   12  A    between atoms: N_18  and  C_19
REMARK                            x       y       z     vdW  Elec       q    Type
REMARK                         _______ _______ _______ _____ _____    ______ ____
ROOT
ATOM      1  C   UNL     1      -0.181  -0.686   0.858  0.00  0.00    +0.121 A 
ATOM      2  C   UNL     1       0.660  -0.960   1.944  0.00  0.00    +0.004 A 
ATOM      3  C   UNL     1       2.042  -0.830   1.794  0.00  0.00    +0.081 A 
ATOM      4  N   UNL     1       2.864  -1.077   2.845  0.00  0.00    -0.235 NA
ATOM      5  C   UNL     1       4.210  -0.952   2.724  0.00  0.00    +0.119 A 
ATOM      6  N   UNL     1       4.756  -0.581   1.539  0.00  0.00    -0.220 NA
ATOM      7  C   UNL     1       3.986  -0.316   0.447  0.00  0.00    +0.135 A 
ATOM      8  C   UNL     1       2.584  -0.435   0.552  0.00  0.00    +0.059 A 
ATOM      9  C   UNL     1       1.701  -0.156  -0.506  0.00  0.00    +0.042 A 
ATOM     10  N   UNL     1       0.360  -0.289  -0.328  0.00  0.00    -0.240 NA
ENDROOT
BRANCH   1  11
ATOM     11  N   UNL     1      -1.603  -0.815   0.998  0.00  0.00    -0.328 N 
ATOM     12  H   UNL     1      -1.977  -1.098   1.863  0.00  0.00    +0.000 HD
BRANCH  11  13
ATOM     13  C   UNL     1      -2.508  -0.536  -0.117  0.00  0.00    +0.023 C 
BRANCH  13  14
ATOM     14  C   UNL     1      -3.967  -0.750   0.292  0.00  0.00    +0.015 C 
BRANCH  14  15
ATOM     15  N   UNL     1      -4.853  -0.436  -0.853  0.00  0.00    -0.297 N 
ATOM     16  H   UNL     1      -4.214  -0.198  -1.612  0.00  0.00    +0.000 HD
BRANCH  15  17
ATOM     17  C   UNL     1      -5.630  -1.604  -1.335  0.00  0.00    +0.022 C 
BRANCH  17  18
ATOM     18  C   UNL     1      -6.864  -1.956  -0.476  0.00  0.00    +0.057 C 
BRANCH  18  19
ATOM     19  O   UNL     1      -6.508  -2.264   0.844  0.00  0.00    -0.394 OA
ATOM     20  H   UNL     1      -7.306  -2.479   1.352  0.00  0.00    +0.000 HD
ENDBRANCH  18  19
ENDBRANCH  17  18
ENDBRANCH  15  17
BRANCH  15  21
ATOM     21  C   UNL     1      -5.682   0.776  -0.663  0.00  0.00    +0.022 C 
BRANCH  21  22
ATOM     22  C   UNL     1      -4.856   2.055  -0.840  0.00  0.00    +0.057 C 
BRANCH  22  23
ATOM     23  O   UNL     1      -4.120   2.326   0.320  0.00  0.00    -0.394 OA
ATOM     24  H   UNL     1      -4.727   2.450   1.066  0.00  0.00    +0.000 HD
ENDBRANCH  22  23
ENDBRANCH  21  22
ENDBRANCH  15  21
ENDBRANCH  14  15
ENDBRANCH  13  14
ENDBRANCH  11  13
ENDBRANCH   1  11
BRANCH   7  25
ATOM     25  N   UNL     1       4.621   0.023  -0.798  0.00  0.00    -0.299 N 
ATOM     26  H   UNL     1       4.171  -0.231  -1.636  0.00  0.00    +0.000 HD
BRANCH  25  27
ATOM     27  C   UNL     1       5.880   0.714  -0.882  0.00  0.00    +0.033 A 
ATOM     28  C   UNL     1       6.709   0.508  -1.997  0.00  0.00    -0.040 A 
ATOM     29  C   UNL     1       7.928   1.183  -2.107  0.00  0.00    -0.059 A 
ATOM     30  C   UNL     1       8.325   2.079  -1.112  0.00  0.00    -0.048 A 
ATOM     31  C   UNL     1       7.499   2.308  -0.007  0.00  0.00    +0.020 A 
ATOM     32 BR   UNL     1       8.033   3.550   1.342  0.00  0.00    -0.050 Br
ATOM     33  C   UNL     1       6.278   1.634   0.106  0.00  0.00    -0.027 A 
ENDBRANCH  25  27
ENDBRANCH   7  25
TORSDOF 12
