REMARK  Name = 
REMARK  8 active torsions:
REMARK  status: ('A' for Active; 'I' for Inactive)
REMARK    1  A    between atoms: C_1  and  O_2
REMARK    2  A    between atoms: O_2  and  C_3
REMARK    3  A    between atoms: C_6  and  N_7
REMARK    4  A    between atoms: N_7  and  C_8
REMARK    5  A    between atoms: C_21  and  O_22
REMARK    6  A    between atoms: O_22  and  C_23
REMARK    7  A    between atoms: C_23  and  C_24
REMARK    8  A    between atoms: N_28  and  C_29
REMARK                            x       y       z     vdW  Elec       q    Type
REMARK                         _______ _______ _______ _____ _____    ______ ____
ROOT
ATOM      1  C   UNL     1       0.190   0.810   1.672  0.00  0.00    +0.162 A 
ATOM      2  C   UNL     1       1.521   0.696   1.224  0.00  0.00    -0.004 A 
ATOM      3  C   UNL     1       1.877   1.109  -0.072  0.00  0.00    +0.044 A 
ATOM      4  C   UNL     1       3.194   1.016  -0.574  0.00  0.00    +0.134 A 
ATOM      5  N   UNL     1       3.446   1.407  -1.854  0.00  0.00    -0.220 NA
ATOM      6  C   UNL     1       2.464   1.882  -2.661  0.00  0.00    +0.119 A 
ATOM      7  N   UNL     1       1.195   1.989  -2.197  0.00  0.00    -0.235 NA
ATOM      8  C   UNL     1       0.878   1.617  -0.930  0.00  0.00    +0.080 A 
ATOM      9  C   UNL     1      -0.441   1.733  -0.484  0.00  0.00    +0.010 A 
ATOM     10  C   UNL     1      -0.793   1.330   0.817  0.00  0.00    +0.164 A 
ENDROOT
BRANCH   1  12
ATOM     11  C   UNL     1       0.678  -0.142   3.937  0.00  0.00    +0.079 C 
ATOM     12  O   UNL     1      -0.199   0.410   2.961  0.00  0.00    -0.491 OA
ENDBRANCH   1  12
BRANCH   4  13
ATOM     13  N   UNL     1       4.286   0.575   0.251  0.00  0.00    -0.297 N 
ATOM     14  H   UNL     1       4.244   0.753   1.219  0.00  0.00    +0.000 HD
BRANCH  13  15
ATOM     15  C   UNL     1       5.437  -0.115  -0.268  0.00  0.00    +0.068 A 
ATOM     16  C   UNL     1       5.333  -0.956  -1.392  0.00  0.00    -0.036 A 
ATOM     17  C   UNL     1       6.456  -1.637  -1.872  0.00  0.00    -0.041 A 
ATOM     18  C   UNL     1       7.690  -1.496  -1.231  0.00  0.00    +0.044 A 
ATOM     19 CL   UNL     1       9.097  -2.352  -1.834  0.00  0.00    -0.083 Cl
ATOM     20  C   UNL     1       7.799  -0.676  -0.103  0.00  0.00    -0.006 A 
ATOM     21  C   UNL     1       6.679   0.006   0.382  0.00  0.00    +0.146 A 
ATOM     22  F   UNL     1       6.808   0.799   1.476  0.00  0.00    -0.203 F 
ENDBRANCH  13  15
ENDBRANCH   4  13
BRANCH  10  23
ATOM     23  O   UNL     1      -2.108   1.429   1.305  0.00  0.00    -0.488 OA
BRANCH  23  24
ATOM     24  C   UNL     1      -3.261   1.770   0.535  0.00  0.00    +0.094 C 
BRANCH  24  25
ATOM     25  C   UNL     1      -3.678   0.610  -0.390  0.00  0.00    +0.006 C 
ATOM     26  C   UNL     1      -4.875   1.026  -1.262  0.00  0.00    -0.045 C 
ATOM     27  C   UNL     1      -5.352  -0.148  -2.122  0.00  0.00    -0.040 C 
ATOM     28  C   UNL     1      -5.638  -1.372  -1.248  0.00  0.00    -0.001 C 
ATOM     29  N   UNL     1      -4.434  -1.748  -0.482  0.00  0.00    -0.305 N 
ATOM     30  C   UNL     1      -4.694  -2.969   0.295  0.00  0.00    -0.013 C 
ATOM     31  C   UNL     1      -4.032  -0.651   0.423  0.00  0.00    +0.005 C 
ATOM     32  H   UNL     1      -3.672  -1.923  -1.138  0.00  0.00    +0.000 HD
ENDBRANCH  24  25
ENDBRANCH  23  24
ENDBRANCH  10  23
TORSDOF 6
