REMARK  Name = 
REMARK  6 active torsions:
REMARK  status: ('A' for Active; 'I' for Inactive)
REMARK    1  A    between atoms: C_6  and  N_7
REMARK    2  A    between atoms: N_15  and  C_16
REMARK    3  A    between atoms: C_16  and  C_17
REMARK    4  A    between atoms: C_17  and  C_18
REMARK    5  A    between atoms: C_18  and  C_19
REMARK    6  A    between atoms: C_19  and  N_20
REMARK                            x       y       z     vdW  Elec       q    Type
REMARK                         _______ _______ _______ _____ _____    ______ ____
ROOT
ATOM      1  N   UNL     1      -4.796   0.128   1.084  0.00  0.00    -0.299 N 
ATOM      2  C   UNL     1      -3.985   0.874   0.160  0.00  0.00    +0.135 A 
ATOM      3  N   UNL     1      -4.490   1.197  -1.062  0.00  0.00    -0.220 NA
ATOM      4  C   UNL     1      -3.786   1.941  -1.952  0.00  0.00    +0.119 A 
ATOM      5  N   UNL     1      -2.548   2.393  -1.632  0.00  0.00    -0.235 NA
ATOM      6  C   UNL     1      -1.988   2.108  -0.428  0.00  0.00    +0.081 A 
ATOM      7  C   UNL     1      -0.709   2.581  -0.126  0.00  0.00    +0.004 A 
ATOM      8  C   UNL     1      -0.128   2.261   1.114  0.00  0.00    +0.121 A 
ATOM      9  N   UNL     1       1.185   2.719   1.484  0.00  0.00    -0.329 N 
ATOM     10  N   UNL     1      -0.828   1.501   1.999  0.00  0.00    -0.240 NA
ATOM     11  C   UNL     1      -2.075   1.030   1.735  0.00  0.00    +0.042 A 
ATOM     12  C   UNL     1      -2.696   1.331   0.511  0.00  0.00    +0.059 A 
ATOM     13  H   UNL     1      -4.671   0.286   2.048  0.00  0.00    +0.000 HD
ATOM     14  H   UNL     1       1.466   2.588   2.418  0.00  0.00    +0.000 HD
ENDROOT
BRANCH   1  20
ATOM     15 BR   UNL     1      -9.361  -2.356   2.246  0.00  0.00    -0.050 Br
ATOM     16  C   UNL     1      -7.848  -2.037   1.125  0.00  0.00    +0.020 A 
ATOM     17  C   UNL     1      -7.697  -2.754  -0.066  0.00  0.00    -0.048 A 
ATOM     18  C   UNL     1      -6.586  -2.527  -0.882  0.00  0.00    -0.059 A 
ATOM     19  C   UNL     1      -5.627  -1.579  -0.514  0.00  0.00    -0.040 A 
ATOM     20  C   UNL     1      -5.779  -0.838   0.673  0.00  0.00    +0.033 A 
ATOM     21  C   UNL     1      -6.890  -1.087   1.496  0.00  0.00    -0.027 A 
ENDBRANCH   1  20
BRANCH   9  22
ATOM     22  C   UNL     1       2.135   3.364   0.575  0.00  0.00    +0.010 C 
BRANCH  22  23
ATOM     23  C   UNL     1       2.702   2.366  -0.445  0.00  0.00    -0.036 C 
BRANCH  23  24
ATOM     24  C   UNL     1       3.505   1.248   0.234  0.00  0.00    -0.039 C 
BRANCH  24  25
ATOM     25  C   UNL     1       4.088   0.279  -0.802  0.00  0.00    -0.001 C 
BRANCH  25  26
ATOM     26  N   UNL     1       4.929  -0.742  -0.141  0.00  0.00    -0.298 N 
ATOM     27  C   UNL     1       4.121  -1.875   0.349  0.00  0.00    +0.022 C 
ATOM     28  C   UNL     1       5.025  -2.897   1.072  0.00  0.00    +0.060 C 
ATOM     29  O   UNL     1       6.404  -2.625   0.887  0.00  0.00    -0.377 OA
ATOM     30  C   UNL     1       6.681  -2.479  -0.491  0.00  0.00    +0.060 C 
ATOM     31  C   UNL     1       5.970  -1.238  -1.066  0.00  0.00    +0.022 C 
ATOM     32  H   UNL     1       5.375  -0.296   0.660  0.00  0.00    +0.000 HD
ENDBRANCH  25  26
ENDBRANCH  24  25
ENDBRANCH  23  24
ENDBRANCH  22  23
ENDBRANCH   9  22
TORSDOF 6
