REMARK  Name = 
REMARK  7 active torsions:
REMARK  status: ('A' for Active; 'I' for Inactive)
REMARK    1  A    between atoms: C_1  and  C_2
REMARK    2  A    between atoms: C_2  and  N_3
REMARK    3  A    between atoms: N_3  and  C_4
REMARK    4  A    between atoms: N_3  and  C_5
REMARK    5  A    between atoms: C_9  and  C_10
REMARK    6  A    between atoms: C_11  and  O_12
REMARK    7  A    between atoms: O_12  and  C_13
REMARK                            x       y       z     vdW  Elec       q    Type
REMARK                         _______ _______ _______ _____ _____    ______ ____
ROOT
ATOM      1  C   UNL     1       2.697  -0.382  -0.674  0.00  0.00    +0.045 C 
ATOM      2  C   UNL     1       1.823  -1.646  -0.525  0.00  0.00    +0.011 C 
ATOM      3  C   UNL     1       0.559  -1.594  -1.417  0.00  0.00    +0.140 C 
ATOM      4  O   UNL     1       0.481  -0.476  -2.275  0.00  0.00    -0.328 OA
ATOM      5  C   UNL     1       0.676   0.803  -1.677  0.00  0.00    +0.174 C 
ATOM      6  C   UNL     1       1.168   1.659  -2.876  0.00  0.00    -0.014 C 
ATOM      7  C   UNL     1       1.743   0.820  -0.523  0.00  0.00    +0.122 C 
ATOM      8  N   UNL     1      -0.625   1.306  -1.167  0.00  0.00    -0.307 N 
ATOM      9  C   UNL     1      -1.048   2.593  -0.962  0.00  0.00    +0.053 A 
ATOM     10  C   UNL     1      -0.328   3.791  -1.108  0.00  0.00    -0.037 A 
ATOM     11  C   UNL     1      -0.962   5.005  -0.800  0.00  0.00    -0.060 A 
ATOM     12  C   UNL     1      -2.283   5.022  -0.318  0.00  0.00    -0.061 A 
ATOM     13  C   UNL     1      -2.976   3.821  -0.112  0.00  0.00    -0.052 A 
ATOM     14  C   UNL     1      -2.330   2.626  -0.434  0.00  0.00    +0.008 A 
ATOM     15  C   UNL     1      -2.697   1.319  -0.222  0.00  0.00    +0.015 A 
ATOM     16  C   UNL     1      -3.806   0.747   0.421  0.00  0.00    -0.008 A 
ATOM     17  C   UNL     1      -3.830  -0.626   0.656  0.00  0.00    +0.052 A 
ATOM     18  C   UNL     1      -2.728  -1.424   0.275  0.00  0.00    +0.022 A 
ATOM     19  C   UNL     1      -2.394  -2.762   0.446  0.00  0.00    +0.008 A 
ATOM     20  C   UNL     1      -3.043  -3.832   1.070  0.00  0.00    -0.052 A 
ATOM     21  C   UNL     1      -2.409  -5.086   1.076  0.00  0.00    -0.061 A 
ATOM     22  C   UNL     1      -1.148  -5.253   0.475  0.00  0.00    -0.060 A 
ATOM     23  C   UNL     1      -0.502  -4.168  -0.134  0.00  0.00    -0.037 A 
ATOM     24  C   UNL     1      -1.146  -2.924  -0.132  0.00  0.00    +0.052 A 
ATOM     25  N   UNL     1      -0.679  -1.761  -0.650  0.00  0.00    -0.311 N 
ATOM     26  C   UNL     1      -1.642  -0.845  -0.394  0.00  0.00    +0.077 A 
ATOM     27  C   UNL     1      -1.630   0.540  -0.656  0.00  0.00    +0.077 A 
ATOM     28  C   UNL     1      -5.092  -0.895   1.324  0.00  0.00    +0.245 C 
ATOM     29  O   UNL     1      -5.549  -2.019   1.647  0.00  0.00    -0.270 OA
ATOM     30  N   UNL     1      -5.808   0.316   1.518  0.00  0.00    -0.307 N 
ATOM     31  C   UNL     1      -5.029   1.422   0.973  0.00  0.00    +0.039 C 
ATOM     32  H   UNL     1      -6.689   0.396   1.952  0.00  0.00    +0.000 HD
ENDROOT
BRANCH   1  33
ATOM     33  N   UNL     1       3.818  -0.277   0.316  0.00  0.00    -0.300 N 
ATOM     34  C   UNL     1       4.879   0.611  -0.217  0.00  0.00    -0.012 C 
ATOM     35  H   UNL     1       3.408   0.114   1.163  0.00  0.00    +0.000 HD
BRANCH  33  37
ATOM     36  C   UNL     1       5.482  -1.444   1.792  0.00  0.00    -0.052 C 
ATOM     37  C   UNL     1       4.412  -1.584   0.705  0.00  0.00    -0.004 C 
ENDBRANCH  33  37
ENDBRANCH   1  33
BRANCH   7  38
ATOM     38  O   UNL     1       1.092   0.734   0.743  0.00  0.00    -0.373 OA
ATOM     39  C   UNL     1       1.507   1.766   1.611  0.00  0.00    +0.037 C 
ENDBRANCH   7  38
TORSDOF 3
