REMARK  Name = 
REMARK  7 active torsions:
REMARK  status: ('A' for Active; 'I' for Inactive)
REMARK    1  A    between atoms: C_1  and  N_2
REMARK    2  A    between atoms: N_5  and  C_6
REMARK    3  A    between atoms: C_6  and  C_7
REMARK    4  A    between atoms: C_7  and  C_8
REMARK    5  A    between atoms: C_8  and  N_9
REMARK    6  A    between atoms: C_15  and  C_16
REMARK    7  A    between atoms: N_26  and  C_27
REMARK                            x       y       z     vdW  Elec       q    Type
REMARK                         _______ _______ _______ _____ _____    ______ ____
ROOT
ATOM      1  N   UNL     1       0.707   2.349   0.756  0.00  0.00    -0.313 N 
ATOM      2  C   UNL     1      -0.681   2.059   0.547  0.00  0.00    +0.217 A 
ATOM      3  N   UNL     1      -1.573   3.079   0.435  0.00  0.00    -0.222 NA
ATOM      4  C   UNL     1      -2.895   2.837   0.243  0.00  0.00    +0.042 A 
ATOM      5  C   UNL     1      -3.357   1.520   0.159  0.00  0.00    +0.037 A 
ATOM      6  C   UNL     1      -4.704   1.230  -0.046  0.00  0.00    -0.037 A 
ATOM      7  C   UNL     1      -5.120  -0.099  -0.144  0.00  0.00    +0.050 A 
ATOM      8  C   UNL     1      -4.168  -1.131  -0.030  0.00  0.00    +0.260 A 
ATOM      9  O   UNL     1      -4.545  -2.330  -0.154  0.00  0.00    -0.267 OA
ATOM     10  N   UNL     1      -2.845  -0.839   0.208  0.00  0.00    -0.295 N 
ATOM     11  C   UNL     1      -1.856  -1.926   0.309  0.00  0.00    +0.017 C 
ATOM     12  C   UNL     1      -2.429   0.469   0.281  0.00  0.00    +0.148 A 
ATOM     13  N   UNL     1      -1.115   0.772   0.471  0.00  0.00    -0.196 NA
ATOM     14  H   UNL     1       0.990   3.291   0.804  0.00  0.00    +0.000 HD
ENDROOT
BRANCH   7  15
ATOM     15  C   UNL     1      -6.551  -0.399  -0.369  0.00  0.00    +0.024 A 
ATOM     16  C   UNL     1      -7.350  -0.892   0.686  0.00  0.00    +0.050 A 
ATOM     17 CL   UNL     1      -6.690  -1.148   2.299  0.00  0.00    -0.083 Cl
ATOM     18  C   UNL     1      -8.704  -1.169   0.466  0.00  0.00    -0.043 A 
ATOM     19  C   UNL     1      -9.271  -0.959  -0.792  0.00  0.00    -0.059 A 
ATOM     20  C   UNL     1      -8.489  -0.470  -1.839  0.00  0.00    -0.043 A 
ATOM     21  C   UNL     1      -7.133  -0.188  -1.637  0.00  0.00    +0.050 A 
ATOM     22 CL   UNL     1      -6.186   0.407  -2.997  0.00  0.00    -0.083 Cl
ENDBRANCH   7  15
BRANCH   1  23
ATOM     23  C   UNL     1       1.719   1.304   0.899  0.00  0.00    +0.013 C 
BRANCH  23  24
ATOM     24  C   UNL     1       2.070   0.704  -0.470  0.00  0.00    -0.025 C 
BRANCH  24  25
ATOM     25  C   UNL     1       3.084  -0.455  -0.371  0.00  0.00    +0.000 C 
BRANCH  25  30
ATOM     26  C   UNL     1       8.472  -0.611   0.068  0.00  0.00    -0.013 C 
ATOM     27  N   UNL     1       7.098  -0.453   0.573  0.00  0.00    -0.303 N 
ATOM     28  C   UNL     1       6.227  -1.573   0.137  0.00  0.00    +0.011 C 
ATOM     29  C   UNL     1       5.328  -1.188  -1.052  0.00  0.00    +0.012 C 
ATOM     30  N   UNL     1       4.452  -0.026  -0.745  0.00  0.00    -0.300 N 
ATOM     31  C   UNL     1       5.035   0.893   0.263  0.00  0.00    +0.012 C 
ATOM     32  C   UNL     1       6.567   0.882   0.217  0.00  0.00    +0.011 C 
ATOM     33  H   UNL     1       7.113  -0.501   1.592  0.00  0.00    +0.000 HD
ATOM     34  H   UNL     1       4.381   0.511  -1.609  0.00  0.00    +0.000 HD
ENDBRANCH  25  30
ENDBRANCH  24  25
ENDBRANCH  23  24
ENDBRANCH   1  23
TORSDOF 5
