REMARK  Name = 
REMARK  6 active torsions:
REMARK  status: ('A' for Active; 'I' for Inactive)
REMARK    1  A    between atoms: C_2  and  C_3
REMARK    2  A    between atoms: C_3  and  C_13
REMARK    3  A    between atoms: C_4  and  C_5
REMARK    4  A    between atoms: C_8  and  O_9
REMARK    5  A    between atoms: C_10  and  O_11
REMARK    6  A    between atoms: C_13  and  N_14
REMARK                            x       y       z     vdW  Elec       q    Type
REMARK                         _______ _______ _______ _____ _____    ______ ____
ROOT
ATOM      1  C   UNL     1      -0.078   0.331   0.360  0.00  0.00    -0.020 A 
ATOM      2  C   UNL     1      -1.310   0.389  -0.314  0.00  0.00    -0.051 A 
ATOM      3  C   UNL     1      -2.509   0.285   0.397  0.00  0.00    -0.016 A 
ATOM      4  C   UNL     1      -2.493   0.142   1.790  0.00  0.00    +0.158 A 
ATOM      5  C   UNL     1      -1.270   0.112   2.473  0.00  0.00    +0.159 A 
ATOM      6  C   UNL     1      -0.068   0.217   1.758  0.00  0.00    -0.009 A 
ENDROOT
BRANCH   1   8
ATOM      7  C   UNL     1       1.545  -0.197  -1.482  0.00  0.00    +0.080 C 
ATOM      8  C   UNL     1       1.209   0.476  -0.359  0.00  0.00    -0.035 C 
BRANCH   7  10
ATOM      9  N   UNL     1      -0.061  -1.988  -2.481  0.00  0.00    -0.191 NA
ATOM     10  C   UNL     1       0.652  -1.191  -2.037  0.00  0.00    +0.102 C 
ENDBRANCH   7  10
BRANCH   7  11
ATOM     11  C   UNL     1       2.861   0.008  -2.152  0.00  0.00    +0.087 C 
ATOM     12  S   UNL     1       4.144   0.649  -1.349  0.00  0.00    -0.034 S 
BRANCH  11  13
ATOM     13  N   UNL     1       3.051  -0.400  -3.512  0.00  0.00    -0.351 N 
ATOM     14  H   UNL     1       2.301  -0.787  -4.019  0.00  0.00    +0.000 HD
ATOM     15  H   UNL     1       3.931  -0.294  -3.939  0.00  0.00    +0.000 HD
ENDBRANCH  11  13
ENDBRANCH   7  11
ENDBRANCH   1   8
BRANCH   4  16
ATOM     16  O   UNL     1      -3.686   0.036   2.503  0.00  0.00    -0.503 OA
ATOM     17  H   UNL     1      -4.506   0.056   2.050  0.00  0.00    +0.000 HD
ENDBRANCH   4  16
BRANCH   5  18
ATOM     18  O   UNL     1      -1.257  -0.019   3.861  0.00  0.00    -0.503 OA
ATOM     19  H   UNL     1      -2.064  -0.088   4.332  0.00  0.00    +0.000 HD
ENDBRANCH   5  18
TORSDOF 6
