REMARK  Name = 
REMARK  4 active torsions:
REMARK  status: ('A' for Active; 'I' for Inactive)
REMARK    1  A    between atoms: C_6  and  N_7
REMARK    2  A    between atoms: N_18  and  C_19
REMARK    3  A    between atoms: C_19  and  C_20
REMARK    4  A    between atoms: C_20  and  N_21
REMARK                            x       y       z     vdW  Elec       q    Type
REMARK                         _______ _______ _______ _____ _____    ______ ____
ROOT
ATOM      1  N   UNL     1       4.348   1.174  -0.325  0.00  0.00    -0.299 N 
ATOM      2  C   UNL     1       3.321   0.334  -0.879  0.00  0.00    +0.134 A 
ATOM      3  N   UNL     1       3.665  -0.653  -1.751  0.00  0.00    -0.220 NA
ATOM      4  C   UNL     1       2.736  -1.445  -2.343  0.00  0.00    +0.119 A 
ATOM      5  N   UNL     1       1.418  -1.262  -2.085  0.00  0.00    -0.235 NA
ATOM      6  C   UNL     1       0.999  -0.295  -1.230  0.00  0.00    +0.078 A 
ATOM      7  C   UNL     1      -0.378  -0.139  -0.979  0.00  0.00    -0.010 A 
ATOM      8  C   UNL     1      -0.764   0.856  -0.081  0.00  0.00    +0.071 A 
ATOM      9  C   UNL     1       0.148   1.650   0.550  0.00  0.00    +0.021 A 
ATOM     10  C   UNL     1      -0.584   2.477   1.375  0.00  0.00    +0.057 A 
ATOM     11  N   UNL     1      -1.896   2.171   1.230  0.00  0.00    -0.178 NA
ATOM     12  N   UNL     1      -2.000   1.192   0.337  0.00  0.00    -0.262 N 
ATOM     13  C   UNL     1       1.517   1.532   0.334  0.00  0.00    -0.039 A 
ATOM     14  C   UNL     1       1.957   0.547  -0.585  0.00  0.00    +0.041 A 
ATOM     15  H   UNL     1       4.123   2.108  -0.110  0.00  0.00    +0.000 HD
ENDROOT
BRANCH   1  21
ATOM     16 BR   UNL     1       7.618  -2.863   0.969  0.00  0.00    -0.050 Br
ATOM     17  C   UNL     1       7.265  -1.039   0.527  0.00  0.00    +0.020 A 
ATOM     18  C   UNL     1       8.315  -0.117   0.477  0.00  0.00    -0.048 A 
ATOM     19  C   UNL     1       8.056   1.221   0.169  0.00  0.00    -0.059 A 
ATOM     20  C   UNL     1       6.748   1.639  -0.096  0.00  0.00    -0.040 A 
ATOM     21  C   UNL     1       5.689   0.719  -0.069  0.00  0.00    +0.033 A 
ATOM     22  C   UNL     1       5.956  -0.624   0.262  0.00  0.00    -0.027 A 
ENDBRANCH   1  21
BRANCH  12  23
ATOM     23  C   UNL     1      -3.265   0.560  -0.031  0.00  0.00    +0.055 C 
BRANCH  23  24
ATOM     24  C   UNL     1      -3.484  -0.705   0.812  0.00  0.00    +0.019 C 
BRANCH  24  25
ATOM     25  N   UNL     1      -4.774  -1.381   0.552  0.00  0.00    -0.296 N 
ATOM     26  C   UNL     1      -4.893  -2.002  -0.784  0.00  0.00    +0.022 C 
ATOM     27  C   UNL     1      -5.551  -1.072  -1.832  0.00  0.00    +0.060 C 
ATOM     28  O   UNL     1      -6.062   0.124  -1.278  0.00  0.00    -0.377 OA
ATOM     29  C   UNL     1      -6.858  -0.179  -0.156  0.00  0.00    +0.060 C 
ATOM     30  C   UNL     1      -5.971  -0.639   1.009  0.00  0.00    +0.022 C 
ATOM     31  H   UNL     1      -4.749  -2.185   1.180  0.00  0.00    +0.000 HD
ENDBRANCH  24  25
ENDBRANCH  23  24
ENDBRANCH  12  23
TORSDOF 4
