REMARK  Name = 
REMARK  8 active torsions:
REMARK  status: ('A' for Active; 'I' for Inactive)
REMARK    1  A    between atoms: C_2  and  C_3
REMARK    2  A    between atoms: C_3  and  C_4
REMARK    3  A    between atoms: C_6  and  N_7
REMARK    4  A    between atoms: C_6  and  C_8
REMARK    5  A    between atoms: C_8  and  C_9
REMARK    6  A    between atoms: C_11  and  C_12
REMARK    7  A    between atoms: C_15  and  O_16
REMARK    8  A    between atoms: C_17  and  N_18
REMARK                            x       y       z     vdW  Elec       q    Type
REMARK                         _______ _______ _______ _____ _____    ______ ____
ROOT
ATOM      1  C   UNL     1       1.487   0.478   0.038  0.00  0.00    +0.075 C 
ATOM      2  C   UNL     1       0.332   0.937  -0.479  0.00  0.00    -0.035 C 
ENDROOT
BRANCH   2   3
ATOM      3  C   UNL     1      -0.999   0.326  -0.253  0.00  0.00    -0.021 A 
ATOM      4  C   UNL     1      -2.093   1.160   0.002  0.00  0.00    -0.051 A 
ATOM      5  C   UNL     1      -3.364   0.618   0.191  0.00  0.00    -0.017 A 
ATOM      6  C   UNL     1      -3.568  -0.766   0.110  0.00  0.00    +0.147 A 
ATOM      7  C   UNL     1      -2.482  -1.623  -0.182  0.00  0.00    +0.168 A 
ATOM      8  C   UNL     1      -1.204  -1.060  -0.369  0.00  0.00    -0.021 A 
BRANCH   7   9
ATOM      9  N   UNL     1      -2.660  -3.051  -0.298  0.00  0.00    +0.060 N 
ATOM     10  O   UNL     1      -1.670  -3.805  -0.399  0.00  0.00    -0.126 OA
ATOM     11  O   UNL     1      -3.915  -3.613  -0.329  0.00  0.00    -0.126 OA
ENDBRANCH   7   9
BRANCH   6  12
ATOM     12  O   UNL     1      -4.846  -1.281   0.323  0.00  0.00    -0.504 OA
ATOM     13  H   UNL     1      -5.558  -0.703   0.515  0.00  0.00    +0.000 HD
ENDBRANCH   6  12
ENDBRANCH   2   3
BRANCH   1  15
ATOM     14  C   UNL     1       3.842   0.547  -0.726  0.00  0.00    +0.150 C 
ATOM     15  C   UNL     1       2.755   1.197  -0.246  0.00  0.00    +0.070 C 
BRANCH  15  16
ATOM     16  N   UNL     1       2.792   2.613   0.001  0.00  0.00    -0.355 N 
ATOM     17  H   UNL     1       3.616   3.122  -0.176  0.00  0.00    +0.000 HD
ATOM     18  H   UNL     1       1.994   3.074   0.347  0.00  0.00    +0.000 HD
ENDBRANCH  15  16
BRANCH  14  20
ATOM     19  N   UNL     1       3.780  -1.986  -1.316  0.00  0.00    -0.190 NA
ATOM     20  C   UNL     1       3.807  -0.859  -1.053  0.00  0.00    +0.112 C 
ENDBRANCH  14  20
BRANCH  14  21
ATOM     21  C   UNL     1       5.084   1.235  -0.979  0.00  0.00    +0.112 C 
ATOM     22  N   UNL     1       6.081   1.786  -1.182  0.00  0.00    -0.190 NA
ENDBRANCH  14  21
ENDBRANCH   1  15
BRANCH   1  23
ATOM     23  C   UNL     1       1.513  -0.623   0.977  0.00  0.00    +0.101 C 
ATOM     24  N   UNL     1       1.536  -1.503   1.728  0.00  0.00    -0.191 NA
ENDBRANCH   1  23
TORSDOF 8
