REMARK  Name = 
REMARK  3 active torsions:
REMARK  status: ('A' for Active; 'I' for Inactive)
REMARK    1  A    between atoms: C_2  and  C_3
REMARK    2  A    between atoms: C_3  and  C_12
REMARK    3  A    between atoms: C_4  and  C_5
REMARK                            x       y       z     vdW  Elec       q    Type
REMARK                         _______ _______ _______ _____ _____    ______ ____
ROOT
ATOM      1  C   UNL     1       1.899  -0.555  -0.123  0.00  0.00    +0.136 C 
ATOM      2  C   UNL     1       1.015   0.447  -0.298  0.00  0.00    -0.030 C 
ENDROOT
BRANCH   2   3
ATOM      3  C   UNL     1      -0.446   0.334  -0.075  0.00  0.00    -0.023 A 
ATOM      4  C   UNL     1      -1.324   0.902  -1.012  0.00  0.00    -0.052 A 
ATOM      5  C   UNL     1      -2.707   0.842  -0.813  0.00  0.00    -0.026 A 
ATOM      6  C   UNL     1      -3.223   0.231   0.333  0.00  0.00    +0.123 A 
ATOM      7  F   UNL     1      -4.564   0.175   0.526  0.00  0.00    -0.205 F 
ATOM      8  C   UNL     1      -2.357  -0.312   1.286  0.00  0.00    -0.026 A 
ATOM      9  C   UNL     1      -0.973  -0.254   1.090  0.00  0.00    -0.052 A 
ENDBRANCH   2   3
BRANCH   1  10
ATOM     10  C   UNL     1       3.341  -0.332  -0.367  0.00  0.00    +0.347 C 
ATOM     11  O   UNL     1       4.159  -1.285  -0.246  0.00  0.00    -0.244 OA
ATOM     12  O   UNL     1       3.814   0.928  -0.728  0.00  0.00    -0.477 OA
ENDBRANCH   1  10
BRANCH   1  14
ATOM     13  N   UNL     1       1.122  -2.955   0.525  0.00  0.00    -0.191 NA
ATOM     14  C   UNL     1       1.466  -1.888   0.238  0.00  0.00    +0.106 C 
ENDBRANCH   1  14
TORSDOF 3
