REMARK  Name = 
REMARK  11 active torsions:
REMARK  status: ('A' for Active; 'I' for Inactive)
REMARK    1  A    between atoms: C_1  and  O_2
REMARK    2  A    between atoms: O_2  and  C_3
REMARK    3  A    between atoms: C_5  and  C_6
REMARK    4  A    between atoms: C_7  and  C_8
REMARK    5  A    between atoms: C_7  and  C_10
REMARK    6  A    between atoms: C_14  and  C_15
REMARK    7  A    between atoms: C_15  and  S_16
REMARK    8  A    between atoms: S_16  and  C_17
REMARK    9  A    between atoms: C_22  and  N_23
REMARK   10  A    between atoms: C_24  and  C_25
REMARK   11  A    between atoms: C_27  and  O_28
REMARK                            x       y       z     vdW  Elec       q    Type
REMARK                         _______ _______ _______ _____ _____    ______ ____
ROOT
ATOM      1  C   UNL     1      -3.286   1.055  -0.525  0.00  0.00    +0.162 A 
ATOM      2  C   UNL     1      -3.503  -0.057   0.294  0.00  0.00    -0.009 A 
ATOM      3  C   UNL     1      -2.441  -0.672   0.973  0.00  0.00    -0.020 A 
ATOM      4  C   UNL     1      -1.143  -0.179   0.798  0.00  0.00    -0.047 A 
ATOM      5  C   UNL     1      -0.910   0.971   0.029  0.00  0.00    +0.008 A 
ATOM      6  C   UNL     1      -1.986   1.607  -0.623  0.00  0.00    +0.163 A 
ENDROOT
BRANCH   1   8
ATOM      7  C   UNL     1      -4.372   1.828  -2.631  0.00  0.00    +0.079 C 
ATOM      8  O   UNL     1      -4.383   1.568  -1.230  0.00  0.00    -0.491 OA
ENDBRANCH   1   8
BRANCH   3   9
ATOM      9  C   UNL     1      -2.643  -1.893   1.789  0.00  0.00    -0.032 C 
ATOM     10  C   UNL     1      -3.630  -2.058   2.692  0.00  0.00    +0.114 C 
BRANCH  10  11
ATOM     11  C   UNL     1      -3.761  -3.321   3.457  0.00  0.00    +0.252 C 
ATOM     12  N   UNL     1      -3.263  -4.562   2.949  0.00  0.00    -0.325 N 
ATOM     13  O   UNL     1      -4.349  -3.312   4.573  0.00  0.00    -0.270 OA
ATOM     14  H   UNL     1      -2.801  -4.588   2.079  0.00  0.00    +0.000 HD
ATOM     15  H   UNL     1      -3.381  -5.390   3.468  0.00  0.00    +0.000 HD
ENDBRANCH  10  11
BRANCH  10  16
ATOM     16  C   UNL     1      -4.527  -0.973   3.025  0.00  0.00    +0.104 C 
ATOM     17  N   UNL     1      -5.245  -0.105   3.293  0.00  0.00    -0.191 NA
ENDBRANCH  10  16
ENDBRANCH   3   9
BRANCH   6  18
ATOM     18  O   UNL     1      -1.745   2.788  -1.327  0.00  0.00    -0.503 OA
ATOM     19  H   UNL     1      -0.876   3.134  -1.378  0.00  0.00    +0.000 HD
ENDBRANCH   6  18
BRANCH   5  20
ATOM     20  C   UNL     1       0.496   1.485  -0.123  0.00  0.00    +0.027 C 
BRANCH  20  21
ATOM     21  S   UNL     1       1.226   0.804  -1.649  0.00  0.00    -0.119 S 
BRANCH  21  22
ATOM     22  C   UNL     1       2.859   1.478  -1.314  0.00  0.00    +0.029 A 
ATOM     23  C   UNL     1       3.161   2.767  -1.773  0.00  0.00    -0.047 A 
ATOM     24  C   UNL     1       4.423   3.319  -1.546  0.00  0.00    -0.061 A 
ATOM     25  C   UNL     1       5.391   2.587  -0.858  0.00  0.00    -0.060 A 
ATOM     26  C   UNL     1       5.103   1.298  -0.401  0.00  0.00    -0.039 A 
ATOM     27  C   UNL     1       3.841   0.723  -0.636  0.00  0.00    +0.047 A 
BRANCH  27  28
ATOM     28  N   UNL     1       3.538  -0.596  -0.146  0.00  0.00    -0.285 N 
ATOM     29  C   UNL     1       4.469  -1.688  -0.177  0.00  0.00    +0.214 C 
ATOM     30  C   UNL     1       4.127  -2.976   0.500  0.00  0.00    +0.012 C 
ATOM     31  O   UNL     1       5.542  -1.600  -0.833  0.00  0.00    -0.276 OA
ATOM     32  H   UNL     1       2.643  -0.758   0.232  0.00  0.00    +0.000 HD
ENDBRANCH  27  28
ENDBRANCH  21  22
ENDBRANCH  20  21
ENDBRANCH   5  20
TORSDOF 9
