REMARK  Name = 
REMARK  13 active torsions:
REMARK  status: ('A' for Active; 'I' for Inactive)
REMARK    1  A    between atoms: C_1  and  S_2
REMARK    2  A    between atoms: S_2  and  C_5
REMARK    3  A    between atoms: C_5  and  C_6
REMARK    4  A    between atoms: C_6  and  N_7
REMARK    5  A    between atoms: N_7  and  C_8
REMARK    6  A    between atoms: C_8  and  C_9
REMARK    7  A    between atoms: C_9  and  C_10
REMARK    8  A    between atoms: C_10  and  O_11
REMARK    9  A    between atoms: O_11  and  C_12
REMARK   10  A    between atoms: N_20  and  C_21
REMARK   11  A    between atoms: C_24  and  O_25
REMARK   12  A    between atoms: O_25  and  C_26
REMARK   13  A    between atoms: C_26  and  C_27
REMARK                            x       y       z     vdW  Elec       q    Type
REMARK                         _______ _______ _______ _____ _____    ______ ____
ROOT
ATOM      1  C   UNL     1      -2.408   0.033   2.172  0.00  0.00    +0.121 A 
ATOM      2  C   UNL     1      -2.783  -0.651   3.344  0.00  0.00    -0.018 A 
ATOM      3  C   UNL     1      -1.908  -1.561   3.940  0.00  0.00    -0.032 A 
ATOM      4  C   UNL     1      -0.656  -1.811   3.370  0.00  0.00    +0.076 A 
ATOM      5  N   UNL     1       0.194  -2.687   3.966  0.00  0.00    -0.235 NA
ATOM      6  C   UNL     1       1.413  -2.948   3.433  0.00  0.00    +0.119 A 
ATOM      7  N   UNL     1       1.798  -2.341   2.282  0.00  0.00    -0.220 NA
ATOM      8  C   UNL     1       0.994  -1.452   1.637  0.00  0.00    +0.134 A 
ATOM      9  N   UNL     1       1.425  -0.894   0.384  0.00  0.00    -0.299 N 
ATOM     10  C   UNL     1      -0.275  -1.154   2.179  0.00  0.00    +0.044 A 
ATOM     11  C   UNL     1      -1.155  -0.219   1.599  0.00  0.00    -0.007 A 
ATOM     12  H   UNL     1       0.741  -0.670  -0.288  0.00  0.00    +0.000 HD
ENDROOT
BRANCH   9  13
ATOM     13  C   UNL     1       2.805  -0.645   0.063  0.00  0.00    +0.033 A 
ATOM     14  C   UNL     1       3.738  -0.306   1.058  0.00  0.00    -0.037 A 
ATOM     15  C   UNL     1       5.065  -0.032   0.717  0.00  0.00    -0.018 A 
ATOM     16  C   UNL     1       5.483  -0.084  -0.618  0.00  0.00    +0.121 A 
ATOM     17  C   UNL     1       4.548  -0.414  -1.617  0.00  0.00    -0.018 A 
ATOM     18  C   UNL     1       3.219  -0.682  -1.277  0.00  0.00    -0.037 A 
BRANCH  16  19
ATOM     19  O   UNL     1       6.826   0.200  -0.908  0.00  0.00    -0.487 OA
BRANCH  19  20
ATOM     20  C   UNL     1       7.399   0.136  -2.211  0.00  0.00    +0.115 C 
BRANCH  20  21
ATOM     21  C   UNL     1       8.857   0.486  -2.129  0.00  0.00    -0.010 A 
ATOM     22  C   UNL     1       9.761  -0.409  -1.535  0.00  0.00    -0.055 A 
ATOM     23  C   UNL     1      11.117  -0.082  -1.441  0.00  0.00    -0.061 A 
ATOM     24  C   UNL     1      11.579   1.141  -1.935  0.00  0.00    -0.062 A 
ATOM     25  C   UNL     1      10.684   2.042  -2.519  0.00  0.00    -0.061 A 
ATOM     26  C   UNL     1       9.327   1.720  -2.614  0.00  0.00    -0.055 A 
ENDBRANCH  20  21
ENDBRANCH  19  20
ENDBRANCH  16  19
ENDBRANCH   9  13
BRANCH   1  27
ATOM     27  O   UNL     1      -3.244   0.971   1.550  0.00  0.00    -0.492 OA
BRANCH  27  28
ATOM     28  C   UNL     1      -4.573   1.273   1.970  0.00  0.00    +0.091 C 
BRANCH  28  29
ATOM     29  C   UNL     1      -5.185   2.345   1.065  0.00  0.00    -0.006 C 
BRANCH  29  30
ATOM     30  C   UNL     1      -5.114   2.011  -0.441  0.00  0.00    -0.001 C 
BRANCH  30  31
ATOM     31  N   UNL     1      -5.794   0.760  -0.816  0.00  0.00    -0.314 N 
ATOM     32  H   UNL     1      -5.652   0.598  -1.813  0.00  0.00    +0.000 HD
ATOM     33  H   UNL     1      -5.394   0.012  -0.251  0.00  0.00    +0.000 HD
BRANCH  31  34
ATOM     34  C   UNL     1      -7.237   0.796  -0.548  0.00  0.00    +0.015 C 
BRANCH  34  35
ATOM     35  C   UNL     1      -7.933  -0.305  -1.346  0.00  0.00    +0.078 C 
BRANCH  35  37
ATOM     36  C   UNL     1     -10.463  -1.555  -2.041  0.00  0.00    +0.054 C 
ATOM     37  S   UNL     1      -9.690  -0.312  -1.030  0.00  0.00    -0.033 S 
ATOM     38  O   UNL     1     -10.275   1.031  -1.364  0.00  0.00    -0.175 OA
ATOM     39  O   UNL     1      -9.945  -0.622   0.418  0.00  0.00    -0.175 OA
ENDBRANCH  35  37
ENDBRANCH  34  35
ENDBRANCH  31  34
ENDBRANCH  30  31
ENDBRANCH  29  30
ENDBRANCH  28  29
ENDBRANCH  27  28
ENDBRANCH   1  27
TORSDOF 12
