REMARK  Name = 
REMARK  7 active torsions:
REMARK  status: ('A' for Active; 'I' for Inactive)
REMARK    1  A    between atoms: C_1  and  N_2
REMARK    2  A    between atoms: N_2  and  C_3
REMARK    3  A    between atoms: N_2  and  C_7
REMARK    4  A    between atoms: C_3  and  C_4
REMARK    5  A    between atoms: C_7  and  C_8
REMARK    6  A    between atoms: C_17  and  N_18
REMARK    7  A    between atoms: N_18  and  C_19
REMARK                            x       y       z     vdW  Elec       q    Type
REMARK                         _______ _______ _______ _____ _____    ______ ____
ROOT
ATOM      1  C   UNL     1      -2.284  -0.178  -2.021  0.00  0.00    -0.008 A 
ATOM      2  C   UNL     1      -2.931  -1.083  -2.856  0.00  0.00    +0.007 A 
ATOM      3  N   UNL     1      -2.072  -2.043  -3.265  0.00  0.00    -0.360 N 
ATOM      4  C   UNL     1      -0.891  -1.756  -2.692  0.00  0.00    +0.049 A 
ATOM      5  C   UNL     1       0.296  -2.474  -2.808  0.00  0.00    -0.012 A 
ATOM      6  C   UNL     1       1.423  -2.006  -2.108  0.00  0.00    +0.078 A 
ATOM      7  N   UNL     1       2.592  -2.690  -2.187  0.00  0.00    -0.235 NA
ATOM      8  C   UNL     1       3.696  -2.271  -1.519  0.00  0.00    +0.119 A 
ATOM      9  N   UNL     1       3.648  -1.149  -0.758  0.00  0.00    -0.220 NA
ATOM     10  C   UNL     1       2.510  -0.414  -0.629  0.00  0.00    +0.134 A 
ATOM     11  C   UNL     1       1.343  -0.825  -1.310  0.00  0.00    +0.041 A 
ATOM     12  C   UNL     1       0.113  -0.131  -1.208  0.00  0.00    -0.040 A 
ATOM     13  C   UNL     1      -0.979  -0.625  -1.921  0.00  0.00    +0.005 A 
ATOM     14  H   UNL     1      -2.272  -2.800  -3.863  0.00  0.00    +0.000 HD
ENDROOT
BRANCH  10  15
ATOM     15  N   UNL     1       2.537   0.792   0.154  0.00  0.00    -0.299 N 
ATOM     16  H   UNL     1       1.939   1.531  -0.105  0.00  0.00    +0.000 HD
BRANCH  15  17
ATOM     17  C   UNL     1       3.392   0.975   1.297  0.00  0.00    +0.033 A 
ATOM     18  C   UNL     1       3.779  -0.113   2.103  0.00  0.00    -0.040 A 
ATOM     19  C   UNL     1       4.593   0.092   3.221  0.00  0.00    -0.059 A 
ATOM     20  C   UNL     1       5.019   1.380   3.552  0.00  0.00    -0.048 A 
ATOM     21  C   UNL     1       4.624   2.469   2.769  0.00  0.00    +0.020 A 
ATOM     22 BR   UNL     1       5.198   4.232   3.230  0.00  0.00    -0.050 Br
ATOM     23  C   UNL     1       3.808   2.268   1.650  0.00  0.00    -0.027 A 
ENDBRANCH  15  17
ENDBRANCH  10  15
BRANCH   1  24
ATOM     24  C   UNL     1      -2.910   1.012  -1.352  0.00  0.00    +0.026 C 
BRANCH  24  26
ATOM     25  C   UNL     1      -4.786   1.646   0.024  0.00  0.00    -0.012 C 
ATOM     26  N   UNL     1      -3.815   0.576  -0.268  0.00  0.00    -0.291 N 
ATOM     27  H   UNL     1      -4.317  -0.258  -0.571  0.00  0.00    +0.000 HD
BRANCH  26  28
ATOM     28  C   UNL     1      -3.045   0.231   0.948  0.00  0.00    +0.097 C 
BRANCH  28  29
ATOM     29  C   UNL     1      -3.888  -0.562   1.900  0.00  0.00    +0.319 C 
ATOM     30  O   UNL     1      -4.133  -1.775   1.665  0.00  0.00    -0.250 OA
ATOM     31  O   UNL     1      -4.419   0.048   3.032  0.00  0.00    -0.480 OA
ENDBRANCH  28  29
ENDBRANCH  26  28
ENDBRANCH  24  26
ENDBRANCH   1  24
TORSDOF 6
