REMARK  Name = 
REMARK  9 active torsions:
REMARK  status: ('A' for Active; 'I' for Inactive)
REMARK    1  A    between atoms: C_1  and  O_2
REMARK    2  A    between atoms: O_2  and  C_3
REMARK    3  A    between atoms: C_6  and  N_7
REMARK    4  A    between atoms: N_7  and  C_8
REMARK    5  A    between atoms: C_21  and  O_22
REMARK    6  A    between atoms: O_22  and  C_23
REMARK    7  A    between atoms: C_23  and  C_24
REMARK    8  A    between atoms: C_24  and  N_25
REMARK    9  A    between atoms: N_28  and  C_29
REMARK                            x       y       z     vdW  Elec       q    Type
REMARK                         _______ _______ _______ _____ _____    ______ ____
ROOT
ATOM      1  C   UNL     1      -1.307  -1.917   0.997  0.00  0.00    +0.162 A 
ATOM      2  C   UNL     1      -2.462  -1.246   0.547  0.00  0.00    -0.004 A 
ATOM      3  C   UNL     1      -2.419  -0.443  -0.606  0.00  0.00    +0.044 A 
ATOM      4  C   UNL     1      -3.544   0.257  -1.097  0.00  0.00    +0.134 A 
ATOM      5  N   UNL     1      -3.408   1.042  -2.201  0.00  0.00    -0.220 NA
ATOM      6  C   UNL     1      -2.219   1.172  -2.841  0.00  0.00    +0.119 A 
ATOM      7  N   UNL     1      -1.127   0.504  -2.392  0.00  0.00    -0.235 NA
ATOM      8  C   UNL     1      -1.197  -0.296  -1.296  0.00  0.00    +0.080 A 
ATOM      9  C   UNL     1      -0.053  -0.964  -0.853  0.00  0.00    +0.010 A 
ATOM     10  C   UNL     1      -0.100  -1.776   0.296  0.00  0.00    +0.164 A 
ENDROOT
BRANCH   1  12
ATOM     11  C   UNL     1      -2.458  -2.962   2.961  0.00  0.00    +0.079 C 
ATOM     12  O   UNL     1      -1.317  -2.731   2.142  0.00  0.00    -0.491 OA
ENDBRANCH   1  12
BRANCH   4  13
ATOM     13  N   UNL     1      -4.841   0.115  -0.493  0.00  0.00    -0.297 N 
ATOM     14  H   UNL     1      -5.076  -0.751  -0.087  0.00  0.00    +0.000 HD
BRANCH  13  15
ATOM     15  C   UNL     1      -5.812   1.176  -0.451  0.00  0.00    +0.068 A 
ATOM     16  C   UNL     1      -5.412   2.525  -0.413  0.00  0.00    -0.036 A 
ATOM     17  C   UNL     1      -6.366   3.544  -0.345  0.00  0.00    -0.041 A 
ATOM     18  C   UNL     1      -7.727   3.229  -0.304  0.00  0.00    +0.044 A 
ATOM     19 CL   UNL     1      -8.923   4.509  -0.215  0.00  0.00    -0.083 Cl
ATOM     20  C   UNL     1      -8.134   1.892  -0.325  0.00  0.00    -0.006 A 
ATOM     21  C   UNL     1      -7.183   0.868  -0.392  0.00  0.00    +0.146 A 
ATOM     22  F   UNL     1      -7.600  -0.423  -0.412  0.00  0.00    -0.203 F 
ENDBRANCH  13  15
ENDBRANCH   4  13
BRANCH  10  23
ATOM     23  O   UNL     1       1.028  -2.463   0.778  0.00  0.00    -0.487 OA
BRANCH  23  24
ATOM     24  C   UNL     1       2.359  -2.331   0.278  0.00  0.00    +0.102 C 
BRANCH  24  25
ATOM     25  C   UNL     1       2.975  -1.002   0.731  0.00  0.00    +0.033 C 
BRANCH  25  26
ATOM     26  N   UNL     1       4.393  -0.916   0.316  0.00  0.00    -0.297 N 
ATOM     27  C   UNL     1       5.133  -0.006   1.210  0.00  0.00    +0.012 C 
ATOM     28  C   UNL     1       6.616   0.047   0.811  0.00  0.00    +0.011 C 
ATOM     29  N   UNL     1       6.807   0.423  -0.604  0.00  0.00    -0.303 N 
ATOM     30  C   UNL     1       6.623   1.867  -0.832  0.00  0.00    -0.013 C 
ATOM     31  C   UNL     1       5.980  -0.401  -1.508  0.00  0.00    +0.011 C 
ATOM     32  C   UNL     1       4.506  -0.441  -1.078  0.00  0.00    +0.012 C 
ATOM     33  H   UNL     1       4.796  -1.851   0.377  0.00  0.00    +0.000 HD
ATOM     34  H   UNL     1       7.781   0.224  -0.833  0.00  0.00    +0.000 HD
ENDBRANCH  25  26
ENDBRANCH  24  25
ENDBRANCH  23  24
ENDBRANCH  10  23
TORSDOF 7
