REMARK  Name = 
REMARK  5 active torsions:
REMARK  status: ('A' for Active; 'I' for Inactive)
REMARK    1  A    between atoms: C_2  and  C_3
REMARK    2  A    between atoms: C_3  and  C_13
REMARK    3  A    between atoms: C_4  and  C_5
REMARK    4  A    between atoms: C_7  and  O_8
REMARK    5  A    between atoms: C_11  and  O_12
REMARK                            x       y       z     vdW  Elec       q    Type
REMARK                         _______ _______ _______ _____ _____    ______ ____
ROOT
ATOM      1  C   UNL     1      -0.079  -0.596  -0.141  0.00  0.00    +0.021 A 
ATOM      2  C   UNL     1      -1.164   0.257   0.130  0.00  0.00    -0.010 A 
ATOM      3  C   UNL     1      -1.938   0.776  -0.912  0.00  0.00    +0.118 A 
ATOM      4  C   UNL     1      -1.642   0.432  -2.236  0.00  0.00    -0.017 A 
ATOM      5  C   UNL     1      -0.581  -0.431  -2.515  0.00  0.00    -0.016 A 
ATOM      6  C   UNL     1       0.203  -0.952  -1.478  0.00  0.00    +0.124 A 
ENDROOT
BRANCH   1   8
ATOM      7  C   UNL     1       1.277  -0.471   1.962  0.00  0.00    +0.136 C 
ATOM      8  C   UNL     1       0.691  -1.180   0.979  0.00  0.00    -0.027 C 
BRANCH   7   9
ATOM      9  C   UNL     1       1.386   1.007   1.961  0.00  0.00    +0.347 C 
ATOM     10  O   UNL     1       1.598   1.619   3.043  0.00  0.00    -0.244 OA
ATOM     11  O   UNL     1       1.307   1.731   0.774  0.00  0.00    -0.477 OA
ENDBRANCH   7   9
BRANCH   7  13
ATOM     12  N   UNL     1       2.367  -1.774   3.931  0.00  0.00    -0.191 NA
ATOM     13  C   UNL     1       1.882  -1.194   3.055  0.00  0.00    +0.106 C 
ENDBRANCH   7  13
ENDBRANCH   1   8
BRANCH   3  14
ATOM     14  O   UNL     1      -3.001   1.629  -0.621  0.00  0.00    -0.507 OA
ATOM     15  H   UNL     1      -3.191   1.854   0.269  0.00  0.00    +0.000 HD
ENDBRANCH   3  14
BRANCH   6  16
ATOM     16  O   UNL     1       1.257  -1.806  -1.808  0.00  0.00    -0.506 OA
ATOM     17  H   UNL     1       1.420  -2.025  -2.704  0.00  0.00    +0.000 HD
ENDBRANCH   6  16
TORSDOF 5
