REMARK  Name = 
REMARK  5 active torsions:
REMARK  status: ('A' for Active; 'I' for Inactive)
REMARK    1  A    between atoms: C_1  and  O_2
REMARK    2  A    between atoms: O_2  and  C_3
REMARK    3  A    between atoms: C_6  and  N_7
REMARK    4  A    between atoms: C_13  and  C_14
REMARK    5  A    between atoms: N_24  and  C_25
REMARK                            x       y       z     vdW  Elec       q    Type
REMARK                         _______ _______ _______ _____ _____    ______ ____
ROOT
ATOM      1  N   UNL     1       2.523   1.104   0.955  0.00  0.00    -0.284 N 
ATOM      2  C   UNL     1       1.235   0.632   0.535  0.00  0.00    +0.221 A 
ATOM      3  N   UNL     1       1.120  -0.278  -0.470  0.00  0.00    -0.222 NA
ATOM      4  C   UNL     1      -0.096  -0.707  -0.894  0.00  0.00    +0.042 A 
ATOM      5  C   UNL     1      -1.257  -0.203  -0.301  0.00  0.00    +0.037 A 
ATOM      6  C   UNL     1      -2.524  -0.608  -0.718  0.00  0.00    -0.037 A 
ATOM      7  C   UNL     1      -3.658  -0.059  -0.117  0.00  0.00    +0.050 A 
ATOM      8  C   UNL     1      -3.505   0.893   0.909  0.00  0.00    +0.260 A 
ATOM      9  O   UNL     1      -4.535   1.411   1.425  0.00  0.00    -0.267 OA
ATOM     10  N   UNL     1      -2.252   1.262   1.339  0.00  0.00    -0.295 N 
ATOM     11  C   UNL     1      -2.104   2.272   2.402  0.00  0.00    +0.017 C 
ATOM     12  C   UNL     1      -1.132   0.744   0.733  0.00  0.00    +0.148 A 
ATOM     13  N   UNL     1       0.115   1.139   1.115  0.00  0.00    -0.196 NA
ATOM     14  H   UNL     1       2.556   1.900   1.533  0.00  0.00    +0.000 HD
ENDROOT
BRANCH   7  15
ATOM     15  C   UNL     1      -5.001  -0.481  -0.576  0.00  0.00    +0.024 A 
ATOM     16  C   UNL     1      -5.506  -0.027  -1.813  0.00  0.00    +0.050 A 
ATOM     17 CL   UNL     1      -4.583   1.067  -2.839  0.00  0.00    -0.083 Cl
ATOM     18  C   UNL     1      -6.776  -0.431  -2.240  0.00  0.00    -0.043 A 
ATOM     19  C   UNL     1      -7.547  -1.284  -1.448  0.00  0.00    -0.059 A 
ATOM     20  C   UNL     1      -7.054  -1.738  -0.224  0.00  0.00    -0.043 A 
ATOM     21  C   UNL     1      -5.787  -1.344   0.218  0.00  0.00    +0.050 A 
ATOM     22 CL   UNL     1      -5.200  -1.968   1.756  0.00  0.00    -0.083 Cl
ENDBRANCH   7  15
BRANCH   1  26
ATOM     23  C   UNL     1       6.250  -0.677  -0.077  0.00  0.00    +0.120 A 
ATOM     24  C   UNL     1       5.125  -1.480   0.143  0.00  0.00    -0.018 A 
ATOM     25  C   UNL     1       3.896  -0.906   0.479  0.00  0.00    -0.037 A 
ATOM     26  C   UNL     1       3.770   0.490   0.586  0.00  0.00    +0.034 A 
ATOM     27  C   UNL     1       4.901   1.294   0.389  0.00  0.00    -0.037 A 
ATOM     28  C   UNL     1       6.131   0.720   0.052  0.00  0.00    -0.018 A 
BRANCH  23  30
ATOM     29  C   UNL     1       8.679  -0.610  -0.664  0.00  0.00    +0.079 C 
ATOM     30  O   UNL     1       7.460  -1.302  -0.415  0.00  0.00    -0.495 OA
ENDBRANCH  23  30
ENDBRANCH   1  26
TORSDOF 3
