REMARK  Name = 
REMARK  10 active torsions:
REMARK  status: ('A' for Active; 'I' for Inactive)
REMARK    1  A    between atoms: C_1  and  O_2
REMARK    2  A    between atoms: O_2  and  C_3
REMARK    3  A    between atoms: C_8  and  C_9
REMARK    4  A    between atoms: C_11  and  N_12
REMARK    5  A    between atoms: N_12  and  C_13
REMARK    6  A    between atoms: C_23  and  O_24
REMARK    7  A    between atoms: O_24  and  C_25
REMARK    8  A    between atoms: C_25  and  C_26
REMARK    9  A    between atoms: C_26  and  C_27
REMARK   10  A    between atoms: C_27  and  N_28
REMARK                            x       y       z     vdW  Elec       q    Type
REMARK                         _______ _______ _______ _____ _____    ______ ____
ROOT
ATOM      1  C   UNL     1      -0.892   2.075  -1.736  0.00  0.00    +0.164 A 
ATOM      2  C   UNL     1       0.111   3.058  -1.821  0.00  0.00    +0.010 A 
ATOM      3  C   UNL     1       1.459   2.706  -1.712  0.00  0.00    +0.077 A 
ATOM      4  N   UNL     1       2.414   3.670  -1.779  0.00  0.00    -0.253 NA
ATOM      5  C   UNL     1       3.736   3.382  -1.672  0.00  0.00    +0.047 A 
ATOM      6  C   UNL     1       4.157   2.061  -1.487  0.00  0.00    +0.091 A 
ATOM      7  C   UNL     1       3.197   1.034  -1.409  0.00  0.00    +0.060 A 
ATOM      8  C   UNL     1       1.828   1.356  -1.527  0.00  0.00    +0.026 A 
ATOM      9  C   UNL     1       0.823   0.376  -1.445  0.00  0.00    -0.005 A 
ATOM     10  C   UNL     1      -0.536   0.732  -1.540  0.00  0.00    +0.163 A 
ENDROOT
BRANCH   1  12
ATOM     11  C   UNL     1      -2.769   3.709  -2.006  0.00  0.00    +0.079 C 
ATOM     12  O   UNL     1      -2.256   2.392  -1.830  0.00  0.00    -0.491 OA
ENDBRANCH   1  12
BRANCH   6  13
ATOM     13  C   UNL     1       5.568   1.775  -1.399  0.00  0.00    +0.103 C 
ATOM     14  N   UNL     1       6.699   1.544  -1.327  0.00  0.00    -0.191 NA
ENDBRANCH   6  13
BRANCH   7  15
ATOM     15  N   UNL     1       3.612  -0.331  -1.232  0.00  0.00    -0.313 N 
ATOM     16  H   UNL     1       3.503  -0.954  -1.987  0.00  0.00    +0.000 HD
BRANCH  15  17
ATOM     17  C   UNL     1       4.178  -0.833  -0.008  0.00  0.00    +0.033 A 
ATOM     18  C   UNL     1       4.710  -2.131   0.021  0.00  0.00    -0.038 A 
ATOM     19  C   UNL     1       5.257  -2.646   1.200  0.00  0.00    -0.023 A 
ATOM     20  C   UNL     1       5.273  -1.872   2.364  0.00  0.00    +0.142 A 
ATOM     21  F   UNL     1       5.805  -2.382   3.502  0.00  0.00    -0.204 F 
ATOM     22  C   UNL     1       4.737  -0.579   2.349  0.00  0.00    +0.078 A 
ATOM     23 CL   UNL     1       4.743   0.400   3.807  0.00  0.00    -0.081 Cl
ATOM     24  C   UNL     1       4.189  -0.062   1.170  0.00  0.00    -0.019 A 
ENDBRANCH  15  17
ENDBRANCH   7  15
BRANCH  10  25
ATOM     25  O   UNL     1      -1.569  -0.214  -1.446  0.00  0.00    -0.488 OA
BRANCH  25  26
ATOM     26  C   UNL     1      -1.430  -1.565  -1.003  0.00  0.00    +0.091 C 
BRANCH  26  27
ATOM     27  C   UNL     1      -1.123  -1.649   0.500  0.00  0.00    -0.006 C 
BRANCH  27  28
ATOM     28  C   UNL     1      -1.956  -0.701   1.398  0.00  0.00    +0.002 C 
BRANCH  28  29
ATOM     29  N   UNL     1      -3.410  -0.975   1.482  0.00  0.00    -0.298 N 
ATOM     30  C   UNL     1      -3.779  -2.392   1.626  0.00  0.00    +0.022 C 
ATOM     31  C   UNL     1      -5.285  -2.492   1.894  0.00  0.00    +0.060 C 
ATOM     32  O   UNL     1      -6.020  -1.885   0.847  0.00  0.00    -0.377 OA
ATOM     33  C   UNL     1      -5.705  -0.506   0.771  0.00  0.00    +0.060 C 
ATOM     34  C   UNL     1      -4.219  -0.304   0.451  0.00  0.00    +0.022 C 
ATOM     35  H   UNL     1      -3.654  -0.539   2.371  0.00  0.00    +0.000 HD
ENDBRANCH  28  29
ENDBRANCH  27  28
ENDBRANCH  26  27
ENDBRANCH  25  26
ENDBRANCH  10  25
TORSDOF 9
