REMARK  Name = 
REMARK  6 active torsions:
REMARK  status: ('A' for Active; 'I' for Inactive)
REMARK    1  A    between atoms: C_1  and  C_2
REMARK    2  A    between atoms: C_6  and  N_7
REMARK    3  A    between atoms: N_15  and  C_16
REMARK    4  A    between atoms: C_16  and  C_17
REMARK    5  A    between atoms: C_17  and  C_18
REMARK    6  A    between atoms: C_18  and  N_19
REMARK                            x       y       z     vdW  Elec       q    Type
REMARK                         _______ _______ _______ _____ _____    ______ ____
ROOT
ATOM      1  N   UNL     1       4.075  -0.729   0.454  0.00  0.00    -0.299 N 
ATOM      2  C   UNL     1       3.098   0.328   0.437  0.00  0.00    +0.135 A 
ATOM      3  N   UNL     1       3.397   1.521   1.021  0.00  0.00    -0.220 NA
ATOM      4  C   UNL     1       2.495   2.534   1.076  0.00  0.00    +0.119 A 
ATOM      5  N   UNL     1       1.255   2.370   0.552  0.00  0.00    -0.235 NA
ATOM      6  C   UNL     1       0.894   1.203  -0.041  0.00  0.00    +0.081 A 
ATOM      7  C   UNL     1      -0.387   1.062  -0.579  0.00  0.00    +0.004 A 
ATOM      8  C   UNL     1      -0.746  -0.144  -1.206  0.00  0.00    +0.121 A 
ATOM      9  N   UNL     1      -2.050  -0.345  -1.775  0.00  0.00    -0.329 N 
ATOM     10  N   UNL     1       0.168  -1.149  -1.286  0.00  0.00    -0.240 NA
ATOM     11  C   UNL     1       1.421  -1.042  -0.771  0.00  0.00    +0.042 A 
ATOM     12  C   UNL     1       1.815   0.139  -0.120  0.00  0.00    +0.059 A 
ATOM     13  H   UNL     1       3.755  -1.660   0.474  0.00  0.00    +0.000 HD
ATOM     14  H   UNL     1      -2.230  -1.193  -2.243  0.00  0.00    +0.000 HD
ENDROOT
BRANCH   1  20
ATOM     15  C   UNL     1       8.015   2.025  -0.916  0.00  0.00    -0.040 C 
ATOM     16  C   UNL     1       7.433   0.839  -0.205  0.00  0.00    -0.049 A 
ATOM     17  C   UNL     1       8.276  -0.110   0.391  0.00  0.00    -0.059 A 
ATOM     18  C   UNL     1       7.736  -1.240   1.008  0.00  0.00    -0.060 A 
ATOM     19  C   UNL     1       6.353  -1.434   1.032  0.00  0.00    -0.040 A 
ATOM     20  C   UNL     1       5.494  -0.494   0.443  0.00  0.00    +0.033 A 
ATOM     21  C   UNL     1       6.044   0.632  -0.197  0.00  0.00    -0.038 A 
ENDBRANCH   1  20
BRANCH   9  22
ATOM     22  C   UNL     1      -3.127   0.646  -1.695  0.00  0.00    +0.012 C 
BRANCH  22  23
ATOM     23  C   UNL     1      -4.438   0.116  -2.297  0.00  0.00    -0.025 C 
BRANCH  23  24
ATOM     24  C   UNL     1      -5.050  -1.043  -1.490  0.00  0.00    +0.000 C 
BRANCH  24  25
ATOM     25  N   UNL     1      -5.256  -0.669  -0.073  0.00  0.00    -0.298 N 
ATOM     26  C   UNL     1      -5.258  -1.870   0.787  0.00  0.00    +0.022 C 
ATOM     27  C   UNL     1      -5.713  -1.527   2.219  0.00  0.00    +0.060 C 
ATOM     28  O   UNL     1      -5.705  -0.129   2.430  0.00  0.00    -0.377 OA
ATOM     29  C   UNL     1      -6.672   0.485   1.596  0.00  0.00    +0.060 C 
ATOM     30  C   UNL     1      -6.512   0.082   0.115  0.00  0.00    +0.022 C 
ATOM     31  H   UNL     1      -4.481  -0.064   0.196  0.00  0.00    +0.000 HD
ENDBRANCH  24  25
ENDBRANCH  23  24
ENDBRANCH  22  23
ENDBRANCH   9  22
TORSDOF 5
