REMARK  Name = 
REMARK  2 active torsions:
REMARK  status: ('A' for Active; 'I' for Inactive)
REMARK    1  A    between atoms: C_1  and  N_2
REMARK    2  A    between atoms: N_11  and  C_12
REMARK                            x       y       z     vdW  Elec       q    Type
REMARK                         _______ _______ _______ _____ _____    ______ ____
ROOT
ATOM      1  C   UNL     1       3.819   2.242  -0.464  0.00  0.00    +0.000 C 
ATOM      2  N   UNL     1       4.286   0.866  -0.577  0.00  0.00    -0.317 N 
ATOM      3  C   UNL     1       3.396  -0.249  -0.464  0.00  0.00    +0.216 A 
ATOM      4  N   UNL     1       3.882  -1.515  -0.577  0.00  0.00    -0.221 NA
ATOM      5  C   UNL     1       3.065  -2.596  -0.475  0.00  0.00    +0.059 A 
ATOM      6  C   UNL     1       1.701  -2.412  -0.250  0.00  0.00    +0.112 A 
ATOM      7  N   UNL     1       0.857  -3.470  -0.143  0.00  0.00    -0.232 NA
ATOM      8  C   UNL     1      -0.469  -3.274   0.078  0.00  0.00    +0.119 A 
ATOM      9  N   UNL     1      -0.965  -2.013   0.195  0.00  0.00    -0.218 NA
ATOM     10  C   UNL     1      -0.162  -0.918   0.085  0.00  0.00    +0.152 A 
ATOM     11  N   UNL     1      -0.711   0.403   0.244  0.00  0.00    -0.298 N 
ATOM     12  C   UNL     1       1.212  -1.102  -0.134  0.00  0.00    +0.134 A 
ATOM     13  N   UNL     1       2.066  -0.051  -0.245  0.00  0.00    -0.209 NA
ATOM     14  H   UNL     1       5.243   0.699  -0.737  0.00  0.00    +0.000 HD
ATOM     15  H   UNL     1      -0.090   1.143   0.433  0.00  0.00    +0.000 HD
ENDROOT
BRANCH  11  16
ATOM     16  C   UNL     1      -2.113   0.705   0.142  0.00  0.00    +0.032 A 
ATOM     17  C   UNL     1      -2.943   0.033  -0.775  0.00  0.00    -0.041 A 
ATOM     18  C   UNL     1      -4.298   0.364  -0.873  0.00  0.00    -0.060 A 
ATOM     19  C   UNL     1      -4.833   1.374  -0.069  0.00  0.00    -0.062 A 
ATOM     20  C   UNL     1      -4.011   2.062   0.827  0.00  0.00    -0.060 A 
ATOM     21  C   UNL     1      -2.655   1.735   0.927  0.00  0.00    -0.041 A 
ENDBRANCH  11  16
TORSDOF 1
