REMARK  Name = 
REMARK  4 active torsions:
REMARK  status: ('A' for Active; 'I' for Inactive)
REMARK    1  A    between atoms: C_2  and  C_3
REMARK    2  A    between atoms: C_3  and  C_4
REMARK    3  A    between atoms: C_6  and  C_7
REMARK    4  A    between atoms: C_10  and  C_11
REMARK                            x       y       z     vdW  Elec       q    Type
REMARK                         _______ _______ _______ _____ _____    ______ ____
ROOT
ATOM      1  C   UNL     1       0.630  -0.241   0.446  0.00  0.00    -0.023 A 
ATOM      2  C   UNL     1      -0.266   0.379   1.328  0.00  0.00    -0.054 A 
ATOM      3  C   UNL     1      -1.577   0.656   0.929  0.00  0.00    -0.047 A 
ATOM      4  C   UNL     1      -2.022   0.299  -0.355  0.00  0.00    +0.059 A 
ATOM      5  C   UNL     1      -1.133  -0.350  -1.228  0.00  0.00    -0.047 A 
ATOM      6  C   UNL     1       0.178  -0.626  -0.828  0.00  0.00    -0.054 A 
ENDROOT
BRANCH   4   7
ATOM      7  C   UNL     1      -3.409   0.590  -0.782  0.00  0.00    +0.337 C 
ATOM      8  O   UNL     1      -4.211   1.167   0.001  0.00  0.00    -0.245 OA
ATOM      9  O   UNL     1      -3.841   0.228  -2.056  0.00  0.00    -0.477 OA
ENDBRANCH   4   7
BRANCH   1  11
ATOM     10  C   UNL     1       3.119  -0.366   0.190  0.00  0.00    +0.129 C 
ATOM     11  C   UNL     1       2.002  -0.549   0.914  0.00  0.00    -0.027 C 
BRANCH  10  13
ATOM     12  N   UNL     1       3.101   0.716  -2.174  0.00  0.00    -0.190 NA
ATOM     13  C   UNL     1       3.108   0.234  -1.122  0.00  0.00    +0.110 C 
ENDBRANCH  10  13
BRANCH  10  14
ATOM     14  C   UNL     1       4.396  -0.697   0.764  0.00  0.00    +0.110 C 
ATOM     15  N   UNL     1       5.423  -0.963   1.225  0.00  0.00    -0.190 NA
ENDBRANCH  10  14
ENDBRANCH   1  11
TORSDOF 4
