REMARK  Name = 
REMARK  7 active torsions:
REMARK  status: ('A' for Active; 'I' for Inactive)
REMARK    1  A    between atoms: C_1  and  O_2
REMARK    2  A    between atoms: O_2  and  C_3
REMARK    3  A    between atoms: C_3  and  C_4
REMARK    4  A    between atoms: C_4  and  N_5
REMARK    5  A    between atoms: N_6  and  N_7
REMARK    6  A    between atoms: N_7  and  C_8
REMARK    7  A    between atoms: N_16  and  C_17
REMARK                            x       y       z     vdW  Elec       q    Type
REMARK                         _______ _______ _______ _____ _____    ______ ____
ROOT
ATOM      1  C   UNL     1      -1.093   0.785   1.230  0.00  0.00    +0.051 A 
ATOM      2  C   UNL     1      -1.887   1.574   0.380  0.00  0.00    -0.037 A 
ATOM      3  C   UNL     1      -1.448   1.889  -0.907  0.00  0.00    -0.034 A 
ATOM      4  C   UNL     1      -0.208   1.430  -1.359  0.00  0.00    +0.076 A 
ATOM      5  N   UNL     1       0.218   1.756  -2.606  0.00  0.00    -0.235 NA
ATOM      6  C   UNL     1       1.422   1.335  -3.066  0.00  0.00    +0.119 A 
ATOM      7  N   UNL     1       2.221   0.570  -2.281  0.00  0.00    -0.220 NA
ATOM      8  C   UNL     1       1.855   0.211  -1.020  0.00  0.00    +0.134 A 
ATOM      9  N   UNL     1       2.720  -0.647  -0.254  0.00  0.00    -0.299 N 
ATOM     10  C   UNL     1       0.608   0.642  -0.516  0.00  0.00    +0.042 A 
ATOM     11  C   UNL     1       0.163   0.344   0.786  0.00  0.00    -0.027 A 
ATOM     12  H   UNL     1       2.310  -1.273   0.384  0.00  0.00    +0.000 HD
ENDROOT
BRANCH   9  13
ATOM     13  C   UNL     1       4.153  -0.635  -0.375  0.00  0.00    +0.033 A 
ATOM     14  C   UNL     1       4.880  -1.800  -0.085  0.00  0.00    -0.040 A 
ATOM     15  C   UNL     1       6.276  -1.805  -0.177  0.00  0.00    -0.059 A 
ATOM     16  C   UNL     1       6.957  -0.643  -0.548  0.00  0.00    -0.048 A 
ATOM     17  C   UNL     1       6.245   0.529  -0.820  0.00  0.00    +0.020 A 
ATOM     18 BR   UNL     1       7.179   2.122  -1.305  0.00  0.00    -0.050 Br
ATOM     19  C   UNL     1       4.849   0.537  -0.728  0.00  0.00    -0.027 A 
ENDBRANCH   9  13
BRANCH   1  20
ATOM     20  N   UNL     1      -1.519   0.473   2.567  0.00  0.00    -0.220 N 
ATOM     21  H   UNL     1      -0.845   0.483   3.285  0.00  0.00    +0.000 HD
BRANCH  20  23
ATOM     22  N   UNL     1      -3.733  -0.042   2.014  0.00  0.00    -0.169 NA
ATOM     23  N   UNL     1      -2.847   0.154   2.904  0.00  0.00    -0.082 NA
BRANCH  22  24
ATOM     24  C   UNL     1      -5.099  -0.375   2.381  0.00  0.00    +0.085 C 
BRANCH  24  25
ATOM     25  C   UNL     1      -5.961  -0.481   1.127  0.00  0.00    +0.069 C 
BRANCH  25  27
ATOM     26  C   UNL     1      -4.981  -1.065  -0.899  0.00  0.00    +0.037 C 
ATOM     27  O   UNL     1      -5.507  -1.551   0.316  0.00  0.00    -0.381 OA
ENDBRANCH  25  27
ENDBRANCH  24  25
ENDBRANCH  22  24
ENDBRANCH  20  23
ENDBRANCH   1  20
TORSDOF 6
