REMARK  Name = 
REMARK  3 active torsions:
REMARK  status: ('A' for Active; 'I' for Inactive)
REMARK    1  A    between atoms: C_1  and  C_2
REMARK    2  A    between atoms: C_6  and  N_7
REMARK    3  A    between atoms: C_18  and  N_19
REMARK                            x       y       z     vdW  Elec       q    Type
REMARK                         _______ _______ _______ _____ _____    ______ ____
ROOT
ATOM      1  N   UNL     1      -1.477  -0.479   0.170  0.00  0.00    -0.298 N 
ATOM      2  C   UNL     1      -0.304   0.258  -0.214  0.00  0.00    +0.141 A 
ATOM      3  N   UNL     1      -0.406   1.433  -0.902  0.00  0.00    -0.219 NA
ATOM      4  C   UNL     1       0.701   2.130  -1.300  0.00  0.00    +0.119 A 
ATOM      5  N   UNL     1       1.951   1.659  -1.026  0.00  0.00    -0.234 NA
ATOM      6  C   UNL     1       2.087   0.488  -0.353  0.00  0.00    +0.091 A 
ATOM      7  C   UNL     1       0.975  -0.227   0.056  0.00  0.00    +0.079 A 
ATOM      8  S   UNL     1       1.455  -1.631   0.867  0.00  0.00    -0.083 S 
ATOM      9  C   UNL     1       3.106  -1.313   0.684  0.00  0.00    +0.022 A 
ATOM     10  C   UNL     1       4.178  -2.079   1.127  0.00  0.00    -0.045 A 
ATOM     11  C   UNL     1       5.478  -1.623   0.865  0.00  0.00    -0.030 A 
ATOM     12  C   UNL     1       5.696  -0.408   0.166  0.00  0.00    +0.127 A 
ATOM     13  C   UNL     1       4.585   0.349  -0.271  0.00  0.00    -0.021 A 
ATOM     14  C   UNL     1       3.295  -0.119  -0.003  0.00  0.00    +0.017 A 
ATOM     15  H   UNL     1      -1.366  -1.421   0.435  0.00  0.00    +0.000 HD
ENDROOT
BRANCH   1  21
ATOM     16  C   UNL     1      -6.367  -1.098  -0.462  0.00  0.00    -0.040 C 
ATOM     17  C   UNL     1      -5.206  -0.231  -0.076  0.00  0.00    -0.049 A 
ATOM     18  C   UNL     1      -5.412   1.114   0.267  0.00  0.00    -0.059 A 
ATOM     19  C   UNL     1      -4.327   1.927   0.600  0.00  0.00    -0.060 A 
ATOM     20  C   UNL     1      -3.028   1.413   0.573  0.00  0.00    -0.040 A 
ATOM     21  C   UNL     1      -2.802   0.079   0.191  0.00  0.00    +0.033 A 
ATOM     22  C   UNL     1      -3.898  -0.740  -0.119  0.00  0.00    -0.038 A 
ENDBRANCH   1  21
BRANCH  12  23
ATOM     23  N   UNL     1       7.033   0.053  -0.098  0.00  0.00    +0.056 N 
ATOM     24  O   UNL     1       8.021  -0.607   0.283  0.00  0.00    -0.126 OA
ATOM     25  O   UNL     1       7.245   1.232  -0.776  0.00  0.00    -0.126 OA
ENDBRANCH  12  23
TORSDOF 2
REMARK  Name = 
REMARK  3 active torsions:
REMARK  status: ('A' for Active; 'I' for Inactive)
REMARK    1  A    between atoms: C_1  and  C_2
REMARK    2  A    between atoms: C_6  and  N_7
REMARK    3  A    between atoms: C_18  and  N_19
REMARK                            x       y       z     vdW  Elec       q    Type
REMARK                         _______ _______ _______ _____ _____    ______ ____
ROOT
ATOM      1 CL   UNL     1       0.688   0.000   0.000  0.00  0.00    -0.145 Cl
ATOM      2  H   UNL     1       1.916   0.000   0.000  0.00  0.00    +0.000 HD
ENDROOT
TORSDOF 0
