REMARK  Name = 
REMARK  9 active torsions:
REMARK  status: ('A' for Active; 'I' for Inactive)
REMARK    1  A    between atoms: C_1  and  O_2
REMARK    2  A    between atoms: O_2  and  C_3
REMARK    3  A    between atoms: C_3  and  C_5
REMARK    4  A    between atoms: C_8  and  N_9
REMARK    5  A    between atoms: N_9  and  C_10
REMARK    6  A    between atoms: C_10  and  C_11
REMARK    7  A    between atoms: C_13  and  O_14
REMARK    8  A    between atoms: C_17  and  O_18
REMARK    9  A    between atoms: C_20  and  O_21
REMARK                            x       y       z     vdW  Elec       q    Type
REMARK                         _______ _______ _______ _____ _____    ______ ____
ROOT
ATOM      1  N   UNL     1      -0.890  -0.042  -0.213  0.00  0.00    -0.340 N 
ATOM      2  H   UNL     1      -1.331  -0.215  -1.077  0.00  0.00    +0.000 HD
ENDROOT
BRANCH   1   6
ATOM      3  C   UNL     1       3.380  -0.112  -0.136  0.00  0.00    +0.100 A 
ATOM      4  C   UNL     1       2.666  -0.324  -1.329  0.00  0.00    -0.042 A 
ATOM      5  C   UNL     1       1.270  -0.299  -1.341  0.00  0.00    -0.040 A 
ATOM      6  C   UNL     1       0.549  -0.062  -0.164  0.00  0.00    +0.031 A 
ATOM      7  C   UNL     1       1.254   0.149   1.034  0.00  0.00    +0.002 A 
ATOM      8  C   UNL     1       2.657   0.126   1.056  0.00  0.00    +0.133 A 
BRANCH   3   9
ATOM      9  C   UNL     1       4.865  -0.145  -0.164  0.00  0.00    +0.342 C 
ATOM     10  O   UNL     1       5.533   0.089   0.881  0.00  0.00    -0.245 OA
BRANCH   9  12
ATOM     11  C   UNL     1       6.947  -0.484  -1.461  0.00  0.00    +0.082 C 
ATOM     12  O   UNL     1       5.529  -0.437  -1.361  0.00  0.00    -0.464 OA
ENDBRANCH   9  12
ENDBRANCH   3   9
BRANCH   8  13
ATOM     13  O   UNL     1       3.324   0.338   2.263  0.00  0.00    -0.506 OA
ATOM     14  H   UNL     1       2.835   0.495   3.047  0.00  0.00    +0.000 HD
ENDBRANCH   8  13
ENDBRANCH   1   6
BRANCH   1  15
ATOM     15  C   UNL     1      -1.732   0.224   0.955  0.00  0.00    +0.038 C 
BRANCH  15  16
ATOM     16  C   UNL     1      -3.193   0.241   0.572  0.00  0.00    +0.014 A 
ATOM     17  C   UNL     1      -4.010  -0.847   0.928  0.00  0.00    -0.012 A 
ATOM     18  C   UNL     1      -5.367  -0.864   0.581  0.00  0.00    +0.117 A 
ATOM     19  C   UNL     1      -5.915   0.205  -0.131  0.00  0.00    -0.017 A 
ATOM     20  C   UNL     1      -5.112   1.286  -0.502  0.00  0.00    -0.016 A 
ATOM     21  C   UNL     1      -3.754   1.313  -0.165  0.00  0.00    +0.122 A 
BRANCH  18  22
ATOM     22  O   UNL     1      -6.178  -1.938   0.938  0.00  0.00    -0.507 OA
ATOM     23  H   UNL     1      -5.818  -2.660   1.415  0.00  0.00    +0.000 HD
ENDBRANCH  18  22
BRANCH  21  24
ATOM     24  O   UNL     1      -2.994   2.408  -0.581  0.00  0.00    -0.506 OA
ATOM     25  H   UNL     1      -3.397   3.100  -1.068  0.00  0.00    +0.000 HD
ENDBRANCH  21  24
ENDBRANCH  15  16
ENDBRANCH   1  15
TORSDOF 8
