REMARK  Name = 
REMARK  11 active torsions:
REMARK  status: ('A' for Active; 'I' for Inactive)
REMARK    1  A    between atoms: C_1  and  N_2
REMARK    2  A    between atoms: N_2  and  C_3
REMARK    3  A    between atoms: N_2  and  C_4
REMARK    4  A    between atoms: C_4  and  C_5
REMARK    5  A    between atoms: C_5  and  C_6
REMARK    6  A    between atoms: C_6  and  C_7
REMARK    7  A    between atoms: C_7  and  C_8
REMARK    8  A    between atoms: C_8  and  N_9
REMARK    9  A    between atoms: N_9  and  C_10
REMARK   10  A    between atoms: C_16  and  N_17
REMARK   11  A    between atoms: N_17  and  C_18
REMARK                            x       y       z     vdW  Elec       q    Type
REMARK                         _______ _______ _______ _____ _____    ______ ____
ROOT
ATOM      1  C   UNL     1      -0.083  -1.035   0.459  0.00  0.00    +0.121 A 
ATOM      2  C   UNL     1       0.426  -1.627  -0.703  0.00  0.00    +0.004 A 
ATOM      3  C   UNL     1       1.745  -1.372  -1.084  0.00  0.00    +0.081 A 
ATOM      4  N   UNL     1       2.252  -1.953  -2.202  0.00  0.00    -0.235 NA
ATOM      5  C   UNL     1       3.533  -1.724  -2.588  0.00  0.00    +0.119 A 
ATOM      6  N   UNL     1       4.327  -0.898  -1.860  0.00  0.00    -0.220 NA
ATOM      7  C   UNL     1       3.879  -0.288  -0.728  0.00  0.00    +0.135 A 
ATOM      8  C   UNL     1       2.552  -0.517  -0.305  0.00  0.00    +0.059 A 
ATOM      9  C   UNL     1       2.005   0.041   0.864  0.00  0.00    +0.042 A 
ATOM     10  N   UNL     1       0.718  -0.229   1.208  0.00  0.00    -0.240 NA
ENDROOT
BRANCH   1  11
ATOM     11  N   UNL     1      -1.438  -1.290   0.860  0.00  0.00    -0.329 N 
ATOM     12  H   UNL     1      -1.974  -1.925   0.332  0.00  0.00    +0.000 HD
BRANCH  11  13
ATOM     13  C   UNL     1      -2.055  -0.648   2.020  0.00  0.00    +0.010 C 
BRANCH  13  14
ATOM     14  C   UNL     1      -2.360   0.834   1.750  0.00  0.00    -0.037 C 
BRANCH  14  15
ATOM     15  C   UNL     1      -3.213   1.078   0.492  0.00  0.00    -0.050 C 
BRANCH  15  16
ATOM     16  C   UNL     1      -4.634   0.507   0.618  0.00  0.00    -0.040 C 
BRANCH  16  17
ATOM     17  C   UNL     1      -5.493   0.893  -0.594  0.00  0.00    -0.002 C 
BRANCH  17  19
ATOM     18  C   UNL     1      -7.811   1.250  -1.199  0.00  0.00    -0.013 C 
ATOM     19  N   UNL     1      -6.883   0.413  -0.422  0.00  0.00    -0.308 N 
ATOM     20  C   UNL     1      -7.016  -0.991  -0.851  0.00  0.00    -0.013 C 
ATOM     21  H   UNL     1      -7.113   0.477   0.570  0.00  0.00    +0.000 HD
ENDBRANCH  17  19
ENDBRANCH  16  17
ENDBRANCH  15  16
ENDBRANCH  14  15
ENDBRANCH  13  14
ENDBRANCH  11  13
ENDBRANCH   1  11
BRANCH   7  22
ATOM     22  N   UNL     1       4.747   0.619  -0.026  0.00  0.00    -0.299 N 
ATOM     23  H   UNL     1       4.340   1.371   0.463  0.00  0.00    +0.000 HD
BRANCH  22  24
ATOM     24  C   UNL     1       6.179   0.485   0.000  0.00  0.00    +0.033 A 
ATOM     25  C   UNL     1       6.797  -0.777  -0.079  0.00  0.00    -0.040 A 
ATOM     26  C   UNL     1       8.190  -0.884  -0.030  0.00  0.00    -0.059 A 
ATOM     27  C   UNL     1       8.977   0.261   0.109  0.00  0.00    -0.048 A 
ATOM     28  C   UNL     1       8.372   1.518   0.208  0.00  0.00    +0.020 A 
ATOM     29 BR   UNL     1       9.448   3.083   0.411  0.00  0.00    -0.050 Br
ATOM     30  C   UNL     1       6.978   1.628   0.161  0.00  0.00    -0.027 A 
ENDBRANCH  22  24
ENDBRANCH   7  22
TORSDOF 9
