REMARK  Name = 
REMARK  7 active torsions:
REMARK  status: ('A' for Active; 'I' for Inactive)
REMARK    1  A    between atoms: C_1  and  C_2
REMARK    2  A    between atoms: C_4  and  C_5
REMARK    3  A    between atoms: C_9  and  C_10
REMARK    4  A    between atoms: C_12  and  C_13
REMARK    5  A    between atoms: C_16  and  C_17
REMARK    6  A    between atoms: C_26  and  N_27
REMARK    7  A    between atoms: N_27  and  C_28
REMARK                            x       y       z     vdW  Elec       q    Type
REMARK                         _______ _______ _______ _____ _____    ______ ____
ROOT
ATOM      1  C   UNL     1      -1.801  -0.056  -0.218  0.00  0.00    -0.025 C 
ATOM      2  C   UNL     1      -2.188  -0.742  -1.309  0.00  0.00    +0.053 C 
ATOM      3  C   UNL     1      -1.379  -1.645  -2.152  0.00  0.00    +0.250 C 
ATOM      4  O   UNL     1      -0.143  -1.853  -2.035  0.00  0.00    -0.270 OA
ATOM      5  N   UNL     1      -2.177  -2.258  -3.160  0.00  0.00    -0.266 N 
ATOM      6  C   UNL     1      -3.477  -1.722  -2.953  0.00  0.00    +0.138 A 
ATOM      7  N   UNL     1      -4.577  -2.057  -3.669  0.00  0.00    -0.220 NA
ATOM      8  C   UNL     1      -5.772  -1.480  -3.350  0.00  0.00    +0.120 A 
ATOM      9  N   UNL     1      -5.855  -0.571  -2.332  0.00  0.00    -0.220 NA
ATOM     10  C   UNL     1      -4.762  -0.219  -1.593  0.00  0.00    +0.136 A 
ATOM     11  C   UNL     1      -3.533  -0.818  -1.908  0.00  0.00    +0.067 A 
ATOM     12  H   UNL     1      -1.893  -2.905  -3.845  0.00  0.00    +0.000 HD
ENDROOT
BRANCH   1  18
ATOM     13  C   UNL     1      -0.464  -2.546   1.251  0.00  0.00    -0.038 C 
ATOM     14  C   UNL     1       0.147  -1.208   0.968  0.00  0.00    -0.025 A 
ATOM     15  C   UNL     1       1.418  -0.811   1.338  0.00  0.00    -0.028 A 
ATOM     16  C   UNL     1       1.556   0.500   0.893  0.00  0.00    +0.103 A 
ATOM     17  N   UNL     1       0.417   0.918   0.301  0.00  0.00    -0.351 N 
ATOM     18  C   UNL     1      -0.435  -0.124   0.318  0.00  0.00    +0.043 A 
ATOM     19  H   UNL     1       0.243   1.812  -0.072  0.00  0.00    +0.000 HD
BRANCH  16  20
ATOM     20  C   UNL     1       2.739   1.367   1.063  0.00  0.00    +0.263 C 
ATOM     21  O   UNL     1       2.548   2.612   1.147  0.00  0.00    -0.268 OA
ATOM     22  N   UNL     1       4.088   0.843   1.092  0.00  0.00    -0.293 N 
ATOM     23  C   UNL     1       5.200   1.682   1.560  0.00  0.00    +0.030 C 
ATOM     24  C   UNL     1       6.164   1.985   0.383  0.00  0.00    +0.021 C 
ATOM     25  C   UNL     1       7.578   2.280   0.911  0.00  0.00    -0.048 C 
ATOM     26  N   UNL     1       6.175   0.908  -0.643  0.00  0.00    -0.308 N 
ATOM     27  C   UNL     1       5.878  -0.425  -0.080  0.00  0.00    +0.021 C 
ATOM     28  C   UNL     1       6.088  -1.519  -1.141  0.00  0.00    -0.048 C 
ATOM     29  C   UNL     1       4.424  -0.435   0.436  0.00  0.00    +0.030 C 
ATOM     30  H   UNL     1       7.099   0.880  -1.075  0.00  0.00    +0.000 HD
ATOM     31  H   UNL     1       5.445   1.123  -1.322  0.00  0.00    +0.000 HD
ENDBRANCH  16  20
ENDBRANCH   1  18
BRANCH  10  32
ATOM     32  N   UNL     1      -4.878   0.799  -0.590  0.00  0.00    -0.299 N 
ATOM     33  H   UNL     1      -4.191   1.504  -0.559  0.00  0.00    +0.000 HD
BRANCH  32  34
ATOM     34  C   UNL     1      -5.946   0.844   0.376  0.00  0.00    +0.034 A 
ATOM     35  C   UNL     1      -6.714  -0.300   0.676  0.00  0.00    -0.038 A 
ATOM     36  C   UNL     1      -7.718  -0.240   1.645  0.00  0.00    -0.023 A 
ATOM     37  C   UNL     1      -7.963   0.955   2.329  0.00  0.00    +0.142 A 
ATOM     38  F   UNL     1      -8.933   0.997   3.272  0.00  0.00    -0.204 F 
ATOM     39  C   UNL     1      -7.198   2.094   2.047  0.00  0.00    +0.078 A 
ATOM     40 CL   UNL     1      -7.487   3.594   2.913  0.00  0.00    -0.081 Cl
ATOM     41  C   UNL     1      -6.190   2.037   1.078  0.00  0.00    -0.019 A 
ENDBRANCH  32  34
ENDBRANCH  10  32
TORSDOF 4
