REMARK  Name = 
REMARK  8 active torsions:
REMARK  status: ('A' for Active; 'I' for Inactive)
REMARK    1  A    between atoms: C_2  and  C_3
REMARK    2  A    between atoms: C_3  and  C_13
REMARK    3  A    between atoms: C_4  and  C_5
REMARK    4  A    between atoms: C_8  and  O_9
REMARK    5  A    between atoms: C_10  and  O_11
REMARK    6  A    between atoms: N_15  and  C_16
REMARK    7  A    between atoms: C_16  and  C_17
REMARK    8  A    between atoms: C_17  and  C_18
REMARK                            x       y       z     vdW  Elec       q    Type
REMARK                         _______ _______ _______ _____ _____    ______ ____
ROOT
ATOM      1  C   UNL     1      -1.370   0.686  -0.797  0.00  0.00    +0.114 C 
ATOM      2  C   UNL     1      -2.188   0.443   0.246  0.00  0.00    -0.032 C 
ENDROOT
BRANCH   2   3
ATOM      3  C   UNL     1      -3.666   0.385   0.165  0.00  0.00    -0.020 A 
ATOM      4  C   UNL     1      -4.410   1.394  -0.472  0.00  0.00    -0.051 A 
ATOM      5  C   UNL     1      -5.806   1.328  -0.501  0.00  0.00    -0.016 A 
ATOM      6  C   UNL     1      -6.477   0.268   0.121  0.00  0.00    +0.158 A 
ATOM      7  C   UNL     1      -5.741  -0.729   0.784  0.00  0.00    +0.159 A 
ATOM      8  C   UNL     1      -4.343  -0.660   0.811  0.00  0.00    -0.009 A 
BRANCH   6   9
ATOM      9  O   UNL     1      -7.870   0.204   0.088  0.00  0.00    -0.503 OA
ATOM     10  H   UNL     1      -8.359   0.869  -0.354  0.00  0.00    +0.000 HD
ENDBRANCH   6   9
BRANCH   7  11
ATOM     11  O   UNL     1      -6.379  -1.792   1.422  0.00  0.00    -0.503 OA
ATOM     12  H   UNL     1      -7.314  -1.851   1.412  0.00  0.00    +0.000 HD
ENDBRANCH   7  11
ENDBRANCH   2   3
BRANCH   1  13
ATOM     13  C   UNL     1       0.101   0.731  -0.625  0.00  0.00    +0.254 C 
ATOM     14  O   UNL     1       0.787   1.435  -1.416  0.00  0.00    -0.269 OA
ATOM     15  N   UNL     1       0.761  -0.030   0.402  0.00  0.00    -0.310 N 
ATOM     16  H   UNL     1       0.229  -0.650   0.950  0.00  0.00    +0.000 HD
BRANCH  15  17
ATOM     17  C   UNL     1       2.195   0.087   0.660  0.00  0.00    +0.016 C 
BRANCH  17  18
ATOM     18  C   UNL     1       2.992  -0.714  -0.373  0.00  0.00    -0.012 C 
BRANCH  18  19
ATOM     19  C   UNL     1       4.468  -0.612  -0.098  0.00  0.00    -0.046 A 
ATOM     20  C   UNL     1       5.097  -1.537   0.752  0.00  0.00    -0.059 A 
ATOM     21  C   UNL     1       6.462  -1.421   1.032  0.00  0.00    -0.062 A 
ATOM     22  C   UNL     1       7.206  -0.378   0.473  0.00  0.00    -0.062 A 
ATOM     23  C   UNL     1       6.584   0.553  -0.363  0.00  0.00    -0.062 A 
ATOM     24  C   UNL     1       5.219   0.442  -0.645  0.00  0.00    -0.059 A 
ENDBRANCH  18  19
ENDBRANCH  17  18
ENDBRANCH  15  17
ENDBRANCH   1  13
BRANCH   1  26
ATOM     25  N   UNL     1      -2.309   1.055  -3.197  0.00  0.00    -0.191 NA
ATOM     26  C   UNL     1      -1.893   0.892  -2.130  0.00  0.00    +0.104 C 
ENDBRANCH   1  26
TORSDOF 8
