REMARK  Name = 
REMARK  5 active torsions:
REMARK  status: ('A' for Active; 'I' for Inactive)
REMARK    1  A    between atoms: O_1  and  C_2
REMARK    2  A    between atoms: C_4  and  O_5
REMARK    3  A    between atoms: C_8  and  C_9
REMARK    4  A    between atoms: C_12  and  O_13
REMARK    5  A    between atoms: C_14  and  O_15
REMARK                            x       y       z     vdW  Elec       q    Type
REMARK                         _______ _______ _______ _____ _____    ______ ____
ROOT
ATOM      1  C   UNL     1       4.638   0.567  -0.074  0.00  0.00    +0.122 A 
ATOM      2  C   UNL     1       4.425  -0.789  -0.395  0.00  0.00    +0.023 A 
ATOM      3  C   UNL     1       3.122  -1.316  -0.461  0.00  0.00    +0.147 A 
ATOM      4  C   UNL     1       2.041  -0.463  -0.202  0.00  0.00    +0.120 A 
ATOM      5  N   UNL     1       0.736  -0.838  -0.232  0.00  0.00    -0.235 NA
ATOM      6  C   UNL     1      -0.089   0.200   0.061  0.00  0.00    +0.110 A 
ATOM      7  S   UNL     1       0.788   1.623   0.366  0.00  0.00    -0.067 S 
ATOM      8  C   UNL     1       2.263   0.868   0.112  0.00  0.00    +0.047 A 
ATOM      9  C   UNL     1       3.542   1.411   0.183  0.00  0.00    -0.004 A 
ENDROOT
BRANCH   6  10
ATOM     10  C   UNL     1      -1.565   0.075   0.101  0.00  0.00    +0.011 A 
ATOM     11  C   UNL     1      -2.175  -1.161  -0.172  0.00  0.00    -0.048 A 
ATOM     12  C   UNL     1      -3.566  -1.288  -0.137  0.00  0.00    -0.016 A 
ATOM     13  C   UNL     1      -4.370  -0.184   0.171  0.00  0.00    +0.158 A 
ATOM     14  C   UNL     1      -3.771   1.057   0.445  0.00  0.00    +0.159 A 
ATOM     15  C   UNL     1      -2.377   1.182   0.409  0.00  0.00    -0.007 A 
BRANCH  13  16
ATOM     16  O   UNL     1      -5.757  -0.314   0.205  0.00  0.00    -0.503 OA
ATOM     17  H   UNL     1      -6.155  -1.143   0.022  0.00  0.00    +0.000 HD
ENDBRANCH  13  16
BRANCH  14  18
ATOM     18  O   UNL     1      -4.543   2.176   0.754  0.00  0.00    -0.503 OA
ATOM     19  H   UNL     1      -5.478   2.108   0.782  0.00  0.00    +0.000 HD
ENDBRANCH  14  18
ENDBRANCH   6  10
BRANCH   1  20
ATOM     20  O   UNL     1       5.939   1.062  -0.016  0.00  0.00    -0.507 OA
ATOM     21  H   UNL     1       6.664   0.494  -0.189  0.00  0.00    +0.000 HD
ENDBRANCH   1  20
BRANCH   3  22
ATOM     22  O   UNL     1       2.933  -2.659  -0.780  0.00  0.00    -0.504 OA
ATOM     23  H   UNL     1       3.672  -3.210  -0.949  0.00  0.00    +0.000 HD
ENDBRANCH   3  22
TORSDOF 5
