REMARK  Name = 
REMARK  5 active torsions:
REMARK  status: ('A' for Active; 'I' for Inactive)
REMARK    1  A    between atoms: C_1  and  O_2
REMARK    2  A    between atoms: O_2  and  C_3
REMARK    3  A    between atoms: C_7  and  N_8
REMARK    4  A    between atoms: C_14  and  C_15
REMARK    5  A    between atoms: N_25  and  C_26
REMARK                            x       y       z     vdW  Elec       q    Type
REMARK                         _______ _______ _______ _____ _____    ______ ____
ROOT
ATOM      1  N   UNL     1      -2.873   0.964   1.304  0.00  0.00    -0.283 N 
ATOM      2  C   UNL     1      -1.439   0.964   1.244  0.00  0.00    +0.221 A 
ATOM      3  N   UNL     1      -0.734   1.804   2.046  0.00  0.00    -0.222 NA
ATOM      4  C   UNL     1       0.622   1.849   1.999  0.00  0.00    +0.042 A 
ATOM      5  C   UNL     1       1.315   1.025   1.106  0.00  0.00    +0.037 A 
ATOM      6  C   UNL     1       2.707   1.030   1.036  0.00  0.00    -0.037 A 
ATOM      7  C   UNL     1       3.358   0.176   0.145  0.00  0.00    +0.050 A 
ATOM      8  C   UNL     1       2.597  -0.676  -0.678  0.00  0.00    +0.260 A 
ATOM      9  O   UNL     1       3.193  -1.471  -1.458  0.00  0.00    -0.267 OA
ATOM     10  N   UNL     1       1.223  -0.651  -0.628  0.00  0.00    -0.295 N 
ATOM     11  C   UNL     1       0.435  -1.562  -1.478  0.00  0.00    +0.017 C 
ATOM     12  C   UNL     1       0.578   0.169   0.266  0.00  0.00    +0.148 A 
ATOM     13  N   UNL     1      -0.780   0.168   0.359  0.00  0.00    -0.196 NA
ATOM     14  H   UNL     1      -3.313   1.670   1.830  0.00  0.00    +0.000 HD
ENDROOT
BRANCH   7  15
ATOM     15  C   UNL     1       4.837   0.174   0.087  0.00  0.00    +0.024 A 
ATOM     16  C   UNL     1       5.509   0.774  -0.999  0.00  0.00    +0.050 A 
ATOM     17 CL   UNL     1       4.628   1.562  -2.305  0.00  0.00    -0.083 Cl
ATOM     18  C   UNL     1       6.908   0.770  -1.045  0.00  0.00    -0.043 A 
ATOM     19  C   UNL     1       7.644   0.175  -0.019  0.00  0.00    -0.059 A 
ATOM     20  C   UNL     1       6.988  -0.419   1.060  0.00  0.00    -0.043 A 
ATOM     21  C   UNL     1       5.590  -0.423   1.121  0.00  0.00    +0.050 A 
ATOM     22 CL   UNL     1       4.811  -1.205   2.493  0.00  0.00    -0.083 Cl
ENDBRANCH   7  15
BRANCH   1  27
ATOM     23  C   UNL     1      -5.789  -0.527  -0.523  0.00  0.00    +0.122 A 
ATOM     24  C   UNL     1      -5.390  -1.865  -0.613  0.00  0.00    -0.020 A 
ATOM     25  C   UNL     1      -4.173  -2.280  -0.069  0.00  0.00    -0.057 A 
ATOM     26  C   UNL     1      -3.337  -1.357   0.564  0.00  0.00    -0.040 A 
ATOM     27  C   UNL     1      -3.707  -0.003   0.642  0.00  0.00    +0.037 A 
ATOM     28  C   UNL     1      -4.944   0.402   0.115  0.00  0.00    +0.001 A 
BRANCH  23  30
ATOM     29  C   UNL     1      -7.558   1.158  -1.059  0.00  0.00    +0.079 C 
ATOM     30  O   UNL     1      -7.026  -0.163  -1.077  0.00  0.00    -0.495 OA
ENDBRANCH  23  30
ENDBRANCH   1  27
TORSDOF 3
