REMARK  Name = 
REMARK  4 active torsions:
REMARK  status: ('A' for Active; 'I' for Inactive)
REMARK    1  A    between atoms: C_2  and  C_4
REMARK    2  A    between atoms: C_4  and  C_13
REMARK    3  A    between atoms: C_5  and  C_6
REMARK    4  A    between atoms: C_9  and  O_10
REMARK                            x       y       z     vdW  Elec       q    Type
REMARK                         _______ _______ _______ _____ _____    ______ ____
ROOT
ATOM      1  C   UNL     1      -1.990  -0.483  -0.182  0.00  0.00    +0.143 C 
ATOM      2  C   UNL     1      -0.828  -1.170  -0.118  0.00  0.00    -0.034 C 
ENDROOT
BRANCH   2   3
ATOM      3  C   UNL     1       0.517  -0.563  -0.002  0.00  0.00    -0.024 A 
ATOM      4  C   UNL     1       0.914   0.500  -0.833  0.00  0.00    -0.051 A 
ATOM      5  C   UNL     1       2.204   1.029  -0.734  0.00  0.00    -0.020 A 
ATOM      6  C   UNL     1       3.118   0.488   0.181  0.00  0.00    +0.117 A 
ATOM      7  C   UNL     1       2.736  -0.588   0.989  0.00  0.00    -0.020 A 
ATOM      8  C   UNL     1       1.446  -1.118   0.891  0.00  0.00    -0.051 A 
BRANCH   6   9
ATOM      9  O   UNL     1       4.406   1.008   0.291  0.00  0.00    -0.507 OA
ATOM     10  H   UNL     1       4.667   1.729  -0.248  0.00  0.00    +0.000 HD
ENDBRANCH   6   9
ENDBRANCH   2   3
BRANCH   1  12
ATOM     11  O   UNL     1      -3.246  -2.428  -0.775  0.00  0.00    -0.245 OA
ATOM     12  C   UNL     1      -3.259  -1.213  -0.433  0.00  0.00    +0.344 C 
ATOM     13  O   UNL     1      -4.481  -0.563  -0.289  0.00  0.00    -0.477 OA
ENDBRANCH   1  12
BRANCH   1  14
ATOM     14  C   UNL     1      -2.051   0.979   0.059  0.00  0.00    +0.344 C 
ATOM     15  O   UNL     1      -2.905   1.684  -0.544  0.00  0.00    -0.245 OA
ATOM     16  O   UNL     1      -1.191   1.582   0.973  0.00  0.00    -0.477 OA
ENDBRANCH   1  14
TORSDOF 4
