REMARK  Name = 
REMARK  9 active torsions:
REMARK  status: ('A' for Active; 'I' for Inactive)
REMARK    1  A    between atoms: C_1  and  O_2
REMARK    2  A    between atoms: O_2  and  C_3
REMARK    3  A    between atoms: C_9  and  N_10
REMARK    4  A    between atoms: N_10  and  C_11
REMARK    5  A    between atoms: C_21  and  O_22
REMARK    6  A    between atoms: O_22  and  C_23
REMARK    7  A    between atoms: C_23  and  C_24
REMARK    8  A    between atoms: C_24  and  C_25
REMARK    9  A    between atoms: C_25  and  N_26
REMARK                            x       y       z     vdW  Elec       q    Type
REMARK                         _______ _______ _______ _____ _____    ______ ____
ROOT
ATOM      1  C   UNL     1       0.142  -2.861   0.765  0.00  0.00    +0.164 A 
ATOM      2  C   UNL     1       1.355  -3.562   0.893  0.00  0.00    +0.010 A 
ATOM      3  C   UNL     1       2.568  -2.872   0.954  0.00  0.00    +0.080 A 
ATOM      4  N   UNL     1       3.731  -3.566   1.059  0.00  0.00    -0.235 NA
ATOM      5  C   UNL     1       4.925  -2.925   1.114  0.00  0.00    +0.119 A 
ATOM      6  N   UNL     1       4.973  -1.570   1.074  0.00  0.00    -0.220 NA
ATOM      7  C   UNL     1       3.844  -0.817   0.968  0.00  0.00    +0.134 A 
ATOM      8  C   UNL     1       2.589  -1.463   0.900  0.00  0.00    +0.044 A 
ATOM      9  C   UNL     1       1.376  -0.764   0.755  0.00  0.00    -0.004 A 
ATOM     10  C   UNL     1       0.153  -1.460   0.692  0.00  0.00    +0.163 A 
ENDROOT
BRANCH   1  12
ATOM     11  C   UNL     1      -1.263  -4.933   0.760  0.00  0.00    +0.079 C 
ATOM     12  O   UNL     1      -1.096  -3.520   0.702  0.00  0.00    -0.491 OA
ENDBRANCH   1  12
BRANCH   7  13
ATOM     13  N   UNL     1       3.953   0.617   0.985  0.00  0.00    -0.299 N 
ATOM     14  H   UNL     1       3.222   1.136   1.393  0.00  0.00    +0.000 HD
BRANCH  13  15
ATOM     15  C   UNL     1       5.074   1.332   0.437  0.00  0.00    +0.034 A 
ATOM     16  C   UNL     1       5.408   2.594   0.953  0.00  0.00    -0.038 A 
ATOM     17  C   UNL     1       6.483   3.313   0.423  0.00  0.00    -0.023 A 
ATOM     18  C   UNL     1       7.227   2.786  -0.636  0.00  0.00    +0.142 A 
ATOM     19  F   UNL     1       8.267   3.494  -1.144  0.00  0.00    -0.204 F 
ATOM     20  C   UNL     1       6.891   1.537  -1.172  0.00  0.00    +0.078 A 
ATOM     21 CL   UNL     1       7.806   0.874  -2.515  0.00  0.00    -0.081 Cl
ATOM     22  C   UNL     1       5.815   0.815  -0.642  0.00  0.00    -0.019 A 
ENDBRANCH  13  15
ENDBRANCH   7  13
BRANCH  10  23
ATOM     23  O   UNL     1      -1.076  -0.796   0.554  0.00  0.00    -0.488 OA
BRANCH  23  24
ATOM     24  C   UNL     1      -1.229   0.619   0.454  0.00  0.00    +0.091 C 
BRANCH  24  25
ATOM     25  C   UNL     1      -2.710   0.975   0.317  0.00  0.00    -0.006 C 
BRANCH  25  26
ATOM     26  C   UNL     1      -3.312   0.394  -0.982  0.00  0.00    +0.002 C 
BRANCH  26  27
ATOM     27  N   UNL     1      -4.701   0.822  -1.260  0.00  0.00    -0.298 N 
ATOM     28  C   UNL     1      -4.800   2.199  -1.780  0.00  0.00    +0.022 C 
ATOM     29  C   UNL     1      -6.274   2.642  -1.868  0.00  0.00    +0.060 C 
ATOM     30  O   UNL     1      -7.133   1.518  -1.879  0.00  0.00    -0.377 OA
ATOM     31  C   UNL     1      -7.082   0.853  -0.627  0.00  0.00    +0.060 C 
ATOM     32  C   UNL     1      -5.637   0.595  -0.147  0.00  0.00    +0.022 C 
ATOM     33  H   UNL     1      -5.000   0.199  -2.010  0.00  0.00    +0.000 HD
ENDBRANCH  26  27
ENDBRANCH  25  26
ENDBRANCH  24  25
ENDBRANCH  23  24
ENDBRANCH  10  23
TORSDOF 8
