REMARK  Name = 
REMARK  4 active torsions:
REMARK  status: ('A' for Active; 'I' for Inactive)
REMARK    1  A    between atoms: C_1  and  N_2
REMARK    2  A    between atoms: N_2  and  C_3
REMARK    3  A    between atoms: C_9  and  N_10
REMARK    4  A    between atoms: N_10  and  C_11
REMARK                            x       y       z     vdW  Elec       q    Type
REMARK                         _______ _______ _______ _____ _____    ______ ____
ROOT
ATOM      1  C   UNL     1       3.598  -0.331  -0.496  0.00  0.00    +0.120 A 
ATOM      2  C   UNL     1       3.025  -1.410   0.188  0.00  0.00    +0.004 A 
ATOM      3  C   UNL     1       1.670  -1.370   0.524  0.00  0.00    +0.081 A 
ATOM      4  N   UNL     1       1.101  -2.419   1.172  0.00  0.00    -0.235 NA
ATOM      5  C   UNL     1      -0.214  -2.404   1.503  0.00  0.00    +0.119 A 
ATOM      6  N   UNL     1      -0.983  -1.329   1.195  0.00  0.00    -0.220 NA
ATOM      7  C   UNL     1      -0.473  -0.247   0.544  0.00  0.00    +0.135 A 
ATOM      8  C   UNL     1       0.891  -0.243   0.185  0.00  0.00    +0.059 A 
ATOM      9  C   UNL     1       1.506   0.811  -0.514  0.00  0.00    +0.042 A 
ATOM     10  N   UNL     1       2.826   0.741  -0.830  0.00  0.00    -0.240 NA
ENDROOT
BRANCH   1  12
ATOM     11  C   UNL     1       5.623   0.742  -1.563  0.00  0.00    -0.001 C 
ATOM     12  N   UNL     1       4.988  -0.359  -0.848  0.00  0.00    -0.332 N 
ATOM     13  H   UNL     1       5.528  -1.143  -0.601  0.00  0.00    +0.000 HD
ENDBRANCH   1  12
BRANCH   7  14
ATOM     14  N   UNL     1      -1.321   0.887   0.290  0.00  0.00    -0.299 N 
ATOM     15  H   UNL     1      -0.911   1.781   0.266  0.00  0.00    +0.000 HD
BRANCH  14  16
ATOM     16  C   UNL     1      -2.739   0.781   0.068  0.00  0.00    +0.033 A 
ATOM     17  C   UNL     1      -3.573   1.859   0.404  0.00  0.00    -0.040 A 
ATOM     18  C   UNL     1      -4.951   1.784   0.179  0.00  0.00    -0.059 A 
ATOM     19  C   UNL     1      -5.506   0.637  -0.395  0.00  0.00    -0.048 A 
ATOM     20  C   UNL     1      -4.682  -0.434  -0.753  0.00  0.00    +0.020 A 
ATOM     21 BR   UNL     1      -5.439  -1.992  -1.558  0.00  0.00    -0.050 Br
ATOM     22  C   UNL     1      -3.303  -0.363  -0.528  0.00  0.00    -0.027 A 
ENDBRANCH  14  16
ENDBRANCH   7  14
TORSDOF 3
