REMARK  Name = 
REMARK  6 active torsions:
REMARK  status: ('A' for Active; 'I' for Inactive)
REMARK    1  A    between atoms: C_2  and  C_3
REMARK    2  A    between atoms: C_3  and  C_4
REMARK    3  A    between atoms: C_6  and  C_7
REMARK    4  A    between atoms: C_9  and  O_10
REMARK    5  A    between atoms: C_11  and  O_12
REMARK    6  A    between atoms: C_13  and  O_14
REMARK                            x       y       z     vdW  Elec       q    Type
REMARK                         _______ _______ _______ _____ _____    ______ ____
ROOT
ATOM      1  C   UNL     1       0.180  -0.609   0.197  0.00  0.00    -0.016 A 
ATOM      2  C   UNL     1       0.312   0.711   0.653  0.00  0.00    -0.009 A 
ATOM      3  C   UNL     1      -0.694   1.653   0.403  0.00  0.00    +0.163 A 
ATOM      4  C   UNL     1      -1.854   1.281  -0.291  0.00  0.00    +0.201 A 
ATOM      5  C   UNL     1      -2.007  -0.057  -0.726  0.00  0.00    +0.163 A 
ATOM      6  C   UNL     1      -0.993  -0.987  -0.469  0.00  0.00    -0.009 A 
ENDROOT
BRANCH   1   8
ATOM      7  C   UNL     1       2.535  -1.455   0.324  0.00  0.00    +0.129 C 
ATOM      8  C   UNL     1       1.212  -1.636   0.474  0.00  0.00    -0.027 C 
BRANCH   7  10
ATOM      9  N   UNL     1       4.160  -3.409   0.855  0.00  0.00    -0.190 NA
ATOM     10  C   UNL     1       3.435  -2.538   0.618  0.00  0.00    +0.110 C 
ENDBRANCH   7  10
BRANCH   7  11
ATOM     11  C   UNL     1       3.100  -0.239  -0.207  0.00  0.00    +0.110 C 
ATOM     12  N   UNL     1       3.554   0.736  -0.634  0.00  0.00    -0.190 NA
ENDBRANCH   7  11
ENDBRANCH   1   8
BRANCH   3  13
ATOM     13  O   UNL     1      -0.550   2.966   0.848  0.00  0.00    -0.503 OA
ATOM     14  H   UNL     1       0.223   3.222   1.312  0.00  0.00    +0.000 HD
ENDBRANCH   3  13
BRANCH   4  15
ATOM     15  O   UNL     1      -2.823   2.261  -0.522  0.00  0.00    -0.501 OA
ATOM     16  H   UNL     1      -2.685   3.137  -0.219  0.00  0.00    +0.000 HD
ENDBRANCH   4  15
BRANCH   5  17
ATOM     17  O   UNL     1      -3.141  -0.504  -1.408  0.00  0.00    -0.503 OA
ATOM     18  H   UNL     1      -3.839   0.092  -1.597  0.00  0.00    +0.000 HD
ENDBRANCH   5  17
TORSDOF 6
