REMARK  Name = 
REMARK  6 active torsions:
REMARK  status: ('A' for Active; 'I' for Inactive)
REMARK    1  A    between atoms: C_1  and  N_2
REMARK    2  A    between atoms: N_2  and  C_3
REMARK    3  A    between atoms: C_7  and  C_8
REMARK    4  A    between atoms: C_9  and  O_10
REMARK    5  A    between atoms: O_10  and  C_11
REMARK    6  A    between atoms: C_32  and  O_33
REMARK                            x       y       z     vdW  Elec       q    Type
REMARK                         _______ _______ _______ _____ _____    ______ ____
ROOT
ATOM      1  C   UNL     1      -3.189  -1.014   0.110  0.00  0.00    +0.042 C 
ATOM      2  C   UNL     1      -1.991  -1.964   0.027  0.00  0.00    +0.011 C 
ATOM      3  C   UNL     1      -1.001  -1.683   1.176  0.00  0.00    +0.140 C 
ATOM      4  O   UNL     1      -1.283  -0.537   1.956  0.00  0.00    -0.328 OA
ATOM      5  C   UNL     1      -1.639   0.656   1.256  0.00  0.00    +0.174 C 
ATOM      6  C   UNL     1      -2.322   1.492   2.373  0.00  0.00    -0.014 C 
ATOM      7  C   UNL     1      -2.652   0.425   0.066  0.00  0.00    +0.121 C 
ATOM      8  N   UNL     1      -0.410   1.350   0.778  0.00  0.00    -0.307 N 
ATOM      9  C   UNL     1      -0.244   2.667   0.442  0.00  0.00    +0.053 A 
ATOM     10  C   UNL     1      -1.231   3.660   0.320  0.00  0.00    -0.037 A 
ATOM     11  C   UNL     1      -0.858   4.940  -0.112  0.00  0.00    -0.060 A 
ATOM     12  C   UNL     1       0.473   5.213  -0.463  0.00  0.00    -0.061 A 
ATOM     13  C   UNL     1       1.445   4.206  -0.397  0.00  0.00    -0.052 A 
ATOM     14  C   UNL     1       1.066   2.944   0.072  0.00  0.00    +0.008 A 
ATOM     15  C   UNL     1       1.751   1.745   0.132  0.00  0.00    +0.022 A 
ATOM     16  C   UNL     1       3.070   1.355  -0.203  0.00  0.00    +0.054 A 
ATOM     17  C   UNL     1       3.410   0.004  -0.232  0.00  0.00    +0.021 A 
ATOM     18  C   UNL     1       2.438  -0.954   0.086  0.00  0.00    +0.018 A 
ATOM     19  C   UNL     1       2.447  -2.334   0.072  0.00  0.00    +0.008 A 
ATOM     20  C   UNL     1       3.436  -3.260  -0.266  0.00  0.00    -0.052 A 
ATOM     21  C   UNL     1       3.111  -4.625  -0.197  0.00  0.00    -0.061 A 
ATOM     22  C   UNL     1       1.820  -5.035   0.197  0.00  0.00    -0.060 A 
ATOM     23  C   UNL     1       0.837  -4.085   0.524  0.00  0.00    -0.037 A 
ATOM     24  C   UNL     1       1.179  -2.729   0.453  0.00  0.00    +0.052 A 
ATOM     25  N   UNL     1       0.385  -1.659   0.712  0.00  0.00    -0.311 N 
ATOM     26  C   UNL     1       1.157  -0.574   0.477  0.00  0.00    +0.077 A 
ATOM     27  C   UNL     1       0.806   0.790   0.520  0.00  0.00    +0.078 A 
ATOM     28  C   UNL     1       4.851  -0.190  -0.625  0.00  0.00    +0.149 C 
ATOM     29  N   UNL     1       5.335   1.175  -0.830  0.00  0.00    -0.282 N 
ATOM     30  C   UNL     1       4.283   2.084  -0.538  0.00  0.00    +0.247 C 
ATOM     31  O   UNL     1       4.454   3.327  -0.469  0.00  0.00    -0.270 OA
ATOM     32  H   UNL     1       6.241   1.422  -1.124  0.00  0.00    +0.000 HD
ENDROOT
BRANCH   1  34
ATOM     33  C   UNL     1      -5.104  -2.302  -0.672  0.00  0.00    -0.015 C 
ATOM     34  N   UNL     1      -4.150  -1.237  -0.989  0.00  0.00    -0.314 N 
ATOM     35  H   UNL     1      -4.665  -0.373  -1.158  0.00  0.00    +0.000 HD
ATOM     36  H   UNL     1      -3.624  -1.520  -1.816  0.00  0.00    +0.000 HD
ENDBRANCH   1  34
BRANCH   7  37
ATOM     37  O   UNL     1      -1.994   0.646  -1.181  0.00  0.00    -0.373 OA
ATOM     38  C   UNL     1      -2.763   1.462  -2.041  0.00  0.00    +0.037 C 
ENDBRANCH   7  37
BRANCH  28  39
ATOM     39  O   UNL     1       5.579  -0.820   0.397  0.00  0.00    -0.370 OA
ATOM     40  H   UNL     1       5.515  -0.294   1.210  0.00  0.00    +0.000 HD
ENDBRANCH  28  39
TORSDOF 3
