REMARK  Name = 
REMARK  7 active torsions:
REMARK  status: ('A' for Active; 'I' for Inactive)
REMARK    1  A    between atoms: C_1  and  O_2
REMARK    2  A    between atoms: O_2  and  C_3
REMARK    3  A    between atoms: C_4  and  N_5
REMARK    4  A    between atoms: N_5  and  C_6
REMARK    5  A    between atoms: C_7  and  C_9
REMARK    6  A    between atoms: C_13  and  N_14
REMARK    7  A    between atoms: C_21  and  C_22
REMARK                            x       y       z     vdW  Elec       q    Type
REMARK                         _______ _______ _______ _____ _____    ______ ____
ROOT
ATOM      1  C   UNL     1       1.267   1.069  -0.711  0.00  0.00    +0.125 C 
ATOM      2  C   UNL     1       1.848   0.143   0.394  0.00  0.00    +0.061 C 
ATOM      3  C   UNL     1       0.737  -0.710   0.988  0.00  0.00    +0.014 C 
ATOM      4  C   UNL     1       0.165  -1.613  -0.116  0.00  0.00    +0.140 C 
ATOM      5  O   UNL     1       0.219  -1.072  -1.425  0.00  0.00    -0.328 OA
ATOM      6  C   UNL     1       0.111   0.346  -1.528  0.00  0.00    +0.174 C 
ATOM      7  C   UNL     1       0.325   0.597  -3.042  0.00  0.00    -0.014 C 
ATOM      8  N   UNL     1      -1.266   0.820  -1.146  0.00  0.00    -0.307 N 
ATOM      9  C   UNL     1      -1.864   2.018  -1.461  0.00  0.00    +0.053 A 
ATOM     10  C   UNL     1      -1.294   3.160  -2.052  0.00  0.00    -0.037 A 
ATOM     11  C   UNL     1      -2.104   4.281  -2.295  0.00  0.00    -0.060 A 
ATOM     12  C   UNL     1      -3.467   4.267  -1.954  0.00  0.00    -0.061 A 
ATOM     13  C   UNL     1      -4.035   3.132  -1.362  0.00  0.00    -0.052 A 
ATOM     14  C   UNL     1      -3.210   2.029  -1.128  0.00  0.00    +0.008 A 
ATOM     15  C   UNL     1      -3.485   0.808  -0.573  0.00  0.00    +0.015 A 
ATOM     16  C   UNL     1      -4.671   0.247  -0.066  0.00  0.00    -0.008 A 
ATOM     17  C   UNL     1      -4.650  -1.041   0.465  0.00  0.00    +0.052 A 
ATOM     18  C   UNL     1      -3.436  -1.757   0.514  0.00  0.00    +0.022 A 
ATOM     19  C   UNL     1      -3.037  -2.962   1.081  0.00  0.00    +0.008 A 
ATOM     20  C   UNL     1      -3.719  -3.938   1.815  0.00  0.00    -0.052 A 
ATOM     21  C   UNL     1      -2.989  -5.030   2.312  0.00  0.00    -0.061 A 
ATOM     22  C   UNL     1      -1.601  -5.124   2.093  0.00  0.00    -0.060 A 
ATOM     23  C   UNL     1      -0.924  -4.127   1.374  0.00  0.00    -0.037 A 
ATOM     24  C   UNL     1      -1.669  -3.054   0.870  0.00  0.00    +0.052 A 
ATOM     25  N   UNL     1      -1.207  -1.978   0.190  0.00  0.00    -0.311 N 
ATOM     26  C   UNL     1      -2.275  -1.190  -0.019  0.00  0.00    +0.077 A 
ATOM     27  C   UNL     1      -2.288   0.099  -0.582  0.00  0.00    +0.077 A 
ATOM     28  C   UNL     1      -6.013  -1.336   0.862  0.00  0.00    +0.245 C 
ATOM     29  O   UNL     1      -6.446  -2.426   1.312  0.00  0.00    -0.270 OA
ATOM     30  N   UNL     1      -6.850  -0.220   0.596  0.00  0.00    -0.307 N 
ATOM     31  C   UNL     1      -6.050   0.841  -0.007  0.00  0.00    +0.039 C 
ATOM     32  H   UNL     1      -7.814  -0.170   0.787  0.00  0.00    +0.000 HD
ENDROOT
BRANCH   2  33
ATOM     33  N   UNL     1       2.609   0.858   1.450  0.00  0.00    -0.295 N 
ATOM     34  C   UNL     1       1.921   1.634   2.494  0.00  0.00    +0.004 C 
ATOM     35  C   UNL     1       4.026   0.622   1.628  0.00  0.00    +0.247 C 
ATOM     36  O   UNL     1       4.549   0.791   2.765  0.00  0.00    -0.270 OA
BRANCH  35  37
ATOM     37  C   UNL     1       4.895   0.163   0.525  0.00  0.00    +0.039 A 
ATOM     38  C   UNL     1       4.918   0.843  -0.700  0.00  0.00    -0.049 A 
ATOM     39  C   UNL     1       5.733   0.393  -1.740  0.00  0.00    -0.059 A 
ATOM     40  C   UNL     1       6.543  -0.732  -1.561  0.00  0.00    -0.031 A 
ATOM     41  C   UNL     1       6.550  -1.416  -0.332  0.00  0.00    +0.127 A 
ATOM     42  C   UNL     1       5.724  -0.955   0.709  0.00  0.00    -0.019 A 
BRANCH  41  43
ATOM     43  N   UNL     1       7.383  -2.575  -0.142  0.00  0.00    +0.056 N 
ATOM     44  O   UNL     1       8.122  -2.985  -1.061  0.00  0.00    -0.126 OA
ATOM     45  O   UNL     1       7.386  -3.244   1.060  0.00  0.00    -0.126 OA
ENDBRANCH  41  43
ENDBRANCH  35  37
ENDBRANCH   2  33
BRANCH   1  47
ATOM     46  C   UNL     1       1.698   3.345  -0.359  0.00  0.00    +0.037 C 
ATOM     47  O   UNL     1       0.787   2.282  -0.149  0.00  0.00    -0.373 OA
ENDBRANCH   1  47
TORSDOF 4
