REMARK  Name = 
REMARK  4 active torsions:
REMARK  status: ('A' for Active; 'I' for Inactive)
REMARK    1  A    between atoms: C_2  and  C_4
REMARK    2  A    between atoms: C_4  and  N_5
REMARK    3  A    between atoms: C_11  and  N_12
REMARK    4  A    between atoms: N_12  and  C_13
REMARK                            x       y       z     vdW  Elec       q    Type
REMARK                         _______ _______ _______ _____ _____    ______ ____
ROOT
ATOM      1  N   UNL     1       3.758   0.638  -1.340  0.00  0.00    -0.336 N 
ATOM      2  C   UNL     1       3.438   0.607  -2.656  0.00  0.00    +0.006 A 
ATOM      3  C   UNL     1       2.080   0.360  -2.822  0.00  0.00    -0.036 A 
ATOM      4  C   UNL     1       1.575   0.226  -1.546  0.00  0.00    +0.001 A 
ATOM      5  C   UNL     1       0.277  -0.039  -1.119  0.00  0.00    -0.040 A 
ATOM      6  C   UNL     1       0.043  -0.144   0.274  0.00  0.00    +0.041 A 
ATOM      7  C   UNL     1      -1.233  -0.406   0.816  0.00  0.00    +0.134 A 
ATOM      8  N   UNL     1      -1.381  -0.464   2.168  0.00  0.00    -0.220 NA
ATOM      9  C   UNL     1      -0.337  -0.274   3.013  0.00  0.00    +0.119 A 
ATOM     10  N   UNL     1       0.902  -0.026   2.522  0.00  0.00    -0.235 NA
ATOM     11  C   UNL     1       1.125   0.044   1.185  0.00  0.00    +0.078 A 
ATOM     12  C   UNL     1       2.424   0.309   0.712  0.00  0.00    -0.011 A 
ATOM     13  C   UNL     1       2.614   0.395  -0.668  0.00  0.00    +0.052 A 
ENDROOT
BRANCH   7  14
ATOM     14  N   UNL     1      -2.368  -0.669  -0.028  0.00  0.00    -0.299 N 
ATOM     15  H   UNL     1      -2.211  -1.086  -0.906  0.00  0.00    +0.000 HD
BRANCH  14  16
ATOM     16  C   UNL     1      -3.721  -0.354   0.345  0.00  0.00    +0.033 A 
ATOM     17  C   UNL     1      -4.779  -1.108  -0.187  0.00  0.00    -0.040 A 
ATOM     18  C   UNL     1      -6.102  -0.806   0.147  0.00  0.00    -0.059 A 
ATOM     19  C   UNL     1      -6.382   0.260   1.006  0.00  0.00    -0.048 A 
ATOM     20  C   UNL     1      -5.338   1.031   1.526  0.00  0.00    +0.020 A 
ATOM     21 BR   UNL     1      -5.723   2.502   2.683  0.00  0.00    -0.050 Br
ATOM     22  C   UNL     1      -4.013   0.731   1.194  0.00  0.00    -0.027 A 
ENDBRANCH  14  16
ENDBRANCH   7  14
BRANCH   1  23
ATOM     23  C   UNL     1       5.101   0.816  -0.788  0.00  0.00    +0.120 C 
BRANCH  23  25
ATOM     24  O   UNL     1       6.269  -1.169  -1.422  0.00  0.00    -0.249 OA
ATOM     25  C   UNL     1       5.715  -0.516  -0.498  0.00  0.00    +0.325 C 
ATOM     26  O   UNL     1       5.635  -1.053   0.783  0.00  0.00    -0.479 OA
ENDBRANCH  23  25
ENDBRANCH   1  23
TORSDOF 4
