REMARK  Name = 
REMARK  5 active torsions:
REMARK  status: ('A' for Active; 'I' for Inactive)
REMARK    1  A    between atoms: C_1  and  C_2
REMARK    2  A    between atoms: C_4  and  C_5
REMARK    3  A    between atoms: C_14  and  C_15
REMARK    4  A    between atoms: C_24  and  N_25
REMARK    5  A    between atoms: N_25  and  C_26
REMARK                            x       y       z     vdW  Elec       q    Type
REMARK                         _______ _______ _______ _____ _____    ______ ____
ROOT
ATOM      1  C   UNL     1      -0.932  -0.360  -0.000  0.00  0.00    -0.025 C 
ATOM      2  C   UNL     1      -1.401  -1.599   0.215  0.00  0.00    +0.053 C 
ATOM      3  C   UNL     1      -0.690  -2.885   0.071  0.00  0.00    +0.250 C 
ATOM      4  O   UNL     1       0.525  -3.029  -0.225  0.00  0.00    -0.270 OA
ATOM      5  N   UNL     1      -1.592  -3.982   0.178  0.00  0.00    -0.266 N 
ATOM      6  C   UNL     1      -2.864  -3.380   0.360  0.00  0.00    +0.138 A 
ATOM      7  N   UNL     1      -4.036  -4.053   0.447  0.00  0.00    -0.220 NA
ATOM      8  C   UNL     1      -5.191  -3.347   0.604  0.00  0.00    +0.120 A 
ATOM      9  N   UNL     1      -5.162  -1.983   0.686  0.00  0.00    -0.220 NA
ATOM     10  C   UNL     1      -3.994  -1.282   0.592  0.00  0.00    +0.136 A 
ATOM     11  C   UNL     1      -2.806  -2.003   0.407  0.00  0.00    +0.067 A 
ATOM     12  H   UNL     1      -1.380  -4.943   0.135  0.00  0.00    +0.000 HD
ENDROOT
BRANCH   1  18
ATOM     13  C   UNL     1       0.251   1.841  -1.901  0.00  0.00    -0.038 C 
ATOM     14  C   UNL     1       1.016   0.936  -0.989  0.00  0.00    -0.025 A 
ATOM     15  C   UNL     1       2.365   1.032  -0.707  0.00  0.00    -0.028 A 
ATOM     16  C   UNL     1       2.616   0.103   0.290  0.00  0.00    +0.103 A 
ATOM     17  N   UNL     1       1.475  -0.525   0.640  0.00  0.00    -0.351 N 
ATOM     18  C   UNL     1       0.498  -0.035  -0.148  0.00  0.00    +0.043 A 
ATOM     19  H   UNL     1       1.375  -1.211   1.339  0.00  0.00    +0.000 HD
BRANCH  16  20
ATOM     20  C   UNL     1       3.906  -0.110   0.976  0.00  0.00    +0.263 C 
ATOM     21  O   UNL     1       3.904  -0.629   2.123  0.00  0.00    -0.268 OA
ATOM     22  N   UNL     1       5.161   0.256   0.370  0.00  0.00    -0.292 N 
ATOM     23  C   UNL     1       6.215   0.886   1.170  0.00  0.00    +0.039 C 
ATOM     24  C   UNL     1       7.581   0.325   0.758  0.00  0.00    +0.063 C 
ATOM     25  O   UNL     1       7.761   0.407  -0.643  0.00  0.00    -0.377 OA
ATOM     26  C   UNL     1       6.819  -0.422  -1.297  0.00  0.00    +0.063 C 
ATOM     27  C   UNL     1       5.394   0.093  -1.068  0.00  0.00    +0.039 C 
ENDBRANCH  16  20
ENDBRANCH   1  18
BRANCH  10  28
ATOM     28  N   UNL     1      -3.995   0.140   0.774  0.00  0.00    -0.299 N 
ATOM     29  H   UNL     1      -3.273   0.541   1.309  0.00  0.00    +0.000 HD
BRANCH  28  30
ATOM     30  C   UNL     1      -4.995   1.011   0.217  0.00  0.00    +0.034 A 
ATOM     31  C   UNL     1      -5.776   0.623  -0.889  0.00  0.00    -0.038 A 
ATOM     32  C   UNL     1      -6.717   1.502  -1.431  0.00  0.00    -0.023 A 
ATOM     33  C   UNL     1      -6.882   2.779  -0.887  0.00  0.00    +0.142 A 
ATOM     34  F   UNL     1      -7.795   3.626  -1.426  0.00  0.00    -0.204 F 
ATOM     35  C   UNL     1      -6.099   3.181   0.202  0.00  0.00    +0.078 A 
ATOM     36 CL   UNL     1      -6.287   4.789   0.885  0.00  0.00    -0.081 Cl
ATOM     37  C   UNL     1      -5.157   2.301   0.748  0.00  0.00    -0.019 A 
ENDBRANCH  28  30
ENDBRANCH  10  28
TORSDOF 4
