REMARK  Name = 
REMARK  6 active torsions:
REMARK  status: ('A' for Active; 'I' for Inactive)
REMARK    1  A    between atoms: C_1  and  O_2
REMARK    2  A    between atoms: O_2  and  C_3
REMARK    3  A    between atoms: C_4  and  N_5
REMARK    4  A    between atoms: N_5  and  C_6
REMARK    5  A    between atoms: C_7  and  C_8
REMARK    6  A    between atoms: C_13  and  C_14
REMARK                            x       y       z     vdW  Elec       q    Type
REMARK                         _______ _______ _______ _____ _____    ______ ____
ROOT
ATOM      1  C   UNL     1      -2.120  -0.988  -0.943  0.00  0.00    +0.125 C 
ATOM      2  C   UNL     1      -2.689   0.433  -0.710  0.00  0.00    +0.060 C 
ATOM      3  C   UNL     1      -1.564   1.388  -0.337  0.00  0.00    +0.014 C 
ATOM      4  C   UNL     1      -0.592   1.484  -1.522  0.00  0.00    +0.140 C 
ATOM      5  O   UNL     1      -0.515   0.324  -2.334  0.00  0.00    -0.328 OA
ATOM      6  C   UNL     1      -0.710  -0.927  -1.676  0.00  0.00    +0.174 C 
ATOM      7  C   UNL     1      -0.707  -1.934  -2.853  0.00  0.00    -0.014 C 
ATOM      8  N   UNL     1       0.439  -1.244  -0.759  0.00  0.00    -0.307 N 
ATOM      9  C   UNL     1       0.804  -2.470  -0.254  0.00  0.00    +0.053 A 
ATOM     10  C   UNL     1       0.111  -3.692  -0.321  0.00  0.00    -0.037 A 
ATOM     11  C   UNL     1       0.680  -4.834   0.266  0.00  0.00    -0.060 A 
ATOM     12  C   UNL     1       1.925  -4.761   0.913  0.00  0.00    -0.061 A 
ATOM     13  C   UNL     1       2.611  -3.542   0.989  0.00  0.00    -0.052 A 
ATOM     14  C   UNL     1       2.025  -2.419   0.400  0.00  0.00    +0.008 A 
ATOM     15  C   UNL     1       2.452  -1.120   0.327  0.00  0.00    +0.015 A 
ATOM     16  C   UNL     1       3.605  -0.478   0.812  0.00  0.00    -0.008 A 
ATOM     17  C   UNL     1       3.764   0.892   0.615  0.00  0.00    +0.052 A 
ATOM     18  C   UNL     1       2.755   1.625  -0.045  0.00  0.00    +0.022 A 
ATOM     19  C   UNL     1       2.528   2.977  -0.281  0.00  0.00    +0.008 A 
ATOM     20  C   UNL     1       3.251   4.131   0.039  0.00  0.00    -0.052 A 
ATOM     21  C   UNL     1       2.695   5.378  -0.291  0.00  0.00    -0.061 A 
ATOM     22  C   UNL     1       1.433   5.460  -0.910  0.00  0.00    -0.060 A 
ATOM     23  C   UNL     1       0.711   4.295  -1.209  0.00  0.00    -0.037 A 
ATOM     24  C   UNL     1       1.285   3.059  -0.890  0.00  0.00    +0.052 A 
ATOM     25  N   UNL     1       0.741   1.830  -1.059  0.00  0.00    -0.311 N 
ATOM     26  C   UNL     1       1.627   0.963  -0.540  0.00  0.00    +0.077 A 
ATOM     27  C   UNL     1       1.467  -0.425  -0.367  0.00  0.00    +0.077 A 
ATOM     28  C   UNL     1       5.039   1.240   1.214  0.00  0.00    +0.245 C 
ATOM     29  O   UNL     1       5.596   2.365   1.197  0.00  0.00    -0.270 OA
ATOM     30  N   UNL     1       5.637   0.088   1.790  0.00  0.00    -0.307 N 
ATOM     31  C   UNL     1       4.765  -1.061   1.567  0.00  0.00    +0.039 C 
ATOM     32  H   UNL     1       6.500   0.068   2.262  0.00  0.00    +0.000 HD
ENDROOT
BRANCH   2  33
ATOM     33  N   UNL     1      -3.819   0.470   0.251  0.00  0.00    -0.299 N 
ATOM     34  C   UNL     1      -5.188   0.490  -0.285  0.00  0.00    +0.004 C 
ATOM     35  C   UNL     1      -3.634   0.519   1.689  0.00  0.00    +0.213 C 
ATOM     36  C   UNL     1      -4.748   0.936   2.604  0.00  0.00    +0.012 C 
ATOM     37  O   UNL     1      -2.538   0.179   2.208  0.00  0.00    -0.276 OA
ENDBRANCH   2  33
BRANCH   1  39
ATOM     38  C   UNL     1      -3.052  -2.618   0.460  0.00  0.00    +0.037 C 
ATOM     39  O   UNL     1      -2.004  -1.683   0.291  0.00  0.00    -0.373 OA
ENDBRANCH   1  39
TORSDOF 2
