REMARK  Name = 
REMARK  6 active torsions:
REMARK  status: ('A' for Active; 'I' for Inactive)
REMARK    1  A    between atoms: C_1  and  O_2
REMARK    2  A    between atoms: O_2  and  C_3
REMARK    3  A    between atoms: C_4  and  N_5
REMARK    4  A    between atoms: N_5  and  C_6
REMARK    5  A    between atoms: C_7  and  C_9
REMARK    6  A    between atoms: C_19  and  C_20
REMARK                            x       y       z     vdW  Elec       q    Type
REMARK                         _______ _______ _______ _____ _____    ______ ____
ROOT
ATOM      1  C   UNL     1       1.048  -0.844   0.808  0.00  0.00    +0.125 C 
ATOM      2  C   UNL     1       1.927   0.405   0.637  0.00  0.00    +0.061 C 
ATOM      3  C   UNL     1       1.036   1.552   0.154  0.00  0.00    +0.014 C 
ATOM      4  C   UNL     1      -0.112   1.796   1.152  0.00  0.00    +0.140 C 
ATOM      5  O   UNL     1      -0.236   0.838   2.185  0.00  0.00    -0.328 OA
ATOM      6  C   UNL     1      -0.128  -0.537   1.818  0.00  0.00    +0.174 C 
ATOM      7  C   UNL     1       0.165  -1.211   3.186  0.00  0.00    -0.014 C 
ATOM      8  N   UNL     1      -1.429  -1.021   1.278  0.00  0.00    -0.307 N 
ATOM      9  C   UNL     1      -1.912  -2.303   1.215  0.00  0.00    +0.053 A 
ATOM     10  C   UNL     1      -1.256  -3.506   1.524  0.00  0.00    -0.037 A 
ATOM     11  C   UNL     1      -1.946  -4.718   1.359  0.00  0.00    -0.060 A 
ATOM     12  C   UNL     1      -3.262  -4.731   0.862  0.00  0.00    -0.061 A 
ATOM     13  C   UNL     1      -3.892  -3.533   0.498  0.00  0.00    -0.052 A 
ATOM     14  C   UNL     1      -3.189  -2.340   0.678  0.00  0.00    +0.008 A 
ATOM     15  C   UNL     1      -3.500  -1.050   0.325  0.00  0.00    +0.015 A 
ATOM     16  C   UNL     1      -4.602  -0.500  -0.349  0.00  0.00    -0.008 A 
ATOM     17  C   UNL     1      -4.591   0.850  -0.694  0.00  0.00    +0.052 A 
ATOM     18  C   UNL     1      -3.463   1.643  -0.389  0.00  0.00    +0.022 A 
ATOM     19  C   UNL     1      -3.091   2.952  -0.674  0.00  0.00    +0.008 A 
ATOM     20  C   UNL     1      -3.713   3.983  -1.386  0.00  0.00    -0.052 A 
ATOM     21  C   UNL     1      -3.033   5.205  -1.521  0.00  0.00    -0.061 A 
ATOM     22  C   UNL     1      -1.752   5.377  -0.964  0.00  0.00    -0.060 A 
ATOM     23  C   UNL     1      -1.133   4.328  -0.268  0.00  0.00    -0.037 A 
ATOM     24  C   UNL     1      -1.827   3.119  -0.134  0.00  0.00    +0.052 A 
ATOM     25  N   UNL     1      -1.392   1.988   0.474  0.00  0.00    -0.311 N 
ATOM     26  C   UNL     1      -2.383   1.086   0.307  0.00  0.00    +0.077 A 
ATOM     27  C   UNL     1      -2.402  -0.273   0.680  0.00  0.00    +0.077 A 
ATOM     28  C   UNL     1      -5.857   1.103  -1.358  0.00  0.00    +0.245 C 
ATOM     29  O   UNL     1      -6.289   2.212  -1.758  0.00  0.00    -0.270 OA
ATOM     30  N   UNL     1      -6.612  -0.096  -1.442  0.00  0.00    -0.307 N 
ATOM     31  C   UNL     1      -5.857  -1.178  -0.818  0.00  0.00    +0.039 C 
ATOM     32  H   UNL     1      -7.502  -0.184  -1.855  0.00  0.00    +0.000 HD
ENDROOT
BRANCH   2  33
ATOM     33  N   UNL     1       3.084   0.148  -0.251  0.00  0.00    -0.295 N 
ATOM     34  C   UNL     1       3.035   0.464  -1.688  0.00  0.00    +0.004 C 
ATOM     35  C   UNL     1       4.288  -0.410   0.323  0.00  0.00    +0.248 C 
ATOM     36  O   UNL     1       4.220  -1.074   1.395  0.00  0.00    -0.270 OA
BRANCH  35  37
ATOM     37  C   UNL     1       5.617  -0.188  -0.289  0.00  0.00    +0.055 A 
ATOM     38  C   UNL     1       5.997   1.115  -0.654  0.00  0.00    -0.048 A 
ATOM     39  C   UNL     1       7.255   1.356  -1.213  0.00  0.00    -0.061 A 
ATOM     40  C   UNL     1       8.147   0.300  -1.408  0.00  0.00    -0.060 A 
ATOM     41  C   UNL     1       7.783  -0.999  -1.047  0.00  0.00    -0.043 A 
ATOM     42  C   UNL     1       6.525  -1.251  -0.487  0.00  0.00    +0.053 A 
ATOM     43 CL   UNL     1       6.103  -2.917  -0.098  0.00  0.00    -0.083 Cl
ENDBRANCH  35  37
ENDBRANCH   2  33
BRANCH   1  45
ATOM     44  C   UNL     1       1.119  -2.398  -0.948  0.00  0.00    +0.037 C 
ATOM     45  O   UNL     1       0.515  -1.218  -0.460  0.00  0.00    -0.373 OA
ENDBRANCH   1  45
TORSDOF 3
