REMARK  Name = 
REMARK  13 active torsions:
REMARK  status: ('A' for Active; 'I' for Inactive)
REMARK    1  A    between atoms: C_1  and  O_2
REMARK    2  A    between atoms: O_2  and  C_3
REMARK    3  A    between atoms: C_3  and  C_5
REMARK    4  A    between atoms: C_5  and  C_6
REMARK    5  A    between atoms: C_7  and  S_8
REMARK    6  A    between atoms: S_8  and  S_9
REMARK    7  A    between atoms: S_9  and  C_10
REMARK    8  A    between atoms: C_11  and  C_12
REMARK    9  A    between atoms: C_12  and  C_13
REMARK   10  A    between atoms: C_13  and  O_15
REMARK   11  A    between atoms: O_15  and  C_16
REMARK   12  A    between atoms: N_23  and  C_24
REMARK   13  A    between atoms: N_25  and  C_26
REMARK                            x       y       z     vdW  Elec       q    Type
REMARK                         _______ _______ _______ _____ _____    ______ ____
ROOT
ATOM      1  S   UNL     1       0.007   0.584  -0.906  0.00  0.00    -0.032 S 
ENDROOT
BRANCH   1   3
ATOM      2  C   UNL     1      -2.787   1.009  -0.793  0.00  0.00    +0.003 A 
ATOM      3  C   UNL     1      -1.721   0.222  -1.224  0.00  0.00    +0.091 A 
ATOM      4  N   UNL     1      -2.173  -0.858  -1.911  0.00  0.00    -0.337 N 
ATOM      5  C   UNL     1      -1.372  -1.924  -2.503  0.00  0.00    +0.013 C 
ATOM      6  C   UNL     1      -3.521  -0.786  -1.873  0.00  0.00    +0.050 A 
ATOM      7  C   UNL     1      -4.447  -1.692  -2.399  0.00  0.00    -0.038 A 
ATOM      8  C   UNL     1      -5.815  -1.402  -2.246  0.00  0.00    -0.060 A 
ATOM      9  C   UNL     1      -6.228  -0.237  -1.569  0.00  0.00    -0.061 A 
ATOM     10  C   UNL     1      -5.278   0.647  -1.030  0.00  0.00    -0.052 A 
ATOM     11  C   UNL     1      -3.929   0.343  -1.203  0.00  0.00    +0.005 A 
BRANCH   2  12
ATOM     12  C   UNL     1      -2.714   2.281  -0.001  0.00  0.00    +0.073 C 
BRANCH  12  13
ATOM     13  C   UNL     1      -2.545   1.988   1.455  0.00  0.00    +0.311 C 
ATOM     14  O   UNL     1      -3.465   1.401   2.088  0.00  0.00    -0.250 OA
BRANCH  13  16
ATOM     15  C   UNL     1      -1.097   2.057   3.462  0.00  0.00    +0.082 C 
ATOM     16  O   UNL     1      -1.365   2.372   2.102  0.00  0.00    -0.468 OA
ENDBRANCH  13  16
ENDBRANCH  12  13
ENDBRANCH   2  12
ENDBRANCH   1   3
BRANCH   1  17
ATOM     17  S   UNL     1       0.001  -0.486   0.938  0.00  0.00    -0.032 S 
BRANCH  17  18
ATOM     18  C   UNL     1       1.722  -0.975   0.766  0.00  0.00    +0.091 A 
ATOM     19  C   UNL     1       2.803  -0.207   1.197  0.00  0.00    +0.003 A 
ATOM     20  C   UNL     1       3.929  -0.927   0.836  0.00  0.00    +0.005 A 
ATOM     21  C   UNL     1       5.285  -0.635   0.983  0.00  0.00    -0.052 A 
ATOM     22  C   UNL     1       6.214  -1.572   0.505  0.00  0.00    -0.061 A 
ATOM     23  C   UNL     1       5.775  -2.767  -0.103  0.00  0.00    -0.060 A 
ATOM     24  C   UNL     1       4.402  -3.035  -0.242  0.00  0.00    -0.038 A 
ATOM     25  C   UNL     1       3.495  -2.088   0.244  0.00  0.00    +0.050 A 
ATOM     26  N   UNL     1       2.147  -2.136   0.213  0.00  0.00    -0.337 N 
ATOM     27  C   UNL     1       1.320  -3.180  -0.387  0.00  0.00    +0.013 C 
BRANCH  19  28
ATOM     28  C   UNL     1       2.758   1.135   1.871  0.00  0.00    +0.073 C 
BRANCH  28  29
ATOM     29  C   UNL     1       2.525   2.232   0.879  0.00  0.00    +0.311 C 
ATOM     30  O   UNL     1       3.255   2.322  -0.145  0.00  0.00    -0.250 OA
BRANCH  29  31
ATOM     31  O   UNL     1       1.531   3.179   1.135  0.00  0.00    -0.468 OA
ATOM     32  C   UNL     1       1.190   4.200   0.212  0.00  0.00    +0.082 C 
ENDBRANCH  29  31
ENDBRANCH  28  29
ENDBRANCH  19  28
ENDBRANCH  17  18
ENDBRANCH   1  17
TORSDOF 9
