REMARK  Name = 
REMARK  6 active torsions:
REMARK  status: ('A' for Active; 'I' for Inactive)
REMARK    1  A    between atoms: C_2  and  C_4
REMARK    2  A    between atoms: C_4  and  C_5
REMARK    3  A    between atoms: C_5  and  N_6
REMARK    4  A    between atoms: N_6  and  C_7
REMARK    5  A    between atoms: C_13  and  N_14
REMARK    6  A    between atoms: N_14  and  C_15
REMARK                            x       y       z     vdW  Elec       q    Type
REMARK                         _______ _______ _______ _____ _____    ______ ____
ROOT
ATOM      1  C   UNL     1       2.381   1.050  -0.186  0.00  0.00    +0.121 A 
ATOM      2  C   UNL     1       1.692   1.809   0.766  0.00  0.00    +0.004 A 
ATOM      3  C   UNL     1       0.367   1.491   1.073  0.00  0.00    +0.081 A 
ATOM      4  N   UNL     1      -0.315   2.231   1.985  0.00  0.00    -0.235 NA
ATOM      5  C   UNL     1      -1.604   1.944   2.294  0.00  0.00    +0.119 A 
ATOM      6  N   UNL     1      -2.232   0.899   1.697  0.00  0.00    -0.220 NA
ATOM      7  C   UNL     1      -1.605   0.120   0.772  0.00  0.00    +0.135 A 
ATOM      8  C   UNL     1      -0.265   0.405   0.432  0.00  0.00    +0.059 A 
ATOM      9  C   UNL     1       0.459  -0.319  -0.531  0.00  0.00    +0.042 A 
ATOM     10  N   UNL     1       1.747   0.018  -0.809  0.00  0.00    -0.240 NA
ENDROOT
BRANCH   1  11
ATOM     11  N   UNL     1       3.742   1.368  -0.511  0.00  0.00    -0.328 N 
ATOM     12  H   UNL     1       4.159   2.151  -0.082  0.00  0.00    +0.000 HD
BRANCH  11  13
ATOM     13  C   UNL     1       4.538   0.580  -1.453  0.00  0.00    +0.020 C 
BRANCH  13  14
ATOM     14  C   UNL     1       4.964  -0.756  -0.835  0.00  0.00    +0.060 C 
BRANCH  14  16
ATOM     15  O   UNL     1       5.335  -0.541   1.518  0.00  0.00    -0.251 OA
ATOM     16  C   UNL     1       5.838  -0.545   0.362  0.00  0.00    +0.306 C 
ATOM     17  O   UNL     1       7.199  -0.312   0.194  0.00  0.00    -0.481 OA
ENDBRANCH  14  16
ENDBRANCH  13  14
ENDBRANCH  11  13
ENDBRANCH   1  11
BRANCH   7  18
ATOM     18  N   UNL     1      -2.301  -1.005   0.210  0.00  0.00    -0.299 N 
ATOM     19  H   UNL     1      -1.775  -1.793  -0.060  0.00  0.00    +0.000 HD
BRANCH  18  20
ATOM     20  C   UNL     1      -3.727  -1.040   0.021  0.00  0.00    +0.033 A 
ATOM     21  C   UNL     1      -4.397  -2.274   0.041  0.00  0.00    -0.040 A 
ATOM     22  C   UNL     1      -5.779  -2.331  -0.159  0.00  0.00    -0.059 A 
ATOM     23  C   UNL     1      -6.503  -1.160  -0.394  0.00  0.00    -0.048 A 
ATOM     24  C   UNL     1      -5.844   0.073  -0.436  0.00  0.00    +0.020 A 
ATOM     25 BR   UNL     1      -6.831   1.672  -0.778  0.00  0.00    -0.050 Br
ATOM     26  C   UNL     1      -4.460   0.134  -0.236  0.00  0.00    -0.027 A 
ENDBRANCH  18  20
ENDBRANCH   7  18
TORSDOF 6
