REMARK  Name = 
REMARK  7 active torsions:
REMARK  status: ('A' for Active; 'I' for Inactive)
REMARK    1  A    between atoms: C_1  and  O_2
REMARK    2  A    between atoms: O_2  and  C_3
REMARK    3  A    between atoms: C_4  and  N_5
REMARK    4  A    between atoms: N_5  and  C_6
REMARK    5  A    between atoms: C_7  and  C_9
REMARK    6  A    between atoms: C_12  and  C_13
REMARK    7  A    between atoms: C_21  and  C_22
REMARK                            x       y       z     vdW  Elec       q    Type
REMARK                         _______ _______ _______ _____ _____    ______ ____
ROOT
ATOM      1  C   UNL     1       0.447   1.186  -0.483  0.00  0.00    +0.125 C 
ATOM      2  C   UNL     1       1.546   0.166  -0.800  0.00  0.00    +0.061 C 
ATOM      3  C   UNL     1       0.950  -1.238  -0.940  0.00  0.00    +0.014 C 
ATOM      4  C   UNL     1      -0.421  -1.212  -1.661  0.00  0.00    +0.140 C 
ATOM      5  O   UNL     1      -0.663  -0.029  -2.399  0.00  0.00    -0.328 OA
ATOM      6  C   UNL     1      -0.586   1.198  -1.673  0.00  0.00    +0.174 C 
ATOM      7  C   UNL     1      -0.120   2.204  -2.755  0.00  0.00    -0.014 C 
ATOM      8  N   UNL     1      -1.943   1.524  -1.165  0.00  0.00    -0.307 N 
ATOM      9  C   UNL     1      -2.561   2.731  -0.951  0.00  0.00    +0.053 A 
ATOM     10  C   UNL     1      -2.060   4.032  -1.138  0.00  0.00    -0.037 A 
ATOM     11  C   UNL     1      -2.874   5.127  -0.806  0.00  0.00    -0.060 A 
ATOM     12  C   UNL     1      -4.157   4.931  -0.268  0.00  0.00    -0.061 A 
ATOM     13  C   UNL     1      -4.633   3.636  -0.029  0.00  0.00    -0.052 A 
ATOM     14  C   UNL     1      -3.812   2.560  -0.376  0.00  0.00    +0.008 A 
ATOM     15  C   UNL     1      -3.963   1.212  -0.163  0.00  0.00    +0.015 A 
ATOM     16  C   UNL     1      -4.947   0.470   0.512  0.00  0.00    -0.008 A 
ATOM     17  C   UNL     1      -4.750  -0.893   0.726  0.00  0.00    +0.052 A 
ATOM     18  C   UNL     1      -3.559  -1.511   0.285  0.00  0.00    +0.022 A 
ATOM     19  C   UNL     1      -3.032  -2.789   0.404  0.00  0.00    +0.008 A 
ATOM     20  C   UNL     1      -3.483  -3.946   1.050  0.00  0.00    -0.052 A 
ATOM     21  C   UNL     1      -2.694  -5.104   0.968  0.00  0.00    -0.061 A 
ATOM     22  C   UNL     1      -1.475  -5.093   0.263  0.00  0.00    -0.060 A 
ATOM     23  C   UNL     1      -1.025  -3.919  -0.360  0.00  0.00    -0.037 A 
ATOM     24  C   UNL     1      -1.818  -2.768  -0.261  0.00  0.00    +0.052 A 
ATOM     25  N   UNL     1      -1.543  -1.539  -0.769  0.00  0.00    -0.311 N 
ATOM     26  C   UNL     1      -2.607  -0.771  -0.424  0.00  0.00    +0.077 A 
ATOM     27  C   UNL     1      -2.808   0.609  -0.647  0.00  0.00    +0.077 A 
ATOM     28  C   UNL     1      -5.937  -1.366   1.416  0.00  0.00    +0.245 C 
ATOM     29  O   UNL     1      -6.221  -2.558   1.699  0.00  0.00    -0.270 OA
ATOM     30  N   UNL     1      -6.824  -0.284   1.657  0.00  0.00    -0.307 N 
ATOM     31  C   UNL     1      -6.245   0.938   1.106  0.00  0.00    +0.039 C 
ATOM     32  H   UNL     1      -7.690  -0.347   2.120  0.00  0.00    +0.000 HD
ENDROOT
BRANCH   2  33
ATOM     33  N   UNL     1       2.664   0.209   0.172  0.00  0.00    -0.295 N 
ATOM     34  C   UNL     1       2.514  -0.258   1.558  0.00  0.00    +0.004 C 
ATOM     35  C   UNL     1       3.939   0.724  -0.265  0.00  0.00    +0.247 C 
ATOM     36  O   UNL     1       3.978   1.688  -1.076  0.00  0.00    -0.270 OA
BRANCH  35  37
ATOM     37  C   UNL     1       5.210   0.085   0.122  0.00  0.00    +0.037 A 
ATOM     38  C   UNL     1       5.992  -0.529  -0.865  0.00  0.00    -0.049 A 
ATOM     39  C   UNL     1       7.192  -1.163  -0.528  0.00  0.00    -0.047 A 
ATOM     40  C   UNL     1       7.633  -1.186   0.807  0.00  0.00    +0.059 A 
ATOM     41  C   UNL     1       6.867  -0.534   1.788  0.00  0.00    -0.047 A 
ATOM     42  C   UNL     1       5.669   0.104   1.447  0.00  0.00    -0.049 A 
BRANCH  40  43
ATOM     43  C   UNL     1       8.872  -1.906   1.170  0.00  0.00    +0.337 C 
ATOM     44  O   UNL     1       9.212  -2.021   2.379  0.00  0.00    -0.245 OA
ATOM     45  O   UNL     1       9.667  -2.478   0.179  0.00  0.00    -0.477 OA
ENDBRANCH  40  43
ENDBRANCH  35  37
ENDBRANCH   2  33
BRANCH   1  47
ATOM     46  C   UNL     1      -0.243   1.899   1.637  0.00  0.00    +0.037 C 
ATOM     47  O   UNL     1      -0.203   0.820   0.729  0.00  0.00    -0.373 OA
ENDBRANCH   1  47
TORSDOF 4
