REMARK  Name = 
REMARK  8 active torsions:
REMARK  status: ('A' for Active; 'I' for Inactive)
REMARK    1  A    between atoms: C_1  and  O_2
REMARK    2  A    between atoms: O_2  and  C_3
REMARK    3  A    between atoms: C_5  and  N_6
REMARK    4  A    between atoms: N_6  and  C_7
REMARK    5  A    between atoms: C_8  and  C_9
REMARK    6  A    between atoms: C_15  and  C_16
REMARK    7  A    between atoms: C_19  and  C_20
REMARK    8  A    between atoms: C_20  and  N_21
REMARK                            x       y       z     vdW  Elec       q    Type
REMARK                         _______ _______ _______ _____ _____    ______ ____
ROOT
ATOM      1  C   UNL     1       3.528  -1.085   2.001  0.00  0.00    +0.060 A 
ATOM      2  C   UNL     1       3.850  -2.349   2.535  0.00  0.00    +0.091 A 
ATOM      3  C   UNL     1       2.890  -3.366   2.523  0.00  0.00    +0.047 A 
ATOM      4  N   UNL     1       1.655  -3.137   2.009  0.00  0.00    -0.254 NA
ATOM      5  C   UNL     1       1.303  -1.931   1.492  0.00  0.00    +0.073 A 
ATOM      6  C   UNL     1       0.017  -1.750   0.972  0.00  0.00    -0.028 A 
ATOM      7  C   UNL     1      -0.364  -0.515   0.419  0.00  0.00    -0.016 A 
ATOM      8  C   UNL     1       0.568   0.536   0.394  0.00  0.00    -0.053 A 
ATOM      9  C   UNL     1       1.854   0.363   0.913  0.00  0.00    -0.050 A 
ATOM     10  C   UNL     1       2.235  -0.868   1.475  0.00  0.00    +0.023 A 
ENDROOT
BRANCH   7  11
ATOM     11  C   UNL     1      -1.730  -0.326  -0.132  0.00  0.00    -0.018 A 
ATOM     12  C   UNL     1      -1.926   0.389  -1.327  0.00  0.00    -0.054 A 
ATOM     13  C   UNL     1      -3.212   0.571  -1.842  0.00  0.00    -0.057 A 
ATOM     14  C   UNL     1      -4.325   0.040  -1.175  0.00  0.00    -0.033 A 
ATOM     15  C   UNL     1      -4.136  -0.671   0.020  0.00  0.00    -0.057 A 
ATOM     16  C   UNL     1      -2.850  -0.854   0.536  0.00  0.00    -0.054 A 
BRANCH  14  17
ATOM     17  C   UNL     1      -5.710   0.265  -1.724  0.00  0.00    +0.024 C 
BRANCH  17  18
ATOM     18  N   UNL     1      -6.088   1.688  -1.606  0.00  0.00    -0.294 N 
ATOM     19  C   UNL     1      -6.436   2.037  -0.215  0.00  0.00    +0.023 C 
ATOM     20  C   UNL     1      -6.810   3.532  -0.120  0.00  0.00    +0.060 C 
ATOM     21  O   UNL     1      -6.917   4.143  -1.394  0.00  0.00    -0.377 OA
ATOM     22  C   UNL     1      -7.797   3.395  -2.209  0.00  0.00    +0.060 C 
ATOM     23  C   UNL     1      -7.224   1.993  -2.499  0.00  0.00    +0.023 C 
ATOM     24  H   UNL     1      -5.282   2.247  -1.884  0.00  0.00    +0.000 HD
ENDBRANCH  17  18
ENDBRANCH  14  17
ENDBRANCH   7  11
BRANCH   1  25
ATOM     25  N   UNL     1       4.495  -0.019   2.021  0.00  0.00    -0.312 N 
ATOM     26  H   UNL     1       4.278   0.800   2.523  0.00  0.00    +0.000 HD
BRANCH  25  29
ATOM     27  C   UNL     1       7.189  -1.060  -0.399  0.00  0.00    +0.140 A 
ATOM     28  C   UNL     1       5.955  -0.990   0.275  0.00  0.00    +0.004 A 
ATOM     29  C   UNL     1       5.764  -0.091   1.342  0.00  0.00    +0.053 A 
ATOM     30  C   UNL     1       6.825   0.755   1.721  0.00  0.00    +0.064 A 
ATOM     31 CL   UNL     1       6.667   1.889   3.058  0.00  0.00    -0.082 Cl
ATOM     32  C   UNL     1       8.049   0.687   1.050  0.00  0.00    -0.020 A 
ATOM     33  C   UNL     1       8.233  -0.214  -0.002  0.00  0.00    +0.084 A 
ATOM     34 CL   UNL     1       9.788  -0.274  -0.818  0.00  0.00    -0.080 Cl
BRANCH  27  36
ATOM     35  C   UNL     1       6.441  -2.870  -1.959  0.00  0.00    +0.079 C 
ATOM     36  O   UNL     1       7.409  -1.952  -1.461  0.00  0.00    -0.494 OA
ENDBRANCH  27  36
ENDBRANCH  25  29
ENDBRANCH   1  25
BRANCH   2  37
ATOM     37  C   UNL     1       5.139  -2.609   3.127  0.00  0.00    +0.103 C 
ATOM     38  N   UNL     1       6.175  -2.817   3.601  0.00  0.00    -0.191 NA
ENDBRANCH   2  37
TORSDOF 7
