REMARK  Name = 
REMARK  6 active torsions:
REMARK  status: ('A' for Active; 'I' for Inactive)
REMARK    1  A    between atoms: C_1  and  O_2
REMARK    2  A    between atoms: O_2  and  C_3
REMARK    3  A    between atoms: C_4  and  N_5
REMARK    4  A    between atoms: N_5  and  C_6
REMARK    5  A    between atoms: C_7  and  C_9
REMARK    6  A    between atoms: C_19  and  C_20
REMARK                            x       y       z     vdW  Elec       q    Type
REMARK                         _______ _______ _______ _____ _____    ______ ____
ROOT
ATOM      1  C   UNL     1       1.569   0.894   0.071  0.00  0.00    +0.125 C 
ATOM      2  C   UNL     1       2.039  -0.583   0.088  0.00  0.00    +0.061 C 
ATOM      3  C   UNL     1       0.827  -1.500   0.012  0.00  0.00    +0.014 C 
ATOM      4  C   UNL     1       0.118  -1.273  -1.331  0.00  0.00    +0.140 C 
ATOM      5  O   UNL     1       0.267   0.026  -1.879  0.00  0.00    -0.328 OA
ATOM      6  C   UNL     1       0.366   1.103  -0.948  0.00  0.00    +0.174 C 
ATOM      7  C   UNL     1       0.678   2.312  -1.867  0.00  0.00    -0.014 C 
ATOM      8  N   UNL     1      -0.946   1.341  -0.255  0.00  0.00    -0.307 N 
ATOM      9  C   UNL     1      -1.361   2.476   0.402  0.00  0.00    +0.053 A 
ATOM     10  C   UNL     1      -0.618   3.622   0.736  0.00  0.00    -0.037 A 
ATOM     11  C   UNL     1      -1.254   4.674   1.415  0.00  0.00    -0.060 A 
ATOM     12  C   UNL     1      -2.612   4.584   1.762  0.00  0.00    -0.061 A 
ATOM     13  C   UNL     1      -3.349   3.438   1.441  0.00  0.00    -0.052 A 
ATOM     14  C   UNL     1      -2.696   2.403   0.767  0.00  0.00    +0.008 A 
ATOM     15  C   UNL     1      -3.149   1.180   0.348  0.00  0.00    +0.015 A 
ATOM     16  C   UNL     1      -4.402   0.553   0.453  0.00  0.00    -0.008 A 
ATOM     17  C   UNL     1      -4.567  -0.740  -0.039  0.00  0.00    +0.052 A 
ATOM     18  C   UNL     1      -3.470  -1.415  -0.613  0.00  0.00    +0.022 A 
ATOM     19  C   UNL     1      -3.251  -2.714  -1.061  0.00  0.00    +0.008 A 
ATOM     20  C   UNL     1      -4.069  -3.847  -1.127  0.00  0.00    -0.052 A 
ATOM     21  C   UNL     1      -3.505  -5.051  -1.579  0.00  0.00    -0.061 A 
ATOM     22  C   UNL     1      -2.145  -5.116  -1.935  0.00  0.00    -0.060 A 
ATOM     23  C   UNL     1      -1.331  -3.977  -1.846  0.00  0.00    -0.037 A 
ATOM     24  C   UNL     1      -1.911  -2.779  -1.412  0.00  0.00    +0.052 A 
ATOM     25  N   UNL     1      -1.296  -1.588  -1.220  0.00  0.00    -0.311 N 
ATOM     26  C   UNL     1      -2.237  -0.765  -0.728  0.00  0.00    +0.077 A 
ATOM     27  C   UNL     1      -2.066   0.550  -0.255  0.00  0.00    +0.077 A 
ATOM     28  C   UNL     1      -5.954  -1.091   0.208  0.00  0.00    +0.245 C 
ATOM     29  O   UNL     1      -6.538  -2.145  -0.145  0.00  0.00    -0.270 OA
ATOM     30  N   UNL     1      -6.616  -0.022   0.869  0.00  0.00    -0.307 N 
ATOM     31  C   UNL     1      -5.673   1.075   1.060  0.00  0.00    +0.039 C 
ATOM     32  H   UNL     1      -7.559  -0.022   1.151  0.00  0.00    +0.000 HD
ENDROOT
BRANCH   2  33
ATOM     33  N   UNL     1       2.915  -0.931   1.234  0.00  0.00    -0.295 N 
ATOM     34  C   UNL     1       2.365  -1.174   2.576  0.00  0.00    +0.004 C 
ATOM     35  C   UNL     1       4.287  -1.327   1.001  0.00  0.00    +0.247 C 
ATOM     36  O   UNL     1       4.814  -2.211   1.732  0.00  0.00    -0.270 OA
BRANCH  35  37
ATOM     37  C   UNL     1       5.096  -0.742  -0.087  0.00  0.00    +0.037 A 
ATOM     38  C   UNL     1       5.828  -1.578  -0.944  0.00  0.00    -0.048 A 
ATOM     39  C   UNL     1       6.589  -1.032  -1.982  0.00  0.00    -0.043 A 
ATOM     40  C   UNL     1       6.634   0.354  -2.164  0.00  0.00    +0.041 A 
ATOM     41 CL   UNL     1       7.588   1.039  -3.467  0.00  0.00    -0.084 Cl
ATOM     42  C   UNL     1       5.925   1.194  -1.300  0.00  0.00    -0.043 A 
ATOM     43  C   UNL     1       5.163   0.649  -0.261  0.00  0.00    -0.048 A 
ENDBRANCH  35  37
ENDBRANCH   2  33
BRANCH   1  45
ATOM     44  C   UNL     1       2.172   2.115   1.983  0.00  0.00    +0.037 C 
ATOM     45  O   UNL     1       1.181   1.309   1.375  0.00  0.00    -0.373 OA
ENDBRANCH   1  45
TORSDOF 3
