REMARK  Name = 
REMARK  9 active torsions:
REMARK  status: ('A' for Active; 'I' for Inactive)
REMARK    1  A    between atoms: C_1  and  N_2
REMARK    2  A    between atoms: C_3  and  S_4
REMARK    3  A    between atoms: S_4  and  S_5
REMARK    4  A    between atoms: S_5  and  C_6
REMARK    5  A    between atoms: C_7  and  C_8
REMARK    6  A    between atoms: C_8  and  C_9
REMARK    7  A    between atoms: N_18  and  C_19
REMARK    8  A    between atoms: C_20  and  C_21
REMARK    9  A    between atoms: C_21  and  C_22
REMARK                            x       y       z     vdW  Elec       q    Type
REMARK                         _______ _______ _______ _____ _____    ______ ____
ROOT
ATOM      1  S   UNL     1       0.734   2.446  -1.433  0.00  0.00    -0.032 S 
ENDROOT
BRANCH   1   4
ATOM      2  C   UNL     1       0.532  -0.809  -1.789  0.00  0.00    +0.013 C 
ATOM      3  N   UNL     1       1.347  -0.196  -0.740  0.00  0.00    -0.337 N 
ATOM      4  C   UNL     1       1.545   1.130  -0.515  0.00  0.00    +0.091 A 
ATOM      5  C   UNL     1       2.481   1.320   0.503  0.00  0.00    +0.003 A 
ATOM      6  C   UNL     1       2.861   0.050   0.896  0.00  0.00    +0.005 A 
ATOM      7  C   UNL     1       3.779  -0.372   1.859  0.00  0.00    -0.052 A 
ATOM      8  C   UNL     1       3.962  -1.756   2.031  0.00  0.00    -0.061 A 
ATOM      9  C   UNL     1       3.240  -2.676   1.242  0.00  0.00    -0.060 A 
ATOM     10  C   UNL     1       2.327  -2.223   0.272  0.00  0.00    -0.038 A 
ATOM     11  C   UNL     1       2.157  -0.844   0.124  0.00  0.00    +0.050 A 
BRANCH   5  12
ATOM     12  C   UNL     1       3.032   2.624   0.999  0.00  0.00    +0.073 C 
BRANCH  12  13
ATOM     13  C   UNL     1       4.231   3.013   0.197  0.00  0.00    +0.309 C 
ATOM     14  O   UNL     1       4.094   3.711  -0.844  0.00  0.00    -0.251 OA
ATOM     15  O   UNL     1       5.494   2.569   0.577  0.00  0.00    -0.480 OA
ENDBRANCH  12  13
ENDBRANCH   5  12
ENDBRANCH   1   4
BRANCH   1  16
ATOM     16  S   UNL     1      -0.645   2.890   0.138  0.00  0.00    -0.032 S 
BRANCH  16  17
ATOM     17  C   UNL     1      -1.759   1.552  -0.307  0.00  0.00    +0.091 A 
ATOM     18  C   UNL     1      -1.824   0.320   0.341  0.00  0.00    +0.003 A 
ATOM     19  C   UNL     1      -2.758  -0.416  -0.364  0.00  0.00    +0.005 A 
ATOM     20  C   UNL     1      -3.207  -1.725  -0.187  0.00  0.00    -0.052 A 
ATOM     21  C   UNL     1      -4.155  -2.221  -1.097  0.00  0.00    -0.061 A 
ATOM     22  C   UNL     1      -4.626  -1.412  -2.153  0.00  0.00    -0.060 A 
ATOM     23  C   UNL     1      -4.154  -0.098  -2.310  0.00  0.00    -0.038 A 
ATOM     24  C   UNL     1      -3.216   0.379  -1.387  0.00  0.00    +0.050 A 
ATOM     25  N   UNL     1      -2.629   1.592  -1.349  0.00  0.00    -0.337 N 
ATOM     26  C   UNL     1      -2.791   2.678  -2.316  0.00  0.00    +0.013 C 
BRANCH  18  27
ATOM     27  C   UNL     1      -1.082  -0.110   1.577  0.00  0.00    +0.073 C 
BRANCH  27  28
ATOM     28  C   UNL     1      -2.001  -0.170   2.755  0.00  0.00    +0.309 C 
ATOM     29  O   UNL     1      -2.760   0.805   3.019  0.00  0.00    -0.251 OA
ATOM     30  O   UNL     1      -1.996  -1.294   3.577  0.00  0.00    -0.480 OA
ENDBRANCH  27  28
ENDBRANCH  18  27
ENDBRANCH  16  17
ENDBRANCH   1  16
TORSDOF 7
