REMARK  Name = 
REMARK  8 active torsions:
REMARK  status: ('A' for Active; 'I' for Inactive)
REMARK    1  A    between atoms: C_1  and  O_2
REMARK    2  A    between atoms: O_2  and  C_3
REMARK    3  A    between atoms: C_6  and  N_7
REMARK    4  A    between atoms: N_7  and  C_8
REMARK    5  A    between atoms: C_21  and  O_22
REMARK    6  A    between atoms: O_22  and  C_23
REMARK    7  A    between atoms: C_23  and  C_24
REMARK    8  A    between atoms: N_28  and  C_29
REMARK                            x       y       z     vdW  Elec       q    Type
REMARK                         _______ _______ _______ _____ _____    ______ ____
ROOT
ATOM      1  C   UNL     1       0.151  -0.354   1.484  0.00  0.00    +0.162 A 
ATOM      2  C   UNL     1       1.521  -0.163   1.216  0.00  0.00    -0.004 A 
ATOM      3  C   UNL     1       1.953   0.936   0.452  0.00  0.00    +0.044 A 
ATOM      4  C   UNL     1       3.313   1.176   0.151  0.00  0.00    +0.134 A 
ATOM      5  N   UNL     1       3.642   2.245  -0.624  0.00  0.00    -0.220 NA
ATOM      6  C   UNL     1       2.699   3.086  -1.118  0.00  0.00    +0.119 A 
ATOM      7  N   UNL     1       1.390   2.881  -0.834  0.00  0.00    -0.235 NA
ATOM      8  C   UNL     1       0.995   1.833  -0.066  0.00  0.00    +0.080 A 
ATOM      9  C   UNL     1      -0.363   1.645   0.202  0.00  0.00    +0.010 A 
ATOM     10  C   UNL     1      -0.793   0.552   0.977  0.00  0.00    +0.164 A 
ENDROOT
BRANCH   1  12
ATOM     11  C   UNL     1       0.517  -2.441   2.821  0.00  0.00    +0.079 C 
ATOM     12  O   UNL     1      -0.315  -1.437   2.247  0.00  0.00    -0.491 OA
ENDBRANCH   1  12
BRANCH   4  13
ATOM     13  N   UNL     1       4.361   0.352   0.691  0.00  0.00    -0.297 N 
ATOM     14  H   UNL     1       4.220  -0.068   1.570  0.00  0.00    +0.000 HD
BRANCH  13  15
ATOM     15  C   UNL     1       5.606   0.113   0.009  0.00  0.00    +0.068 A 
ATOM     16  C   UNL     1       5.670   0.089  -1.397  0.00  0.00    -0.037 A 
ATOM     17  C   UNL     1       6.881  -0.167  -2.045  0.00  0.00    -0.046 A 
ATOM     18  C   UNL     1       8.038  -0.411  -1.300  0.00  0.00    +0.021 A 
ATOM     19 BR   UNL     1       9.692  -0.762  -2.188  0.00  0.00    -0.050 Br
ATOM     20  C   UNL     1       7.981  -0.406   0.097  0.00  0.00    -0.011 A 
ATOM     21  C   UNL     1       6.771  -0.151   0.751  0.00  0.00    +0.145 A 
ATOM     22  F   UNL     1       6.739  -0.147   2.107  0.00  0.00    -0.204 F 
ENDBRANCH  13  15
ENDBRANCH   4  13
BRANCH  10  23
ATOM     23  O   UNL     1      -2.149   0.325   1.273  0.00  0.00    -0.488 OA
BRANCH  23  24
ATOM     24  C   UNL     1      -3.257   1.029   0.708  0.00  0.00    +0.094 C 
BRANCH  24  25
ATOM     25  C   UNL     1      -3.501   0.611  -0.760  0.00  0.00    +0.006 C 
ATOM     26  C   UNL     1      -4.673   1.413  -1.386  0.00  0.00    -0.045 C 
ATOM     27  C   UNL     1      -5.911   0.549  -1.670  0.00  0.00    -0.040 C 
ATOM     28  C   UNL     1      -6.165  -0.443  -0.527  0.00  0.00    -0.001 C 
ATOM     29  N   UNL     1      -4.999  -1.318  -0.225  0.00  0.00    -0.305 N 
ATOM     30  C   UNL     1      -5.292  -2.727  -0.527  0.00  0.00    -0.013 C 
ATOM     31  C   UNL     1      -3.737  -0.908  -0.882  0.00  0.00    +0.005 C 
ATOM     32  H   UNL     1      -4.846  -1.207   0.777  0.00  0.00    +0.000 HD
ENDBRANCH  24  25
ENDBRANCH  23  24
ENDBRANCH  10  23
TORSDOF 6
