REMARK  Name = 
REMARK  3 active torsions:
REMARK  status: ('A' for Active; 'I' for Inactive)
REMARK    1  A    between atoms: C_1  and  N_2
REMARK    2  A    between atoms: C_5  and  C_6
REMARK    3  A    between atoms: N_8  and  C_9
REMARK                            x       y       z     vdW  Elec       q    Type
REMARK                         _______ _______ _______ _____ _____    ______ ____
ROOT
ATOM      1  C   UNL     1      -3.514   2.332  -1.547  0.00  0.00    +0.006 C 
ATOM      2  N   UNL     1      -2.764   1.641  -0.502  0.00  0.00    -0.300 N 
ATOM      3  C   UNL     1      -1.446   1.975  -0.053  0.00  0.00    +0.072 C 
ATOM      4  S   UNL     1      -0.803   3.479  -0.167  0.00  0.00    -0.039 S 
ATOM      5  C   UNL     1      -0.805   0.854   0.720  0.00  0.00    +0.108 C 
ATOM      6  C   UNL     1      -1.876  -0.189   0.616  0.00  0.00    -0.008 A 
ATOM      7  C   UNL     1      -1.866  -1.489   1.124  0.00  0.00    -0.056 A 
ATOM      8  C   UNL     1      -2.979  -2.311   0.888  0.00  0.00    -0.061 A 
ATOM      9  C   UNL     1      -4.079  -1.824   0.154  0.00  0.00    -0.060 A 
ATOM     10  C   UNL     1      -4.074  -0.512  -0.345  0.00  0.00    -0.040 A 
ATOM     11  C   UNL     1      -2.957   0.292  -0.095  0.00  0.00    +0.038 A 
ENDROOT
BRANCH   5  12
ATOM     12  C   UNL     1       0.476   0.404   0.071  0.00  0.00    +0.231 C 
ATOM     13  O   UNL     1       0.449  -0.095  -1.088  0.00  0.00    -0.274 OA
ATOM     14  N   UNL     1       1.727   0.610   0.745  0.00  0.00    -0.285 N 
ATOM     15  H   UNL     1       1.735   1.198   1.535  0.00  0.00    +0.000 HD
BRANCH  14  16
ATOM     16  C   UNL     1       2.968   0.011   0.337  0.00  0.00    +0.033 A 
ATOM     17  C   UNL     1       4.171   0.700   0.556  0.00  0.00    -0.040 A 
ATOM     18  C   UNL     1       5.392   0.128   0.187  0.00  0.00    -0.060 A 
ATOM     19  C   UNL     1       5.424  -1.144  -0.390  0.00  0.00    -0.062 A 
ATOM     20  C   UNL     1       4.234  -1.849  -0.592  0.00  0.00    -0.060 A 
ATOM     21  C   UNL     1       3.011  -1.279  -0.225  0.00  0.00    -0.040 A 
ENDBRANCH  14  16
ENDBRANCH   5  12
TORSDOF 2
