REMARK  Name = 
REMARK  7 active torsions:
REMARK  status: ('A' for Active; 'I' for Inactive)
REMARK    1  A    between atoms: C_1  and  C_2
REMARK    2  A    between atoms: C_2  and  O_3
REMARK    3  A    between atoms: O_3  and  C_4
REMARK    4  A    between atoms: C_4  and  C_6
REMARK    5  A    between atoms: C_7  and  C_8
REMARK    6  A    between atoms: N_10  and  C_11
REMARK    7  A    between atoms: N_19  and  C_20
REMARK                            x       y       z     vdW  Elec       q    Type
REMARK                         _______ _______ _______ _____ _____    ______ ____
ROOT
ATOM      1  C   UNL     1       0.282  -1.382  -0.344  0.00  0.00    +0.034 A 
ATOM      2  C   UNL     1       0.391  -2.425  -1.282  0.00  0.00    -0.038 A 
ATOM      3  C   UNL     1      -0.754  -3.004  -1.832  0.00  0.00    -0.034 A 
ATOM      4  C   UNL     1      -2.022  -2.549  -1.459  0.00  0.00    +0.076 A 
ATOM      5  N   UNL     1      -3.128  -3.104  -2.016  0.00  0.00    -0.235 NA
ATOM      6  C   UNL     1      -4.370  -2.674  -1.682  0.00  0.00    +0.119 A 
ATOM      7  N   UNL     1      -4.524  -1.679  -0.773  0.00  0.00    -0.220 NA
ATOM      8  C   UNL     1      -3.456  -1.078  -0.180  0.00  0.00    +0.134 A 
ATOM      9  N   UNL     1      -3.682  -0.068   0.818  0.00  0.00    -0.299 N 
ATOM     10  C   UNL     1      -2.152  -1.504  -0.517  0.00  0.00    +0.042 A 
ATOM     11  C   UNL     1      -0.991  -0.914   0.019  0.00  0.00    -0.028 A 
ATOM     12  H   UNL     1      -3.033   0.016   1.554  0.00  0.00    +0.000 HD
ENDROOT
BRANCH   9  13
ATOM     13  C   UNL     1      -4.809   0.826   0.797  0.00  0.00    +0.033 A 
ATOM     14  C   UNL     1      -5.402   1.227  -0.415  0.00  0.00    -0.040 A 
ATOM     15  C   UNL     1      -6.481   2.115  -0.413  0.00  0.00    -0.059 A 
ATOM     16  C   UNL     1      -6.972   2.619   0.794  0.00  0.00    -0.048 A 
ATOM     17  C   UNL     1      -6.378   2.242   2.002  0.00  0.00    +0.020 A 
ATOM     18 BR   UNL     1      -7.040   2.942   3.651  0.00  0.00    -0.050 Br
ATOM     19  C   UNL     1      -5.296   1.354   2.003  0.00  0.00    -0.027 A 
ENDBRANCH   9  13
BRANCH   1  22
ATOM     20  C   UNL     1       2.703  -1.420   0.411  0.00  0.00    +0.241 C 
ATOM     21  O   UNL     1       2.726  -2.673   0.547  0.00  0.00    -0.270 OA
ATOM     22  N   UNL     1       1.451  -0.744   0.201  0.00  0.00    -0.282 N 
ATOM     23  H   UNL     1       1.390   0.208   0.445  0.00  0.00    +0.000 HD
BRANCH  20  25
ATOM     24  C   UNL     1       4.103   0.603   0.160  0.00  0.00    +0.027 C 
ATOM     25  C   UNL     1       3.971  -0.676   0.531  0.00  0.00    +0.007 C 
BRANCH  24  26
ATOM     26  C   UNL     1       5.384   1.318   0.272  0.00  0.00    +0.332 C 
ATOM     27  O   UNL     1       5.450   2.519  -0.105  0.00  0.00    -0.246 OA
BRANCH  26  28
ATOM     28  O   UNL     1       6.512   0.676   0.799  0.00  0.00    -0.462 OA
BRANCH  28  30
ATOM     29  C   UNL     1       8.459   1.298  -0.507  0.00  0.00    -0.031 C 
ATOM     30  C   UNL     1       7.801   1.281   0.867  0.00  0.00    +0.090 C 
ENDBRANCH  28  30
ENDBRANCH  26  28
ENDBRANCH  24  26
ENDBRANCH  20  25
ENDBRANCH   1  22
TORSDOF 6
