REMARK  Name = 
REMARK  6 active torsions:
REMARK  status: ('A' for Active; 'I' for Inactive)
REMARK    1  A    between atoms: C_1  and  O_2
REMARK    2  A    between atoms: O_2  and  C_3
REMARK    3  A    between atoms: C_5  and  C_6
REMARK    4  A    between atoms: C_7  and  C_8
REMARK    5  A    between atoms: C_7  and  C_10
REMARK    6  A    between atoms: C_15  and  O_16
REMARK                            x       y       z     vdW  Elec       q    Type
REMARK                         _______ _______ _______ _____ _____    ______ ____
ROOT
ATOM      1  C   UNL     1      -1.718  -0.843   0.385  0.00  0.00    +0.162 A 
ATOM      2  C   UNL     1      -0.573  -0.326  -0.254  0.00  0.00    -0.009 A 
ATOM      3  C   UNL     1       0.705  -0.525   0.299  0.00  0.00    -0.020 A 
ATOM      4  C   UNL     1       0.835  -1.290   1.466  0.00  0.00    -0.051 A 
ATOM      5  C   UNL     1      -0.295  -1.806   2.101  0.00  0.00    -0.016 A 
ATOM      6  C   UNL     1      -1.571  -1.581   1.567  0.00  0.00    +0.158 A 
ENDROOT
BRANCH   1   8
ATOM      7  C   UNL     1      -3.309   0.089  -1.307  0.00  0.00    +0.079 C 
ATOM      8  O   UNL     1      -3.011  -0.648  -0.126  0.00  0.00    -0.491 OA
ENDBRANCH   1   8
BRANCH   3   9
ATOM      9  C   UNL     1       1.928  -0.017  -0.367  0.00  0.00    -0.030 C 
ATOM     10  C   UNL     1       2.077   1.233  -0.852  0.00  0.00    +0.136 C 
BRANCH  10  11
ATOM     11  C   UNL     1       3.338   1.645  -1.508  0.00  0.00    +0.347 C 
ATOM     12  O   UNL     1       4.280   0.824  -1.671  0.00  0.00    -0.244 OA
ATOM     13  O   UNL     1       3.490   2.955  -1.956  0.00  0.00    -0.477 OA
ENDBRANCH  10  11
BRANCH  10  14
ATOM     14  C   UNL     1       1.045   2.232  -0.690  0.00  0.00    +0.106 C 
ATOM     15  N   UNL     1       0.220   3.034  -0.560  0.00  0.00    -0.191 NA
ENDBRANCH  10  14
ENDBRANCH   3   9
BRANCH   6  16
ATOM     16  O   UNL     1      -2.699  -2.093   2.205  0.00  0.00    -0.503 OA
ATOM     17  H   UNL     1      -2.607  -2.587   2.996  0.00  0.00    +0.000 HD
ENDBRANCH   6  16
TORSDOF 5
