REMARK  Name = 
REMARK  4 active torsions:
REMARK  status: ('A' for Active; 'I' for Inactive)
REMARK    1  A    between atoms: C_8  and  N_9
REMARK    2  A    between atoms: N_9  and  C_10
REMARK    3  A    between atoms: C_17  and  N_18
REMARK    4  A    between atoms: N_18  and  C_19
REMARK                            x       y       z     vdW  Elec       q    Type
REMARK                         _______ _______ _______ _____ _____    ______ ____
ROOT
ATOM      1  O   UNL     1       2.279   4.259  -1.473  0.00  0.00    -0.270 OA
ATOM      2  C   UNL     1       1.135   3.945  -1.052  0.00  0.00    +0.251 C 
ATOM      3  N   UNL     1       0.076   4.879  -0.850  0.00  0.00    -0.248 N 
ATOM      4  C   UNL     1      -1.010   4.086  -0.375  0.00  0.00    +0.251 C 
ATOM      5  O   UNL     1      -2.143   4.549  -0.077  0.00  0.00    -0.270 OA
ATOM      6  C   UNL     1      -0.613   2.685  -0.290  0.00  0.00    +0.051 A 
ATOM      7  C   UNL     1      -1.327   1.561   0.110  0.00  0.00    -0.026 A 
ATOM      8  C   UNL     1      -0.679   0.304   0.081  0.00  0.00    +0.054 A 
ATOM      9  C   UNL     1       0.687   0.220  -0.317  0.00  0.00    +0.054 A 
ATOM     10  C   UNL     1       1.373   1.385  -0.731  0.00  0.00    -0.026 A 
ATOM     11  C   UNL     1       0.695   2.599  -0.701  0.00  0.00    +0.051 A 
ATOM     12  H   UNL     1       0.091   5.851  -1.005  0.00  0.00    +0.000 HD
ENDROOT
BRANCH   8  13
ATOM     13  N   UNL     1      -1.370  -0.873   0.533  0.00  0.00    -0.313 N 
ATOM     14  H   UNL     1      -0.863  -1.534   1.056  0.00  0.00    +0.000 HD
BRANCH  13  15
ATOM     15  C   UNL     1      -2.758  -1.145   0.267  0.00  0.00    +0.032 A 
ATOM     16  C   UNL     1      -3.395  -0.645  -0.884  0.00  0.00    -0.038 A 
ATOM     17  C   UNL     1      -4.739  -0.942  -1.132  0.00  0.00    -0.025 A 
ATOM     18  C   UNL     1      -5.453  -1.750  -0.243  0.00  0.00    +0.124 A 
ATOM     19  F   UNL     1      -6.755  -2.039  -0.486  0.00  0.00    -0.205 F 
ATOM     20  C   UNL     1      -4.822  -2.268   0.891  0.00  0.00    -0.025 A 
ATOM     21  C   UNL     1      -3.479  -1.973   1.142  0.00  0.00    -0.038 A 
ENDBRANCH  13  15
ENDBRANCH   8  13
BRANCH   9  22
ATOM     22  N   UNL     1       1.340  -1.060  -0.379  0.00  0.00    -0.313 N 
ATOM     23  H   UNL     1       0.810  -1.835  -0.675  0.00  0.00    +0.000 HD
BRANCH  22  24
ATOM     24  C   UNL     1       2.720  -1.278  -0.036  0.00  0.00    +0.032 A 
ATOM     25  C   UNL     1       3.411  -2.357  -0.609  0.00  0.00    -0.038 A 
ATOM     26  C   UNL     1       4.747  -2.601  -0.272  0.00  0.00    -0.025 A 
ATOM     27  C   UNL     1       5.399  -1.777   0.649  0.00  0.00    +0.124 A 
ATOM     28  F   UNL     1       6.692  -2.016   0.976  0.00  0.00    -0.205 F 
ATOM     29  C   UNL     1       4.713  -0.713   1.241  0.00  0.00    -0.025 A 
ATOM     30  C   UNL     1       3.378  -0.466   0.907  0.00  0.00    -0.038 A 
ENDBRANCH  22  24
ENDBRANCH   9  22
TORSDOF 4
