REMARK  Name = 
REMARK  7 active torsions:
REMARK  status: ('A' for Active; 'I' for Inactive)
REMARK    1  A    between atoms: C_1  and  O_2
REMARK    2  A    between atoms: O_2  and  C_3
REMARK    3  A    between atoms: C_4  and  N_5
REMARK    4  A    between atoms: N_5  and  C_6
REMARK    5  A    between atoms: N_5  and  S_7
REMARK    6  A    between atoms: S_7  and  C_8
REMARK    7  A    between atoms: C_14  and  C_15
REMARK                            x       y       z     vdW  Elec       q    Type
REMARK                         _______ _______ _______ _____ _____    ______ ____
ROOT
ATOM      1  C   UNL     1      -2.274   1.204   0.906  0.00  0.00    +0.123 C 
ATOM      2  C   UNL     1      -2.808  -0.242   0.717  0.00  0.00    +0.066 C 
ATOM      3  C   UNL     1      -1.667  -1.249   0.606  0.00  0.00    +0.013 C 
ATOM      4  C   UNL     1      -0.760  -1.149   1.845  0.00  0.00    +0.140 C 
ATOM      5  O   UNL     1      -0.658   0.140   2.423  0.00  0.00    -0.328 OA
ATOM      6  C   UNL     1      -0.823   1.240   1.534  0.00  0.00    +0.174 C 
ATOM      7  C   UNL     1      -0.707   2.467   2.471  0.00  0.00    -0.014 C 
ATOM      8  N   UNL     1       0.279   1.304   0.509  0.00  0.00    -0.307 N 
ATOM      9  C   UNL     1       0.650   2.380  -0.268  0.00  0.00    +0.053 A 
ATOM     10  C   UNL     1       0.006   3.622  -0.429  0.00  0.00    -0.037 A 
ATOM     11  C   UNL     1       0.587   4.592  -1.263  0.00  0.00    -0.060 A 
ATOM     12  C   UNL     1       1.798   4.335  -1.925  0.00  0.00    -0.061 A 
ATOM     13  C   UNL     1       2.444   3.105  -1.761  0.00  0.00    -0.052 A 
ATOM     14  C   UNL     1       1.849   2.152  -0.930  0.00  0.00    +0.008 A 
ATOM     15  C   UNL     1       2.264   0.900  -0.569  0.00  0.00    +0.015 A 
ATOM     16  C   UNL     1       3.412   0.154  -0.899  0.00  0.00    -0.008 A 
ATOM     17  C   UNL     1       3.577  -1.123  -0.365  0.00  0.00    +0.052 A 
ATOM     18  C   UNL     1       2.581  -1.666   0.472  0.00  0.00    +0.022 A 
ATOM     19  C   UNL     1       2.351  -2.921   1.027  0.00  0.00    +0.008 A 
ATOM     20  C   UNL     1       3.063  -4.123   0.982  0.00  0.00    -0.052 A 
ATOM     21  C   UNL     1       2.502  -5.252   1.601  0.00  0.00    -0.061 A 
ATOM     22  C   UNL     1       1.245  -5.175   2.231  0.00  0.00    -0.060 A 
ATOM     23  C   UNL     1       0.531  -3.967   2.250  0.00  0.00    -0.037 A 
ATOM     24  C   UNL     1       1.111  -2.847   1.645  0.00  0.00    +0.052 A 
ATOM     25  N   UNL     1       0.576  -1.610   1.514  0.00  0.00    -0.311 N 
ATOM     26  C   UNL     1       1.462  -0.897   0.801  0.00  0.00    +0.077 A 
ATOM     27  C   UNL     1       1.295   0.404   0.294  0.00  0.00    +0.077 A 
ATOM     28  C   UNL     1       4.848  -1.609  -0.868  0.00  0.00    +0.245 C 
ATOM     29  O   UNL     1       5.417  -2.685  -0.559  0.00  0.00    -0.270 OA
ATOM     30  N   UNL     1       5.434  -0.641  -1.726  0.00  0.00    -0.307 N 
ATOM     31  C   UNL     1       4.563   0.528  -1.788  0.00  0.00    +0.039 C 
ATOM     32  H   UNL     1       6.291  -0.743  -2.201  0.00  0.00    +0.000 HD
ENDROOT
BRANCH   1  34
ATOM     33  C   UNL     1      -3.425   2.789  -0.371  0.00  0.00    +0.037 C 
ATOM     34  O   UNL     1      -2.316   1.914  -0.319  0.00  0.00    -0.373 OA
ENDBRANCH   1  34
BRANCH   2  35
ATOM     35  N   UNL     1      -3.843  -0.335  -0.361  0.00  0.00    -0.179 NA
ATOM     36  C   UNL     1      -4.943  -1.227   0.040  0.00  0.00    +0.009 C 
BRANCH  35  37
ATOM     37  S   UNL     1      -3.293  -0.811  -1.968  0.00  0.00    +0.029 S 
ATOM     38  C   UNL     1      -2.063   0.275  -2.678  0.00  0.00    +0.071 C 
ATOM     39  O   UNL     1      -4.472  -0.785  -2.901  0.00  0.00    -0.158 OA
ATOM     40  O   UNL     1      -2.749  -2.214  -1.943  0.00  0.00    -0.158 OA
ENDBRANCH  35  37
ENDBRANCH   2  35
TORSDOF 3
