REMARK  Name = 
REMARK  9 active torsions:
REMARK  status: ('A' for Active; 'I' for Inactive)
REMARK    1  A    between atoms: C_1  and  O_2
REMARK    2  A    between atoms: O_2  and  C_3
REMARK    3  A    between atoms: C_6  and  N_7
REMARK    4  A    between atoms: N_7  and  C_8
REMARK    5  A    between atoms: C_10  and  O_11
REMARK    6  A    between atoms: C_22  and  O_23
REMARK    7  A    between atoms: O_23  and  C_24
REMARK    8  A    between atoms: C_24  and  C_25
REMARK    9  A    between atoms: N_28  and  C_29
REMARK                            x       y       z     vdW  Elec       q    Type
REMARK                         _______ _______ _______ _____ _____    ______ ____
ROOT
ATOM      1  C   UNL     1       0.167   1.857  -1.423  0.00  0.00    +0.162 A 
ATOM      2  C   UNL     1       1.425   1.415  -0.965  0.00  0.00    -0.004 A 
ATOM      3  C   UNL     1       1.574   0.909   0.340  0.00  0.00    +0.044 A 
ATOM      4  C   UNL     1       2.815   0.472   0.861  0.00  0.00    +0.134 A 
ATOM      5  N   UNL     1       2.861  -0.026   2.128  0.00  0.00    -0.220 NA
ATOM      6  C   UNL     1       1.748  -0.129   2.897  0.00  0.00    +0.119 A 
ATOM      7  N   UNL     1       0.551   0.294   2.421  0.00  0.00    -0.235 NA
ATOM      8  C   UNL     1       0.438   0.812   1.171  0.00  0.00    +0.080 A 
ATOM      9  C   UNL     1      -0.809   1.248   0.715  0.00  0.00    +0.010 A 
ATOM     10  C   UNL     1      -0.954   1.776  -0.583  0.00  0.00    +0.164 A 
ENDROOT
BRANCH   1  12
ATOM     11  C   UNL     1       1.021   2.512  -3.684  0.00  0.00    +0.079 C 
ATOM     12  O   UNL     1      -0.012   2.381  -2.713  0.00  0.00    -0.491 OA
ENDBRANCH   1  12
BRANCH   4  13
ATOM     13  N   UNL     1       4.040   0.617   0.119  0.00  0.00    -0.297 N 
ATOM     14  H   UNL     1       4.077   1.290  -0.598  0.00  0.00    +0.000 HD
BRANCH  13  15
ATOM     15  C   UNL     1       5.215  -0.175   0.374  0.00  0.00    +0.072 A 
ATOM     16  C   UNL     1       5.115  -1.515   0.797  0.00  0.00    +0.005 A 
ATOM     17  C   UNL     1       6.268  -2.270   1.063  0.00  0.00    +0.137 A 
ATOM     18  C   UNL     1       7.532  -1.695   0.879  0.00  0.00    +0.085 A 
ATOM     19 CL   UNL     1       8.991  -2.619   1.212  0.00  0.00    -0.080 Cl
ATOM     20  C   UNL     1       7.638  -0.374   0.425  0.00  0.00    -0.003 A 
ATOM     21  C   UNL     1       6.489   0.381   0.168  0.00  0.00    +0.146 A 
ATOM     22  F   UNL     1       6.620   1.661  -0.263  0.00  0.00    -0.203 F 
BRANCH  17  23
ATOM     23  O   UNL     1       6.162  -3.588   1.510  0.00  0.00    -0.505 OA
ATOM     24  H   UNL     1       5.317  -3.974   1.634  0.00  0.00    +0.000 HD
ENDBRANCH  17  23
ENDBRANCH  13  15
ENDBRANCH   4  13
BRANCH  10  25
ATOM     25  O   UNL     1      -2.183   2.246  -1.083  0.00  0.00    -0.488 OA
BRANCH  25  26
ATOM     26  C   UNL     1      -3.479   2.031  -0.516  0.00  0.00    +0.093 C 
BRANCH  26  27
ATOM     27  C   UNL     1      -4.150   0.779  -1.117  0.00  0.00    -0.004 C 
ATOM     28  C   UNL     1      -5.603   0.618  -0.599  0.00  0.00    -0.034 C 
ATOM     29  C   UNL     1      -5.709  -0.494   0.450  0.00  0.00    -0.001 C 
ATOM     30  N   UNL     1      -5.319  -1.808  -0.114  0.00  0.00    -0.305 N 
ATOM     31  C   UNL     1      -5.079  -2.775   0.970  0.00  0.00    -0.013 C 
ATOM     32  C   UNL     1      -4.169  -1.754  -1.055  0.00  0.00    -0.001 C 
ATOM     33  C   UNL     1      -3.310  -0.496  -0.875  0.00  0.00    -0.034 C 
ATOM     34  H   UNL     1      -6.108  -2.120  -0.681  0.00  0.00    +0.000 HD
ENDBRANCH  26  27
ENDBRANCH  25  26
ENDBRANCH  10  25
TORSDOF 7
REMARK  Name = 
REMARK  9 active torsions:
REMARK  status: ('A' for Active; 'I' for Inactive)
REMARK    1  A    between atoms: C_1  and  O_2
REMARK    2  A    between atoms: O_2  and  C_3
REMARK    3  A    between atoms: C_6  and  N_7
REMARK    4  A    between atoms: N_7  and  C_8
REMARK    5  A    between atoms: C_10  and  O_11
REMARK    6  A    between atoms: C_22  and  O_23
REMARK    7  A    between atoms: O_23  and  C_24
REMARK    8  A    between atoms: C_24  and  C_25
REMARK    9  A    between atoms: N_28  and  C_29
REMARK                            x       y       z     vdW  Elec       q    Type
REMARK                         _______ _______ _______ _____ _____    ______ ____
ROOT
ATOM      1 CL   UNL     1       0.688   0.000   0.000  0.00  0.00    -0.145 Cl
ATOM      2  H   UNL     1       1.916   0.000   0.000  0.00  0.00    +0.000 HD
ENDROOT
TORSDOF 0
