REMARK  Name = 
REMARK  2 active torsions:
REMARK  status: ('A' for Active; 'I' for Inactive)
REMARK    1  A    between atoms: N_1  and  C_2
REMARK    2  A    between atoms: N_10  and  C_11
REMARK                            x       y       z     vdW  Elec       q    Type
REMARK                         _______ _______ _______ _____ _____    ______ ____
ROOT
ATOM      1  C   UNL     1      -3.371   1.228  -0.214  0.00  0.00    +0.025 A 
ATOM      2  C   UNL     1      -4.256   0.141  -0.178  0.00  0.00    -0.039 A 
ATOM      3  C   UNL     1      -3.776  -1.151   0.046  0.00  0.00    -0.034 A 
ATOM      4  C   UNL     1      -2.409  -1.369   0.244  0.00  0.00    +0.076 A 
ATOM      5  N   UNL     1      -1.950  -2.631   0.445  0.00  0.00    -0.235 NA
ATOM      6  C   UNL     1      -0.629  -2.872   0.633  0.00  0.00    +0.119 A 
ATOM      7  N   UNL     1       0.258  -1.845   0.633  0.00  0.00    -0.220 NA
ATOM      8  C   UNL     1      -0.137  -0.557   0.435  0.00  0.00    +0.134 A 
ATOM      9  N   UNL     1       0.842   0.495   0.499  0.00  0.00    -0.299 N 
ATOM     10  C   UNL     1      -1.506  -0.281   0.229  0.00  0.00    +0.042 A 
ATOM     11  C   UNL     1      -1.999   1.016  -0.015  0.00  0.00    -0.029 A 
ATOM     12  H   UNL     1       0.558   1.377   0.832  0.00  0.00    +0.000 HD
ENDROOT
BRANCH   9  13
ATOM     13  C   UNL     1       2.213   0.324   0.102  0.00  0.00    +0.034 A 
ATOM     14  C   UNL     1       3.208   1.121   0.691  0.00  0.00    -0.040 A 
ATOM     15  C   UNL     1       4.545   0.984   0.305  0.00  0.00    -0.059 A 
ATOM     16  C   UNL     1       4.899   0.060  -0.681  0.00  0.00    -0.043 A 
ATOM     17  C   UNL     1       3.915  -0.725  -1.290  0.00  0.00    +0.043 A 
ATOM     18 CL   UNL     1       4.358  -1.870  -2.542  0.00  0.00    -0.083 Cl
ATOM     19  C   UNL     1       2.576  -0.590  -0.906  0.00  0.00    -0.022 A 
ENDBRANCH   9  13
BRANCH   1  20
ATOM     20  N   UNL     1      -3.867   2.547  -0.459  0.00  0.00    -0.358 N 
ATOM     21  H   UNL     1      -4.830   2.693  -0.598  0.00  0.00    +0.000 HD
ATOM     22  H   UNL     1      -3.244   3.309  -0.487  0.00  0.00    +0.000 HD
ENDBRANCH   1  20
TORSDOF 2
