REMARK  Name = 
REMARK  5 active torsions:
REMARK  status: ('A' for Active; 'I' for Inactive)
REMARK    1  A    between atoms: C_1  and  N_2
REMARK    2  A    between atoms: N_2  and  C_3
REMARK    3  A    between atoms: N_2  and  N_4
REMARK    4  A    between atoms: N_5  and  C_6
REMARK    5  A    between atoms: N_14  and  C_15
REMARK                            x       y       z     vdW  Elec       q    Type
REMARK                         _______ _______ _______ _____ _____    ______ ____
ROOT
ATOM      1  C   UNL     1       1.904  -0.877  -0.031  0.00  0.00    +0.088 A 
ATOM      2  C   UNL     1       2.148  -2.250  -0.208  0.00  0.00    -0.032 A 
ATOM      3  C   UNL     1       1.096  -3.166  -0.152  0.00  0.00    -0.034 A 
ATOM      4  C   UNL     1      -0.209  -2.724   0.088  0.00  0.00    +0.076 A 
ATOM      5  N   UNL     1      -1.228  -3.620   0.123  0.00  0.00    -0.235 NA
ATOM      6  C   UNL     1      -2.504  -3.219   0.348  0.00  0.00    +0.119 A 
ATOM      7  N   UNL     1      -2.779  -1.907   0.551  0.00  0.00    -0.220 NA
ATOM      8  C   UNL     1      -1.804  -0.957   0.526  0.00  0.00    +0.134 A 
ATOM      9  N   UNL     1      -2.148   0.412   0.801  0.00  0.00    -0.299 N 
ATOM     10  C   UNL     1      -0.468  -1.349   0.286  0.00  0.00    +0.042 A 
ATOM     11  C   UNL     1       0.598  -0.431   0.211  0.00  0.00    -0.022 A 
ATOM     12  H   UNL     1      -1.480   0.982   1.245  0.00  0.00    +0.000 HD
ENDROOT
BRANCH   9  13
ATOM     13  C   UNL     1      -3.420   0.991   0.460  0.00  0.00    +0.034 A 
ATOM     14  C   UNL     1      -3.915   2.065   1.216  0.00  0.00    -0.040 A 
ATOM     15  C   UNL     1      -5.140   2.655   0.890  0.00  0.00    -0.059 A 
ATOM     16  C   UNL     1      -5.875   2.187  -0.201  0.00  0.00    -0.043 A 
ATOM     17  C   UNL     1      -5.383   1.131  -0.974  0.00  0.00    +0.043 A 
ATOM     18 CL   UNL     1      -6.297   0.556  -2.357  0.00  0.00    -0.083 Cl
ATOM     19  C   UNL     1      -4.157   0.538  -0.650  0.00  0.00    -0.022 A 
ENDBRANCH   9  13
BRANCH   1  21
ATOM     20  N   UNL     1       4.170  -0.245  -0.316  0.00  0.00    -0.079 NA
ATOM     21  N   UNL     1       2.961   0.088  -0.098  0.00  0.00    -0.134 NA
BRANCH  20  23
ATOM     22  C   UNL     1       4.902   2.138  -0.192  0.00  0.00    +0.020 C 
ATOM     23  N   UNL     1       5.196   0.714  -0.378  0.00  0.00    -0.243 N 
ATOM     24  C   UNL     1       6.557   0.249  -0.633  0.00  0.00    +0.020 C 
ENDBRANCH  20  23
ENDBRANCH   1  21
TORSDOF 3
