REMARK  Name = 
REMARK  8 active torsions:
REMARK  status: ('A' for Active; 'I' for Inactive)
REMARK    1  A    between atoms: C_1  and  O_2
REMARK    2  A    between atoms: O_2  and  C_3
REMARK    3  A    between atoms: C_6  and  N_7
REMARK    4  A    between atoms: N_7  and  C_8
REMARK    5  A    between atoms: C_22  and  O_23
REMARK    6  A    between atoms: O_23  and  C_24
REMARK    7  A    between atoms: C_24  and  C_25
REMARK    8  A    between atoms: N_28  and  C_29
REMARK                            x       y       z     vdW  Elec       q    Type
REMARK                         _______ _______ _______ _____ _____    ______ ____
ROOT
ATOM      1  C   UNL     1      -0.189  -1.844  -0.585  0.00  0.00    +0.162 A 
ATOM      2  C   UNL     1      -1.413  -1.167  -0.413  0.00  0.00    -0.004 A 
ATOM      3  C   UNL     1      -1.584   0.136  -0.915  0.00  0.00    +0.044 A 
ATOM      4  C   UNL     1      -2.780   0.873  -0.753  0.00  0.00    +0.134 A 
ATOM      5  N   UNL     1      -2.876   2.112  -1.313  0.00  0.00    -0.220 NA
ATOM      6  C   UNL     1      -1.855   2.658  -2.019  0.00  0.00    +0.119 A 
ATOM      7  N   UNL     1      -0.694   1.975  -2.174  0.00  0.00    -0.235 NA
ATOM      8  C   UNL     1      -0.532   0.737  -1.640  0.00  0.00    +0.080 A 
ATOM      9  C   UNL     1       0.678   0.061  -1.817  0.00  0.00    +0.010 A 
ATOM     10  C   UNL     1       0.867  -1.218  -1.266  0.00  0.00    +0.164 A 
ENDROOT
BRANCH   1  12
ATOM     11  C   UNL     1      -0.934  -3.884   0.664  0.00  0.00    +0.079 C 
ATOM     12  O   UNL     1       0.021  -3.141  -0.088  0.00  0.00    -0.491 OA
ENDBRANCH   1  12
BRANCH   4  13
ATOM     13  N   UNL     1      -3.872   0.376   0.041  0.00  0.00    -0.294 N 
ATOM     14  H   UNL     1      -3.688  -0.319   0.714  0.00  0.00    +0.000 HD
BRANCH  13  15
ATOM     15  C   UNL     1      -5.220   0.850  -0.108  0.00  0.00    +0.104 A 
ATOM     16  C   UNL     1      -5.999   1.099   1.036  0.00  0.00    +0.149 A 
ATOM     17  F   UNL     1      -5.476   0.920   2.277  0.00  0.00    -0.203 F 
ATOM     18  C   UNL     1      -7.319   1.542   0.910  0.00  0.00    -0.006 A 
ATOM     19  C   UNL     1      -7.878   1.727  -0.358  0.00  0.00    +0.047 A 
ATOM     20 CL   UNL     1      -9.537   2.278  -0.512  0.00  0.00    -0.083 Cl
ATOM     21  C   UNL     1      -7.119   1.460  -1.500  0.00  0.00    -0.006 A 
ATOM     22  C   UNL     1      -5.797   1.017  -1.381  0.00  0.00    +0.149 A 
ATOM     23  F   UNL     1      -5.099   0.711  -2.504  0.00  0.00    -0.203 F 
ENDBRANCH  13  15
ENDBRANCH   4  13
BRANCH  10  24
ATOM     24  O   UNL     1       2.078  -1.917  -1.390  0.00  0.00    -0.488 OA
BRANCH  24  25
ATOM     25  C   UNL     1       3.374  -1.333  -1.544  0.00  0.00    +0.093 C 
BRANCH  25  26
ATOM     26  C   UNL     1       3.891  -0.778  -0.196  0.00  0.00    -0.004 C 
ATOM     27  C   UNL     1       5.427  -0.762  -0.155  0.00  0.00    -0.034 C 
ATOM     28  C   UNL     1       5.935  -0.322   1.235  0.00  0.00    -0.001 C 
ATOM     29  N   UNL     1       5.129   0.756   1.867  0.00  0.00    -0.305 N 
ATOM     30  C   UNL     1       4.331   0.268   3.007  0.00  0.00    -0.013 C 
ATOM     31  C   UNL     1       4.307   1.522   0.907  0.00  0.00    -0.001 C 
ATOM     32  C   UNL     1       3.328   0.633   0.112  0.00  0.00    -0.034 C 
ATOM     33  H   UNL     1       5.811   1.417   2.239  0.00  0.00    +0.000 HD
ENDBRANCH  25  26
ENDBRANCH  24  25
ENDBRANCH  10  24
TORSDOF 6
