REMARK  Name = 
REMARK  6 active torsions:
REMARK  status: ('A' for Active; 'I' for Inactive)
REMARK    1  A    between atoms: C_2  and  C_3
REMARK    2  A    between atoms: C_3  and  C_13
REMARK    3  A    between atoms: C_4  and  C_5
REMARK    4  A    between atoms: C_8  and  O_9
REMARK    5  A    between atoms: C_10  and  O_11
REMARK    6  A    between atoms: C_13  and  C_15
REMARK                            x       y       z     vdW  Elec       q    Type
REMARK                         _______ _______ _______ _____ _____    ______ ____
ROOT
ATOM      1  C   UNL     1       0.593   1.299  -0.751  0.00  0.00    +0.099 C 
ATOM      2  C   UNL     1      -0.009   0.097  -0.637  0.00  0.00    -0.033 C 
ENDROOT
BRANCH   2   3
ATOM      3  C   UNL     1      -1.443  -0.158  -0.905  0.00  0.00    -0.020 A 
ATOM      4  C   UNL     1      -1.809  -1.308  -1.619  0.00  0.00    -0.051 A 
ATOM      5  C   UNL     1      -3.156  -1.594  -1.859  0.00  0.00    -0.016 A 
ATOM      6  C   UNL     1      -4.155  -0.743  -1.368  0.00  0.00    +0.158 A 
ATOM      7  C   UNL     1      -3.802   0.392  -0.628  0.00  0.00    +0.159 A 
ATOM      8  C   UNL     1      -2.450   0.679  -0.390  0.00  0.00    -0.009 A 
BRANCH   6   9
ATOM      9  O   UNL     1      -5.500  -1.022  -1.607  0.00  0.00    -0.503 OA
ATOM     10  H   UNL     1      -5.740  -1.781  -2.102  0.00  0.00    +0.000 HD
ENDBRANCH   6   9
BRANCH   7  11
ATOM     11  O   UNL     1      -4.799   1.228  -0.128  0.00  0.00    -0.503 OA
ATOM     12  H   UNL     1      -5.700   1.032  -0.291  0.00  0.00    +0.000 HD
ENDBRANCH   7  11
ENDBRANCH   2   3
BRANCH   1  14
ATOM     13  N   UNL     1      -0.678   3.359  -1.711  0.00  0.00    -0.191 NA
ATOM     14  C   UNL     1      -0.114   2.443  -1.284  0.00  0.00    +0.103 C 
ENDBRANCH   1  14
BRANCH   1  15
ATOM     15  C   UNL     1       2.035   1.459  -0.439  0.00  0.00    +0.205 C 
ATOM     16  O   UNL     1       2.679   2.403  -0.973  0.00  0.00    -0.286 OA
BRANCH  15  17
ATOM     17  C   UNL     1       2.760   0.536   0.465  0.00  0.00    +0.041 A 
ATOM     18  C   UNL     1       3.942  -0.070   0.007  0.00  0.00    -0.049 A 
ATOM     19  C   UNL     1       4.646  -0.956   0.826  0.00  0.00    -0.061 A 
ATOM     20  C   UNL     1       4.185  -1.236   2.113  0.00  0.00    -0.060 A 
ATOM     21  C   UNL     1       3.023  -0.624   2.589  0.00  0.00    -0.043 A 
ATOM     22  C   UNL     1       2.308   0.266   1.777  0.00  0.00    +0.052 A 
ATOM     23 CL   UNL     1       0.898   1.068   2.463  0.00  0.00    -0.083 Cl
ENDBRANCH  15  17
ENDBRANCH   1  15
TORSDOF 6
