REMARK  Name = 
REMARK  9 active torsions:
REMARK  status: ('A' for Active; 'I' for Inactive)
REMARK    1  A    between atoms: C_1  and  O_2
REMARK    2  A    between atoms: O_2  and  C_3
REMARK    3  A    between atoms: C_3  and  C_4
REMARK    4  A    between atoms: C_4  and  O_5
REMARK    5  A    between atoms: O_5  and  C_6
REMARK    6  A    between atoms: C_12  and  N_13
REMARK    7  A    between atoms: N_13  and  C_14
REMARK    8  A    between atoms: C_24  and  O_25
REMARK    9  A    between atoms: O_25  and  C_26
REMARK                            x       y       z     vdW  Elec       q    Type
REMARK                         _______ _______ _______ _____ _____    ______ ____
ROOT
ATOM      1  C   UNL     1       2.134  -0.348   0.190  0.00  0.00    +0.164 A 
ATOM      2  C   UNL     1       1.683  -0.278   1.521  0.00  0.00    +0.010 A 
ATOM      3  C   UNL     1       0.319  -0.362   1.812  0.00  0.00    +0.080 A 
ATOM      4  N   UNL     1      -0.100  -0.273   3.101  0.00  0.00    -0.235 NA
ATOM      5  C   UNL     1      -1.416  -0.344   3.415  0.00  0.00    +0.119 A 
ATOM      6  N   UNL     1      -2.341  -0.517   2.438  0.00  0.00    -0.220 NA
ATOM      7  C   UNL     1      -1.987  -0.612   1.127  0.00  0.00    +0.134 A 
ATOM      8  C   UNL     1      -0.621  -0.531   0.774  0.00  0.00    +0.044 A 
ATOM      9  C   UNL     1      -0.170  -0.584  -0.558  0.00  0.00    -0.004 A 
ATOM     10  C   UNL     1       1.205  -0.497  -0.852  0.00  0.00    +0.162 A 
ENDROOT
BRANCH   7  11
ATOM     11  N   UNL     1      -3.007  -0.851   0.141  0.00  0.00    -0.297 N 
ATOM     12  H   UNL     1      -2.774  -1.379  -0.657  0.00  0.00    +0.000 HD
BRANCH  11  13
ATOM     13  C   UNL     1      -4.353  -0.355   0.263  0.00  0.00    +0.068 A 
ATOM     14  C   UNL     1      -4.623   0.854   0.933  0.00  0.00    -0.036 A 
ATOM     15  C   UNL     1      -5.932   1.334   1.025  0.00  0.00    -0.041 A 
ATOM     16  C   UNL     1      -6.984   0.621   0.442  0.00  0.00    +0.044 A 
ATOM     17 CL   UNL     1      -8.626   1.226   0.558  0.00  0.00    -0.083 Cl
ATOM     18  C   UNL     1      -6.723  -0.572  -0.240  0.00  0.00    -0.006 A 
ATOM     19  C   UNL     1      -5.415  -1.056  -0.336  0.00  0.00    +0.146 A 
ATOM     20  F   UNL     1      -5.185  -2.217  -1.000  0.00  0.00    -0.203 F 
ENDBRANCH  11  13
ENDBRANCH   7  11
BRANCH  10  21
ATOM     21  O   UNL     1       1.691  -0.553  -2.168  0.00  0.00    -0.491 OA
ATOM     22  C   UNL     1       0.876  -0.702  -3.326  0.00  0.00    +0.079 C 
ENDBRANCH  10  21
BRANCH   1  23
ATOM     23  O   UNL     1       3.496  -0.270  -0.140  0.00  0.00    -0.486 OA
BRANCH  23  24
ATOM     24  C   UNL     1       4.551  -0.109   0.805  0.00  0.00    +0.113 C 
BRANCH  24  25
ATOM     25  C   UNL     1       5.892  -0.065   0.077  0.00  0.00    +0.081 C 
BRANCH  25  27
ATOM     26  C   UNL     1       6.509   2.132  -0.347  0.00  0.00    +0.037 C 
ATOM     27  O   UNL     1       5.903   0.976  -0.882  0.00  0.00    -0.380 OA
ENDBRANCH  25  27
ENDBRANCH  24  25
ENDBRANCH  23  24
ENDBRANCH   1  23
TORSDOF 7
