REMARK  Name = 
REMARK  11 active torsions:
REMARK  status: ('A' for Active; 'I' for Inactive)
REMARK    1  A    between atoms: C_1  and  N_2
REMARK    2  A    between atoms: C_3  and  S_4
REMARK    3  A    between atoms: S_4  and  S_5
REMARK    4  A    between atoms: S_5  and  C_6
REMARK    5  A    between atoms: C_7  and  C_8
REMARK    6  A    between atoms: N_10  and  C_11
REMARK    7  A    between atoms: C_19  and  N_20
REMARK    8  A    between atoms: N_26  and  C_27
REMARK    9  A    between atoms: C_28  and  C_29
REMARK   10  A    between atoms: N_31  and  C_32
REMARK   11  A    between atoms: C_40  and  N_41
REMARK                            x       y       z     vdW  Elec       q    Type
REMARK                         _______ _______ _______ _____ _____    ______ ____
ROOT
ATOM      1  S   UNL     1       1.138   2.305   0.707  0.00  0.00    -0.032 S 
ENDROOT
BRANCH   1   4
ATOM      2  C   UNL     1      -0.168   0.082   2.707  0.00  0.00    +0.013 C 
ATOM      3  N   UNL     1       0.697  -0.303   1.590  0.00  0.00    -0.337 N 
ATOM      4  C   UNL     1       1.266   0.517   0.668  0.00  0.00    +0.100 A 
ATOM      5  C   UNL     1       2.147  -0.200  -0.138  0.00  0.00    +0.077 A 
ATOM      6  C   UNL     1       2.102  -1.498   0.320  0.00  0.00    +0.015 A 
ATOM      7  C   UNL     1       2.821  -2.626  -0.074  0.00  0.00    -0.022 A 
ATOM      8  C   UNL     1       2.606  -3.838   0.623  0.00  0.00    +0.127 A 
ATOM      9  C   UNL     1       1.667  -3.869   1.686  0.00  0.00    -0.030 A 
ATOM     10  C   UNL     1       0.955  -2.715   2.053  0.00  0.00    -0.035 A 
ATOM     11  C   UNL     1       1.207  -1.532   1.357  0.00  0.00    +0.051 A 
BRANCH   5  12
ATOM     12  C   UNL     1       3.001   0.328  -1.210  0.00  0.00    +0.251 C 
ATOM     13  O   UNL     1       2.467   0.959  -2.171  0.00  0.00    -0.270 OA
ATOM     14  N   UNL     1       4.423   0.147  -1.152  0.00  0.00    -0.281 N 
ATOM     15  H   UNL     1       4.819  -0.203  -0.321  0.00  0.00    +0.000 HD
BRANCH  14  16
ATOM     16  C   UNL     1       5.295   0.456  -2.251  0.00  0.00    +0.034 A 
ATOM     17  C   UNL     1       6.534   1.072  -2.004  0.00  0.00    -0.040 A 
ATOM     18  C   UNL     1       7.394   1.381  -3.061  0.00  0.00    -0.060 A 
ATOM     19  C   UNL     1       7.035   1.054  -4.370  0.00  0.00    -0.062 A 
ATOM     20  C   UNL     1       5.819   0.414  -4.622  0.00  0.00    -0.060 A 
ATOM     21  C   UNL     1       4.949   0.110  -3.570  0.00  0.00    -0.040 A 
ENDBRANCH  14  16
ENDBRANCH   5  12
BRANCH   8  22
ATOM     22  N   UNL     1       3.346  -5.023   0.273  0.00  0.00    +0.056 N 
ATOM     23  O   UNL     1       4.128  -5.024  -0.701  0.00  0.00    -0.126 OA
ATOM     24  O   UNL     1       3.206  -6.177   1.012  0.00  0.00    -0.126 OA
ENDBRANCH   8  22
ENDBRANCH   1   4
BRANCH   1  25
ATOM     25  S   UNL     1      -0.158   2.470  -0.976  0.00  0.00    -0.032 S 
BRANCH  25  26
ATOM     26  C   UNL     1      -1.628   2.698   0.037  0.00  0.00    +0.100 A 
ATOM     27  C   UNL     1      -2.671   1.781   0.166  0.00  0.00    +0.077 A 
ATOM     28  C   UNL     1      -3.548   2.338   1.074  0.00  0.00    +0.015 A 
ATOM     29  C   UNL     1      -4.733   1.845   1.612  0.00  0.00    -0.022 A 
ATOM     30  C   UNL     1      -5.411   2.636   2.570  0.00  0.00    +0.127 A 
ATOM     31  C   UNL     1      -4.881   3.901   2.935  0.00  0.00    -0.030 A 
ATOM     32  C   UNL     1      -3.687   4.372   2.366  0.00  0.00    -0.035 A 
ATOM     33  C   UNL     1      -3.038   3.558   1.437  0.00  0.00    +0.051 A 
ATOM     34  N   UNL     1      -1.875   3.800   0.795  0.00  0.00    -0.337 N 
ATOM     35  C   UNL     1      -1.025   4.980   0.964  0.00  0.00    +0.013 C 
BRANCH  27  36
ATOM     36  C   UNL     1      -2.915   0.585  -0.647  0.00  0.00    +0.251 C 
ATOM     37  O   UNL     1      -3.677   0.657  -1.644  0.00  0.00    -0.270 OA
ATOM     38  N   UNL     1      -2.256  -0.646  -0.333  0.00  0.00    -0.281 N 
ATOM     39  H   UNL     1      -1.444  -0.610   0.222  0.00  0.00    +0.000 HD
BRANCH  38  40
ATOM     40  C   UNL     1      -2.712  -1.933  -0.783  0.00  0.00    +0.034 A 
ATOM     41  C   UNL     1      -1.780  -2.947  -1.059  0.00  0.00    -0.040 A 
ATOM     42  C   UNL     1      -2.213  -4.212  -1.464  0.00  0.00    -0.060 A 
ATOM     43  C   UNL     1      -3.579  -4.485  -1.571  0.00  0.00    -0.062 A 
ATOM     44  C   UNL     1      -4.513  -3.488  -1.289  0.00  0.00    -0.060 A 
ATOM     45  C   UNL     1      -4.086  -2.215  -0.892  0.00  0.00    -0.040 A 
ENDBRANCH  38  40
ENDBRANCH  27  36
BRANCH  30  46
ATOM     46  N   UNL     1      -6.621   2.158   3.188  0.00  0.00    +0.056 N 
ATOM     47  O   UNL     1      -7.089   1.040   2.891  0.00  0.00    -0.126 OA
ATOM     48  O   UNL     1      -7.257   2.917   4.150  0.00  0.00    -0.126 OA
ENDBRANCH  30  46
ENDBRANCH  25  26
ENDBRANCH   1  25
TORSDOF 9
