REMARK  Name = 
REMARK  9 active torsions:
REMARK  status: ('A' for Active; 'I' for Inactive)
REMARK    1  A    between atoms: C_1  and  O_2
REMARK    2  A    between atoms: O_2  and  C_3
REMARK    3  A    between atoms: C_5  and  C_6
REMARK    4  A    between atoms: C_7  and  C_8
REMARK    5  A    between atoms: C_7  and  C_10
REMARK    6  A    between atoms: C_13  and  S_14
REMARK    7  A    between atoms: S_14  and  C_15
REMARK    8  A    between atoms: C_15  and  C_16
REMARK    9  A    between atoms: C_19  and  O_20
REMARK                            x       y       z     vdW  Elec       q    Type
REMARK                         _______ _______ _______ _____ _____    ______ ____
ROOT
ATOM      1  C   UNL     1      -0.908  -1.436   0.339  0.00  0.00    +0.163 A 
ATOM      2  C   UNL     1      -1.156  -0.085   0.655  0.00  0.00    -0.009 A 
ATOM      3  C   UNL     1      -0.134   0.874   0.555  0.00  0.00    -0.018 A 
ATOM      4  C   UNL     1       1.126   0.485   0.086  0.00  0.00    -0.037 A 
ATOM      5  C   UNL     1       1.382  -0.850  -0.243  0.00  0.00    +0.054 A 
ATOM      6  C   UNL     1       0.372  -1.815  -0.105  0.00  0.00    +0.172 A 
ENDROOT
BRANCH   1   8
ATOM      7  C   UNL     1      -3.234  -2.175   0.898  0.00  0.00    +0.079 C 
ATOM      8  O   UNL     1      -1.904  -2.419   0.451  0.00  0.00    -0.491 OA
ENDBRANCH   1   8
BRANCH   3   9
ATOM      9  C   UNL     1      -0.376   2.304   0.856  0.00  0.00    -0.027 C 
ATOM     10  C   UNL     1      -1.037   2.760   1.934  0.00  0.00    +0.129 C 
BRANCH  10  11
ATOM     11  C   UNL     1      -1.198   4.178   2.118  0.00  0.00    +0.110 C 
ATOM     12  N   UNL     1      -1.327   5.319   2.266  0.00  0.00    -0.190 NA
ENDBRANCH  10  11
BRANCH  10  13
ATOM     13  C   UNL     1      -1.527   1.889   2.974  0.00  0.00    +0.110 C 
ATOM     14  N   UNL     1      -1.919   1.191   3.809  0.00  0.00    -0.190 NA
ENDBRANCH  10  13
ENDBRANCH   3   9
BRANCH   6  15
ATOM     15  O   UNL     1       0.652  -3.146  -0.421  0.00  0.00    -0.503 OA
ATOM     16  H   UNL     1       1.507  -3.387  -0.717  0.00  0.00    +0.000 HD
ENDBRANCH   6  15
BRANCH   5  17
ATOM     17  S   UNL     1       3.019  -1.316  -0.824  0.00  0.00    -0.110 S 
BRANCH  17  18
ATOM     18  C   UNL     1       2.622  -1.118  -2.595  0.00  0.00    +0.096 C 
BRANCH  18  19
ATOM     19  C   UNL     1       2.558   0.330  -2.958  0.00  0.00    +0.315 C 
ATOM     20  O   UNL     1       1.448   0.870  -3.212  0.00  0.00    -0.250 OA
ATOM     21  O   UNL     1       3.724   1.087  -2.994  0.00  0.00    -0.480 OA
ENDBRANCH  18  19
ENDBRANCH  17  18
ENDBRANCH   5  17
TORSDOF 8
