REMARK  Name = 
REMARK  7 active torsions:
REMARK  status: ('A' for Active; 'I' for Inactive)
REMARK    1  A    between atoms: C_1  and  O_2
REMARK    2  A    between atoms: O_2  and  C_3
REMARK    3  A    between atoms: N_5  and  C_6
REMARK    4  A    between atoms: N_5  and  C_7
REMARK    5  A    between atoms: C_11  and  C_12
REMARK    6  A    between atoms: C_13  and  O_14
REMARK    7  A    between atoms: O_14  and  C_15
REMARK                            x       y       z     vdW  Elec       q    Type
REMARK                         _______ _______ _______ _____ _____    ______ ____
ROOT
ATOM      1  C   UNL     1       2.761   0.210   0.992  0.00  0.00    +0.064 C 
ATOM      2  C   UNL     1       1.778   1.254   0.483  0.00  0.00    +0.014 C 
ATOM      3  C   UNL     1       0.760   1.559   1.594  0.00  0.00    +0.140 C 
ATOM      4  O   UNL     1       0.479   0.477   2.467  0.00  0.00    -0.328 OA
ATOM      5  C   UNL     1       0.565  -0.831   1.905  0.00  0.00    +0.174 C 
ATOM      6  C   UNL     1       0.315  -1.748   3.127  0.00  0.00    -0.014 C 
ATOM      7  C   UNL     1       2.022  -1.110   1.336  0.00  0.00    +0.125 C 
ATOM      8  N   UNL     1      -0.521  -1.065   0.889  0.00  0.00    -0.307 N 
ATOM      9  C   UNL     1      -0.987  -2.269   0.413  0.00  0.00    +0.053 A 
ATOM     10  C   UNL     1      -0.468  -3.561   0.620  0.00  0.00    -0.037 A 
ATOM     11  C   UNL     1      -1.119  -4.661   0.039  0.00  0.00    -0.060 A 
ATOM     12  C   UNL     1      -2.276  -4.480  -0.737  0.00  0.00    -0.061 A 
ATOM     13  C   UNL     1      -2.792  -3.195  -0.946  0.00  0.00    -0.052 A 
ATOM     14  C   UNL     1      -2.127  -2.115  -0.361  0.00  0.00    +0.008 A 
ATOM     15  C   UNL     1      -2.400  -0.774  -0.390  0.00  0.00    +0.015 A 
ATOM     16  C   UNL     1      -3.426  -0.034  -1.005  0.00  0.00    -0.008 A 
ATOM     17  C   UNL     1      -3.443   1.353  -0.879  0.00  0.00    +0.052 A 
ATOM     18  C   UNL     1      -2.416   2.003  -0.161  0.00  0.00    +0.022 A 
ATOM     19  C   UNL     1      -2.051   3.331   0.028  0.00  0.00    +0.008 A 
ATOM     20  C   UNL     1      -2.597   4.539  -0.418  0.00  0.00    -0.052 A 
ATOM     21  C   UNL     1      -1.924   5.731  -0.104  0.00  0.00    -0.061 A 
ATOM     22  C   UNL     1      -0.720   5.704   0.625  0.00  0.00    -0.060 A 
ATOM     23  C   UNL     1      -0.172   4.484   1.048  0.00  0.00    -0.037 A 
ATOM     24  C   UNL     1      -0.863   3.305   0.743  0.00  0.00    +0.052 A 
ATOM     25  N   UNL     1      -0.485   2.034   1.017  0.00  0.00    -0.311 N 
ATOM     26  C   UNL     1      -1.421   1.246   0.463  0.00  0.00    +0.077 A 
ATOM     27  C   UNL     1      -1.407  -0.159   0.364  0.00  0.00    +0.077 A 
ATOM     28  C   UNL     1      -4.619   1.810  -1.595  0.00  0.00    +0.245 C 
ATOM     29  O   UNL     1      -5.052   2.987  -1.659  0.00  0.00    -0.270 OA
ATOM     30  N   UNL     1      -5.295   0.703  -2.174  0.00  0.00    -0.307 N 
ATOM     31  C   UNL     1      -4.581  -0.523  -1.831  0.00  0.00    +0.039 C 
ATOM     32  H   UNL     1      -6.113   0.755  -2.720  0.00  0.00    +0.000 HD
ENDROOT
BRANCH   1  35
ATOM     33  C   UNL     1       3.782  -0.180  -1.345  0.00  0.00    +0.403 C 
ATOM     34  O   UNL     1       4.810  -0.182  -2.079  0.00  0.00    -0.226 OA
ATOM     35  N   UNL     1       3.918   0.030   0.081  0.00  0.00    -0.265 N 
ATOM     36  C   UNL     1       5.278   0.110   0.632  0.00  0.00    +0.007 C 
BRANCH  33  38
ATOM     37  C   UNL     1       2.345  -0.658  -3.306  0.00  0.00    +0.083 C 
ATOM     38  O   UNL     1       2.527  -0.404  -1.920  0.00  0.00    -0.454 OA
ENDBRANCH  33  38
ENDBRANCH   1  35
BRANCH   7  39
ATOM     39  O   UNL     1       1.955  -1.956   0.198  0.00  0.00    -0.373 OA
ATOM     40  C   UNL     1       2.917  -2.992   0.268  0.00  0.00    +0.037 C 
ENDBRANCH   7  39
TORSDOF 3
