REMARK  Name = 
REMARK  3 active torsions:
REMARK  status: ('A' for Active; 'I' for Inactive)
REMARK    1  A    between atoms: C_2  and  C_3
REMARK    2  A    between atoms: C_3  and  C_4
REMARK    3  A    between atoms: C_6  and  C_7
REMARK                            x       y       z     vdW  Elec       q    Type
REMARK                         _______ _______ _______ _____ _____    ______ ____
ROOT
ATOM      1  C   UNL     1       2.073   0.587   0.320  0.00  0.00    +0.129 C 
ATOM      2  C   UNL     1       0.840   1.076   0.107  0.00  0.00    -0.027 C 
ENDROOT
BRANCH   2   3
ATOM      3  C   UNL     1      -0.380   0.254  -0.063  0.00  0.00    -0.020 A 
ATOM      4  C   UNL     1      -1.312   0.612  -1.048  0.00  0.00    -0.036 A 
ATOM      5  C   UNL     1      -2.482  -0.136  -1.197  0.00  0.00    +0.028 A 
ATOM      6  N   UNL     1      -2.725  -1.193  -0.378  0.00  0.00    -0.263 NA
ATOM      7  C   UNL     1      -1.854  -1.549   0.602  0.00  0.00    +0.028 A 
ATOM      8  C   UNL     1      -0.671  -0.829   0.785  0.00  0.00    -0.036 A 
ENDBRANCH   2   3
BRANCH   1  10
ATOM      9  N   UNL     1       2.594  -1.960   0.336  0.00  0.00    -0.190 NA
ATOM     10  C   UNL     1       2.361  -0.826   0.330  0.00  0.00    +0.110 C 
ENDBRANCH   1  10
BRANCH   1  11
ATOM     11  C   UNL     1       3.180   1.495   0.461  0.00  0.00    +0.110 C 
ATOM     12  N   UNL     1       4.071   2.226   0.574  0.00  0.00    -0.190 NA
ENDBRANCH   1  11
TORSDOF 3
