REMARK  Name = 
REMARK  3 active torsions:
REMARK  status: ('A' for Active; 'I' for Inactive)
REMARK    1  A    between atoms: C_1  and  N_2
REMARK    2  A    between atoms: C_5  and  C_6
REMARK    3  A    between atoms: N_19  and  C_20
REMARK                            x       y       z     vdW  Elec       q    Type
REMARK                         _______ _______ _______ _____ _____    ______ ____
ROOT
ATOM      1  C   UNL     1      -0.413   1.465   1.720  0.00  0.00    +0.017 C 
ATOM      2  N   UNL     1       0.437   0.691   0.799  0.00  0.00    -0.295 N 
ATOM      3  C   UNL     1       1.803   0.685   0.959  0.00  0.00    +0.260 A 
ATOM      4  O   UNL     1       2.339   1.350   1.890  0.00  0.00    -0.267 OA
ATOM      5  C   UNL     1       2.622  -0.068   0.096  0.00  0.00    +0.050 A 
ATOM      6  C   UNL     1       2.033  -0.835  -0.911  0.00  0.00    -0.037 A 
ATOM      7  C   UNL     1       0.646  -0.853  -1.046  0.00  0.00    +0.037 A 
ATOM      8  C   UNL     1       0.014  -1.622  -2.027  0.00  0.00    +0.042 A 
ATOM      9  N   UNL     1      -1.341  -1.623  -2.117  0.00  0.00    -0.222 NA
ATOM     10  C   UNL     1      -2.103  -0.891  -1.262  0.00  0.00    +0.221 A 
ATOM     11  N   UNL     1      -3.531  -0.896  -1.405  0.00  0.00    -0.284 N 
ATOM     12  N   UNL     1      -1.502  -0.124  -0.313  0.00  0.00    -0.196 NA
ATOM     13  C   UNL     1      -0.148  -0.084  -0.175  0.00  0.00    +0.148 A 
ATOM     14  H   UNL     1      -3.913  -1.323  -2.206  0.00  0.00    +0.000 HD
ENDROOT
BRANCH   5  15
ATOM     15  C   UNL     1       4.094  -0.068   0.244  0.00  0.00    +0.024 A 
ATOM     16  C   UNL     1       4.756  -1.189   0.790  0.00  0.00    +0.050 A 
ATOM     17 CL   UNL     1       3.866  -2.607   1.335  0.00  0.00    -0.083 Cl
ATOM     18  C   UNL     1       6.149  -1.181   0.925  0.00  0.00    -0.043 A 
ATOM     19  C   UNL     1       6.889  -0.069   0.522  0.00  0.00    -0.059 A 
ATOM     20  C   UNL     1       6.243   1.043  -0.020  0.00  0.00    -0.043 A 
ATOM     21  C   UNL     1       4.851   1.052  -0.163  0.00  0.00    +0.050 A 
ATOM     22 CL   UNL     1       4.088   2.468  -0.878  0.00  0.00    -0.083 Cl
ENDBRANCH   5  15
BRANCH  11  23
ATOM     23  C   UNL     1      -4.439  -0.317  -0.453  0.00  0.00    +0.034 A 
ATOM     24  C   UNL     1      -5.620   0.291  -0.909  0.00  0.00    -0.040 A 
ATOM     25  C   UNL     1      -6.526   0.846  -0.000  0.00  0.00    -0.060 A 
ATOM     26  C   UNL     1      -6.269   0.785   1.372  0.00  0.00    -0.062 A 
ATOM     27  C   UNL     1      -5.109   0.161   1.837  0.00  0.00    -0.060 A 
ATOM     28  C   UNL     1      -4.200  -0.396   0.932  0.00  0.00    -0.040 A 
ENDBRANCH  11  23
TORSDOF 2
