REMARK  Name = 
REMARK  9 active torsions:
REMARK  status: ('A' for Active; 'I' for Inactive)
REMARK    1  A    between atoms: C_1  and  N_2
REMARK    2  A    between atoms: C_3  and  S_4
REMARK    3  A    between atoms: S_4  and  S_5
REMARK    4  A    between atoms: S_5  and  C_6
REMARK    5  A    between atoms: C_7  and  C_8
REMARK    6  A    between atoms: N_10  and  C_11
REMARK    7  A    between atoms: N_24  and  C_25
REMARK    8  A    between atoms: C_26  and  C_27
REMARK    9  A    between atoms: N_29  and  C_30
REMARK                            x       y       z     vdW  Elec       q    Type
REMARK                         _______ _______ _______ _____ _____    ______ ____
ROOT
ATOM      1  S   UNL     1       0.126   0.431   1.327  0.00  0.00    -0.032 S 
ENDROOT
BRANCH   1   4
ATOM      2  C   UNL     1       0.376  -2.657   0.266  0.00  0.00    +0.013 C 
ATOM      3  N   UNL     1      -0.875  -1.904   0.164  0.00  0.00    -0.337 N 
ATOM      4  C   UNL     1      -1.124  -0.648   0.617  0.00  0.00    +0.100 A 
ATOM      5  C   UNL     1      -2.463  -0.310   0.416  0.00  0.00    +0.077 A 
ATOM      6  C   UNL     1      -3.038  -1.422  -0.179  0.00  0.00    +0.015 A 
ATOM      7  C   UNL     1      -4.355  -1.686  -0.563  0.00  0.00    -0.033 A 
ATOM      8  C   UNL     1      -4.643  -2.944  -1.122  0.00  0.00    +0.042 A 
ATOM      9 CL   UNL     1      -6.280  -3.320  -1.625  0.00  0.00    -0.084 Cl
ATOM     10  C   UNL     1      -3.623  -3.909  -1.272  0.00  0.00    -0.041 A 
ATOM     11  C   UNL     1      -2.310  -3.627  -0.859  0.00  0.00    -0.036 A 
ATOM     12  C   UNL     1      -2.048  -2.368  -0.312  0.00  0.00    +0.050 A 
BRANCH   5  13
ATOM     13  C   UNL     1      -3.117   0.970   0.755  0.00  0.00    +0.251 C 
ATOM     14  O   UNL     1      -2.689   1.645   1.730  0.00  0.00    -0.270 OA
ATOM     15  N   UNL     1      -4.184   1.479  -0.059  0.00  0.00    -0.281 N 
ATOM     16  H   UNL     1      -4.297   1.106  -0.963  0.00  0.00    +0.000 HD
BRANCH  15  17
ATOM     17  C   UNL     1      -5.099   2.503   0.370  0.00  0.00    +0.034 A 
ATOM     18  C   UNL     1      -5.485   2.626   1.719  0.00  0.00    -0.040 A 
ATOM     19  C   UNL     1      -6.392   3.618   2.105  0.00  0.00    -0.060 A 
ATOM     20  C   UNL     1      -6.929   4.487   1.153  0.00  0.00    -0.062 A 
ATOM     21  C   UNL     1      -6.569   4.359  -0.191  0.00  0.00    -0.060 A 
ATOM     22  C   UNL     1      -5.664   3.366  -0.583  0.00  0.00    -0.040 A 
ENDBRANCH  15  17
ENDBRANCH   5  13
ENDBRANCH   1   4
BRANCH   1  23
ATOM     23  S   UNL     1       0.330   1.589  -0.457  0.00  0.00    -0.032 S 
BRANCH  23  24
ATOM     24  C   UNL     1       1.439   0.406  -1.233  0.00  0.00    +0.100 A 
ATOM     25  C   UNL     1       2.782   0.232  -0.904  0.00  0.00    +0.077 A 
ATOM     26  C   UNL     1       3.232  -0.797  -1.713  0.00  0.00    +0.015 A 
ATOM     27  C   UNL     1       4.500  -1.365  -1.860  0.00  0.00    -0.033 A 
ATOM     28  C   UNL     1       4.654  -2.398  -2.802  0.00  0.00    +0.042 A 
ATOM     29 CL   UNL     1       6.224  -3.149  -3.021  0.00  0.00    -0.084 Cl
ATOM     30  C   UNL     1       3.556  -2.826  -3.580  0.00  0.00    -0.041 A 
ATOM     31  C   UNL     1       2.297  -2.219  -3.431  0.00  0.00    -0.036 A 
ATOM     32  C   UNL     1       2.168  -1.199  -2.484  0.00  0.00    +0.050 A 
ATOM     33  N   UNL     1       1.065  -0.477  -2.195  0.00  0.00    -0.337 N 
ATOM     34  C   UNL     1      -0.235  -0.578  -2.858  0.00  0.00    +0.013 C 
BRANCH  25  35
ATOM     35  C   UNL     1       3.535   0.968   0.127  0.00  0.00    +0.251 C 
ATOM     36  O   UNL     1       3.410   2.221   0.198  0.00  0.00    -0.270 OA
ATOM     37  N   UNL     1       4.391   0.266   1.042  0.00  0.00    -0.281 N 
ATOM     38  H   UNL     1       4.525  -0.700   0.901  0.00  0.00    +0.000 HD
BRANCH  37  39
ATOM     39  C   UNL     1       5.065   0.883   2.151  0.00  0.00    +0.034 A 
ATOM     40  C   UNL     1       4.449   1.890   2.918  0.00  0.00    -0.040 A 
ATOM     41  C   UNL     1       5.117   2.450   4.011  0.00  0.00    -0.060 A 
ATOM     42  C   UNL     1       6.394   2.004   4.356  0.00  0.00    -0.062 A 
ATOM     43  C   UNL     1       7.003   0.988   3.615  0.00  0.00    -0.060 A 
ATOM     44  C   UNL     1       6.338   0.425   2.522  0.00  0.00    -0.040 A 
ENDBRANCH  37  39
ENDBRANCH  25  35
ENDBRANCH  23  24
ENDBRANCH   1  23
TORSDOF 7
