REMARK  Name = 
REMARK  5 active torsions:
REMARK  status: ('A' for Active; 'I' for Inactive)
REMARK    1  A    between atoms: C_2  and  C_3
REMARK    2  A    between atoms: C_3  and  C_4
REMARK    3  A    between atoms: N_6  and  N_7
REMARK    4  A    between atoms: N_7  and  C_8
REMARK    5  A    between atoms: C_11  and  O_12
REMARK                            x       y       z     vdW  Elec       q    Type
REMARK                         _______ _______ _______ _____ _____    ______ ____
ROOT
ATOM      1  N   UNL     1       0.137   0.500  -1.167  0.00  0.00    -0.236 N 
ATOM      2  H   UNL     1      -0.355   0.375  -2.011  0.00  0.00    +0.000 HD
ENDROOT
BRANCH   1   3
ATOM      3  C   UNL     1      -0.271  -0.225   0.003  0.00  0.00    +0.049 A 
ATOM      4  C   UNL     1      -1.366  -1.101  -0.069  0.00  0.00    -0.036 A 
ATOM      5  C   UNL     1      -1.777  -1.815   1.062  0.00  0.00    -0.018 A 
ATOM      6  C   UNL     1      -1.098  -1.659   2.277  0.00  0.00    +0.117 A 
ATOM      7  C   UNL     1      -0.007  -0.787   2.356  0.00  0.00    -0.018 A 
ATOM      8  C   UNL     1       0.406  -0.073   1.227  0.00  0.00    -0.036 A 
BRANCH   6   9
ATOM      9  O   UNL     1      -1.498  -2.364   3.410  0.00  0.00    -0.507 OA
ATOM     10  H   UNL     1      -2.228  -2.950   3.364  0.00  0.00    +0.000 HD
ENDBRANCH   6   9
ENDBRANCH   1   3
BRANCH   1  12
ATOM     11  C   UNL     1       1.652   2.072  -2.146  0.00  0.00    +0.234 C 
ATOM     12  N   UNL     1       1.230   1.386  -1.125  0.00  0.00    -0.160 NA
BRANCH  11  14
ATOM     13  N   UNL     1       3.688   3.649  -1.848  0.00  0.00    -0.188 NA
ATOM     14  C   UNL     1       2.779   2.945  -1.981  0.00  0.00    +0.132 C 
ENDBRANCH  11  14
BRANCH  11  15
ATOM     15  C   UNL     1       1.027   1.987  -3.442  0.00  0.00    +0.132 C 
ATOM     16  N   UNL     1       0.526   1.920  -4.483  0.00  0.00    -0.188 NA
ENDBRANCH  11  15
ENDBRANCH   1  12
TORSDOF 5
