REMARK  Name = 
REMARK  2 active torsions:
REMARK  status: ('A' for Active; 'I' for Inactive)
REMARK    1  A    between atoms: C_6  and  N_7
REMARK    2  A    between atoms: N_7  and  C_8
REMARK                            x       y       z     vdW  Elec       q    Type
REMARK                         _______ _______ _______ _____ _____    ______ ____
ROOT
ATOM      1  C   UNL     1       0.583  -0.356  -0.518  0.00  0.00    +0.042 A 
ATOM      2  C   UNL     1       0.428  -0.117  -1.893  0.00  0.00    -0.022 A 
ATOM      3  C   UNL     1       1.464   0.468  -2.620  0.00  0.00    +0.030 A 
ATOM      4  N   UNL     1       2.629   0.798  -2.006  0.00  0.00    -0.255 NA
ATOM      5  C   UNL     1       2.826   0.578  -0.679  0.00  0.00    +0.073 A 
ATOM      6  C   UNL     1       4.044   0.939  -0.091  0.00  0.00    -0.036 A 
ATOM      7  C   UNL     1       4.253   0.728   1.273  0.00  0.00    -0.060 A 
ATOM      8  C   UNL     1       3.247   0.162   2.058  0.00  0.00    -0.061 A 
ATOM      9  C   UNL     1       2.025  -0.203   1.483  0.00  0.00    -0.051 A 
ATOM     10  C   UNL     1       1.803  -0.009   0.105  0.00  0.00    +0.022 A 
ENDROOT
BRANCH   1  11
ATOM     11  N   UNL     1      -0.469  -1.006   0.216  0.00  0.00    -0.314 N 
ATOM     12  H   UNL     1      -0.224  -1.733   0.833  0.00  0.00    +0.000 HD
BRANCH  11  18
ATOM     13 BR   UNL     1      -4.151   2.700  -0.957  0.00  0.00    -0.050 Br
ATOM     14  C   UNL     1      -3.619   0.954  -0.395  0.00  0.00    +0.020 A 
ATOM     15  C   UNL     1      -4.587   0.001  -0.064  0.00  0.00    -0.048 A 
ATOM     16  C   UNL     1      -4.198  -1.272   0.360  0.00  0.00    -0.059 A 
ATOM     17  C   UNL     1      -2.841  -1.598   0.448  0.00  0.00    -0.040 A 
ATOM     18  C   UNL     1      -1.860  -0.655   0.101  0.00  0.00    +0.032 A 
ATOM     19  C   UNL     1      -2.260   0.631  -0.308  0.00  0.00    -0.027 A 
ENDBRANCH  11  18
ENDBRANCH   1  11
TORSDOF 2
