REMARK  Name = 
REMARK  4 active torsions:
REMARK  status: ('A' for Active; 'I' for Inactive)
REMARK    1  A    between atoms: N_1  and  N_2
REMARK    2  A    between atoms: N_2  and  C_3
REMARK    3  A    between atoms: C_9  and  N_10
REMARK    4  A    between atoms: N_10  and  C_11
REMARK                            x       y       z     vdW  Elec       q    Type
REMARK                         _______ _______ _______ _____ _____    ______ ____
ROOT
ATOM      1  C   UNL     1      -3.711  -0.476   0.713  0.00  0.00    +0.134 A 
ATOM      2  C   UNL     1      -3.034  -1.673   0.450  0.00  0.00    +0.005 A 
ATOM      3  C   UNL     1      -1.694  -1.632   0.058  0.00  0.00    +0.081 A 
ATOM      4  N   UNL     1      -1.023  -2.788  -0.183  0.00  0.00    -0.235 NA
ATOM      5  C   UNL     1       0.280  -2.772  -0.559  0.00  0.00    +0.119 A 
ATOM      6  N   UNL     1       0.933  -1.592  -0.708  0.00  0.00    -0.220 NA
ATOM      7  C   UNL     1       0.318  -0.399  -0.478  0.00  0.00    +0.135 A 
ATOM      8  C   UNL     1      -1.036  -0.392  -0.081  0.00  0.00    +0.059 A 
ATOM      9  C   UNL     1      -1.752   0.783   0.208  0.00  0.00    +0.042 A 
ATOM     10  N   UNL     1      -3.055   0.711   0.590  0.00  0.00    -0.238 NA
ENDROOT
BRANCH   1  11
ATOM     11  N   UNL     1      -5.085  -0.498   1.117  0.00  0.00    -0.267 N 
ATOM     12  H   UNL     1      -5.555  -1.359   1.199  0.00  0.00    +0.000 HD
BRANCH  11  13
ATOM     13  N   UNL     1      -5.769   0.696   1.397  0.00  0.00    -0.255 NA
ATOM     14  H   UNL     1      -6.730   0.482   1.666  0.00  0.00    +0.000 HD
ATOM     15  H   UNL     1      -5.773   1.289   0.567  0.00  0.00    +0.000 HD
ENDBRANCH  11  13
ENDBRANCH   1  11
BRANCH   7  16
ATOM     16  N   UNL     1       1.043   0.823  -0.702  0.00  0.00    -0.299 N 
ATOM     17  H   UNL     1       0.540   1.618  -0.990  0.00  0.00    +0.000 HD
BRANCH  16  18
ATOM     18  C   UNL     1       2.466   0.942  -0.525  0.00  0.00    +0.033 A 
ATOM     19  C   UNL     1       3.178   1.891  -1.275  0.00  0.00    -0.040 A 
ATOM     20  C   UNL     1       4.558   2.037  -1.104  0.00  0.00    -0.059 A 
ATOM     21  C   UNL     1       5.237   1.245  -0.175  0.00  0.00    -0.048 A 
ATOM     22  C   UNL     1       4.535   0.310   0.592  0.00  0.00    +0.020 A 
ATOM     23 BR   UNL     1       5.460  -0.757   1.878  0.00  0.00    -0.050 Br
ATOM     24  C   UNL     1       3.154   0.162   0.424  0.00  0.00    -0.027 A 
ENDBRANCH  16  18
ENDBRANCH   7  16
TORSDOF 4
