REMARK  Name = 
REMARK  9 active torsions:
REMARK  status: ('A' for Active; 'I' for Inactive)
REMARK    1  A    between atoms: C_1  and  O_2
REMARK    2  A    between atoms: O_2  and  C_3
REMARK    3  A    between atoms: C_6  and  N_7
REMARK    4  A    between atoms: C_14  and  O_15
REMARK    5  A    between atoms: O_15  and  C_16
REMARK    6  A    between atoms: C_17  and  O_18
REMARK    7  A    between atoms: O_18  and  C_19
REMARK    8  A    between atoms: C_23  and  O_24
REMARK    9  A    between atoms: O_24  and  C_25
REMARK                            x       y       z     vdW  Elec       q    Type
REMARK                         _______ _______ _______ _____ _____    ______ ____
ROOT
ATOM      1  N   UNL     1      -0.426  -0.073  -0.854  0.00  0.00    -0.299 N 
ATOM      2  C   UNL     1       0.527  -1.035  -0.370  0.00  0.00    +0.134 A 
ATOM      3  N   UNL     1       0.109  -2.298  -0.082  0.00  0.00    -0.220 NA
ATOM      4  C   UNL     1       0.973  -3.260   0.328  0.00  0.00    +0.119 A 
ATOM      5  N   UNL     1       2.294  -2.980   0.450  0.00  0.00    -0.235 NA
ATOM      6  C   UNL     1       2.776  -1.741   0.176  0.00  0.00    +0.080 A 
ATOM      7  C   UNL     1       4.142  -1.483   0.317  0.00  0.00    +0.010 A 
ATOM      8  C   UNL     1       4.657  -0.200   0.056  0.00  0.00    +0.164 A 
ATOM      9  C   UNL     1       3.790   0.829  -0.343  0.00  0.00    +0.162 A 
ATOM     10  C   UNL     1       2.412   0.569  -0.486  0.00  0.00    -0.004 A 
ATOM     11  C   UNL     1       1.898  -0.718  -0.243  0.00  0.00    +0.044 A 
ATOM     12  H   UNL     1      -0.117   0.610  -1.492  0.00  0.00    +0.000 HD
ENDROOT
BRANCH   1  16
ATOM     13  C   UNL     1      -4.519   0.039   0.313  0.00  0.00    +0.162 A 
ATOM     14  C   UNL     1      -3.546  -0.469   1.193  0.00  0.00    -0.015 A 
ATOM     15  C   UNL     1      -2.203  -0.511   0.815  0.00  0.00    -0.037 A 
ATOM     16  C   UNL     1      -1.807  -0.058  -0.453  0.00  0.00    +0.036 A 
ATOM     17  C   UNL     1      -2.773   0.467  -1.324  0.00  0.00    +0.005 A 
ATOM     18  C   UNL     1      -4.131   0.512  -0.950  0.00  0.00    +0.163 A 
BRANCH  13  20
ATOM     19  C   UNL     1      -6.415  -0.348   1.900  0.00  0.00    +0.079 C 
ATOM     20  O   UNL     1      -5.879   0.095   0.657  0.00  0.00    -0.491 OA
ENDBRANCH  13  20
BRANCH  18  21
ATOM     21  O   UNL     1      -5.122   1.021  -1.804  0.00  0.00    -0.491 OA
ATOM     22  C   UNL     1      -4.878   1.534  -3.110  0.00  0.00    +0.079 C 
ENDBRANCH  18  21
ENDBRANCH   1  16
BRANCH   8  23
ATOM     23  O   UNL     1       6.023   0.094   0.185  0.00  0.00    -0.491 OA
ATOM     24  C   UNL     1       7.018  -0.846   0.580  0.00  0.00    +0.079 C 
ENDBRANCH   8  23
BRANCH   9  25
ATOM     25  O   UNL     1       4.337   2.100  -0.584  0.00  0.00    -0.491 OA
ATOM     26  C   UNL     1       3.588   3.239  -0.995  0.00  0.00    +0.079 C 
ENDBRANCH   9  25
TORSDOF 5
