REMARK  Name = 
REMARK  8 active torsions:
REMARK  status: ('A' for Active; 'I' for Inactive)
REMARK    1  A    between atoms: C_1  and  N_2
REMARK    2  A    between atoms: C_4  and  C_5
REMARK    3  A    between atoms: C_6  and  C_7
REMARK    4  A    between atoms: N_9  and  C_10
REMARK    5  A    between atoms: C_10  and  C_11
REMARK    6  A    between atoms: C_11  and  C_12
REMARK    7  A    between atoms: C_12  and  C_13
REMARK    8  A    between atoms: C_13  and  N_14
REMARK                            x       y       z     vdW  Elec       q    Type
REMARK                         _______ _______ _______ _____ _____    ______ ____
ROOT
ATOM      1  C   UNL     1       0.896  -5.176   0.569  0.00  0.00    +0.000 C 
ATOM      2  C   UNL     1       1.546  -4.042   0.879  0.00  0.00    +0.000 C 
ATOM      3  C   UNL     1       1.645  -3.228  -0.350  0.00  0.00    +0.000 C 
ATOM      4  O   UNL     1       2.138  -2.123  -0.457  0.00  0.00    +0.000 OA
ATOM      5  N   UNL     1       1.074  -3.943  -1.343  0.00  0.00    +0.000 N 
ATOM      6  C   UNL     1       0.611  -5.129  -0.880  0.00  0.00    +0.000 C 
ATOM      7  O   UNL     1       0.071  -5.991  -1.550  0.00  0.00    +0.000 OA
ATOM      8  H   UNL     1       1.003  -3.643  -2.278  0.00  0.00    +0.000 HD
ENDROOT
BRANCH   1  12
ATOM      9  C   UNL     1      -1.750  -7.961   3.640  0.00  0.00    +0.000 C 
ATOM     10  N   UNL     1      -0.653  -7.491   2.823  0.00  0.00    +0.000 N 
ATOM     11  C   UNL     1      -0.674  -6.347   2.070  0.00  0.00    +0.000 A 
ATOM     12  C   UNL     1       0.536  -6.251   1.419  0.00  0.00    +0.000 A 
ATOM     13  C   UNL     1       1.329  -7.374   1.798  0.00  0.00    +0.000 A 
ATOM     14  C   UNL     1       2.629  -7.821   1.480  0.00  0.00    +0.000 A 
ATOM     15  C   UNL     1       3.120  -8.996   2.061  0.00  0.00    +0.000 A 
ATOM     16  C   UNL     1       2.339  -9.728   2.950  0.00  0.00    +0.000 A 
ATOM     17  C   UNL     1       1.047  -9.311   3.281  0.00  0.00    +0.000 A 
ATOM     18  C   UNL     1       0.562  -8.132   2.691  0.00  0.00    +0.000 A 
ENDBRANCH   1  12
BRANCH   2  19
ATOM     19  C   UNL     1       2.078  -3.642   2.124  0.00  0.00    +0.000 A 
ATOM     20  C   UNL     1       3.370  -3.889   2.516  0.00  0.00    +0.000 A 
ATOM     21  N   UNL     1       3.539  -3.351   3.766  0.00  0.00    +0.000 N 
ATOM     22  C   UNL     1       2.333  -2.865   4.237  0.00  0.00    +0.000 A 
ATOM     23  C   UNL     1       1.955  -2.337   5.483  0.00  0.00    +0.000 A 
ATOM     24  C   UNL     1       0.677  -1.779   5.608  0.00  0.00    +0.000 A 
ATOM     25  C   UNL     1      -0.216  -1.787   4.543  0.00  0.00    +0.000 A 
ATOM     26  C   UNL     1       0.129  -2.402   3.336  0.00  0.00    +0.000 A 
ATOM     27  C   UNL     1       1.420  -2.949   3.176  0.00  0.00    +0.000 A 
BRANCH  21  28
ATOM     28  C   UNL     1       4.826  -3.302   4.443  0.00  0.00    +0.000 C 
BRANCH  28  29
ATOM     29  C   UNL     1       5.902  -2.487   3.709  0.00  0.00    +0.000 C 
BRANCH  29  30
ATOM     30  C   UNL     1       5.579  -1.002   3.491  0.00  0.00    +0.000 C 
BRANCH  30  31
ATOM     31  C   UNL     1       5.324  -0.196   4.765  0.00  0.00    +0.000 C 
BRANCH  31  32
ATOM     32  N   UNL     1       6.482  -0.182   5.652  0.00  0.00    +0.000 N 
ATOM     33  H   UNL     1       6.701  -1.135   5.941  0.00  0.00    +0.000 HD
ATOM     34  H   UNL     1       6.274   0.384   6.474  0.00  0.00    +0.000 HD
ATOM     35  H   UNL     1       7.283   0.215   5.159  0.00  0.00    +0.000 HD
ENDBRANCH  31  32
ENDBRANCH  30  31
ENDBRANCH  29  30
ENDBRANCH  28  29
ENDBRANCH  21  28
ENDBRANCH   2  19
TORSDOF 7
