REMARK  Name = 
REMARK  7 active torsions:
REMARK  status: ('A' for Active; 'I' for Inactive)
REMARK    1  A    between atoms: C_1  and  C_2
REMARK    2  A    between atoms: C_5  and  S_6
REMARK    3  A    between atoms: S_6  and  C_7
REMARK    4  A    between atoms: C_13  and  C_14
REMARK    5  A    between atoms: N_15  and  O_16
REMARK    6  A    between atoms: O_16  and  C_17
REMARK    7  A    between atoms: C_17  and  C_18
REMARK                            x       y       z     vdW  Elec       q    Type
REMARK                         _______ _______ _______ _____ _____    ______ ____
ROOT
ATOM      1  C   UNL     1      -4.185   1.683  -0.067  0.00  0.00    +0.000 A 
ATOM      2  C   UNL     1      -3.889   2.549  -1.114  0.00  0.00    +0.000 A 
ATOM      3  N   UNL     1      -4.295   3.835  -1.184  0.00  0.00    +0.000 NA
ATOM      4  C   UNL     1      -5.060   4.330  -0.187  0.00  0.00    +0.000 A 
ATOM      5  C   UNL     1      -5.428   3.516   0.887  0.00  0.00    +0.000 A 
ATOM      6  S   UNL     1      -6.398   3.965   2.240  0.00  0.00    +0.000 S 
ATOM      7  C   UNL     1      -6.314   2.409   2.919  0.00  0.00    +0.000 A 
ATOM      8  C   UNL     1      -5.547   1.560   2.154  0.00  0.00    +0.000 A 
ATOM      9  C   UNL     1      -5.011   2.181   0.969  0.00  0.00    +0.000 A 
ENDROOT
BRANCH   7  10
ATOM     10  C   UNL     1      -7.029   2.122   4.134  0.00  0.00    +0.000 C 
ATOM     11  N   UNL     1      -7.427   0.915   4.381  0.00  0.00    +0.000 NA
BRANCH  11  12
ATOM     12  O   UNL     1      -8.145   0.890   5.589  0.00  0.00    +0.000 OA
BRANCH  12  13
ATOM     13  C   UNL     1      -8.579  -0.448   5.811  0.00  0.00    +0.000 C 
BRANCH  13  14
ATOM     14  C   UNL     1      -9.373  -0.572   7.105  0.00  0.00    +0.000 C 
ATOM     15  N   UNL     1     -10.075   0.523   7.506  0.00  0.00    +0.000 N 
ATOM     16  O   UNL     1      -9.437  -1.618   7.752  0.00  0.00    +0.000 OA
ATOM     17  H   UNL     1     -10.023   1.358   6.988  0.00  0.00    +0.000 HD
ATOM     18  H   UNL     1     -10.636   0.479   8.314  0.00  0.00    +0.000 HD
ENDBRANCH  13  14
ENDBRANCH  12  13
ENDBRANCH  11  12
ENDBRANCH   7  10
BRANCH   1  19
ATOM     19  S   UNL     1      -3.630   0.005  -0.034  0.00  0.00    +0.000 S 
BRANCH  19  24
ATOM     20  C   UNL     1       1.850  -0.157   2.685  0.00  0.00    +0.000 C 
ATOM     21  C   UNL     1       0.496  -0.092   2.043  0.00  0.00    +0.000 A 
ATOM     22  C   UNL     1      -0.163   1.131   1.884  0.00  0.00    +0.000 A 
ATOM     23  C   UNL     1      -1.423   1.193   1.278  0.00  0.00    +0.000 A 
ATOM     24  C   UNL     1      -2.047   0.037   0.801  0.00  0.00    +0.000 A 
ATOM     25  C   UNL     1      -1.385  -1.190   0.972  0.00  0.00    +0.000 A 
ATOM     26  C   UNL     1      -0.130  -1.256   1.589  0.00  0.00    +0.000 A 
ENDBRANCH  19  24
ENDBRANCH   1  19
TORSDOF 6
