REMARK  Name = 
REMARK  7 active torsions:
REMARK  status: ('A' for Active; 'I' for Inactive)
REMARK    1  A    between atoms: C_1  and  C_2
REMARK    2  A    between atoms: C_10  and  C_11
REMARK    3  A    between atoms: C_14  and  N_15
REMARK    4  A    between atoms: C_20  and  C_22
REMARK    5  A    between atoms: C_22  and  C_23
REMARK    6  A    between atoms: C_22  and  C_24
REMARK    7  A    between atoms: C_22  and  C_25
REMARK                            x       y       z     vdW  Elec       q    Type
REMARK                         _______ _______ _______ _____ _____    ______ ____
ROOT
ATOM      1  C   UNL     1       1.864   1.822   1.085  0.00  0.00    +0.000 C 
ATOM      2  C   UNL     1       0.476   1.385   0.593  0.00  0.00    +0.000 C 
ATOM      3  C   UNL     1       0.059   2.352  -0.549  0.00  0.00    +0.000 C 
ATOM      4  C   UNL     1      -0.674   3.546   0.023  0.00  0.00    +0.000 A 
ATOM      5  C   UNL     1      -0.070   4.803   0.151  0.00  0.00    +0.000 A 
ATOM      6  C   UNL     1      -0.768   5.780   0.839  0.00  0.00    +0.000 A 
ATOM      7  C   UNL     1      -2.017   5.557   1.364  0.00  0.00    +0.000 A 
ATOM      8  C   UNL     1      -2.658   4.347   1.237  0.00  0.00    +0.000 A 
ATOM      9  C   UNL     1      -1.964   3.335   0.568  0.00  0.00    +0.000 A 
ATOM     10  C   UNL     1      -2.521   1.951   0.534  0.00  0.00    +0.000 C 
ATOM     11  N   UNL     1      -1.880   0.927   1.036  0.00  0.00    +0.000 NA
ATOM     12  N   UNL     1      -0.638   1.203   1.590  0.00  0.00    +0.000 N 
ATOM     13  C   UNL     1      -0.456   1.013   2.973  0.00  0.00    +0.000 C 
ATOM     14  O   UNL     1       0.614   1.260   3.529  0.00  0.00    +0.000 OA
ATOM     15  O   UNL     1      -2.501   6.636   2.037  0.00  0.00    +0.000 OA
ATOM     16  C   UNL     1      -1.357   7.513   1.985  0.00  0.00    +0.000 C 
ATOM     17  O   UNL     1      -0.305   7.026   1.127  0.00  0.00    +0.000 OA
ENDROOT
BRANCH  10  18
ATOM     18  C   UNL     1      -3.878   1.766  -0.054  0.00  0.00    +0.000 A 
ATOM     19  C   UNL     1      -4.309   2.589  -1.098  0.00  0.00    +0.000 A 
ATOM     20  C   UNL     1      -5.618   2.491  -1.567  0.00  0.00    +0.000 A 
ATOM     21  C   UNL     1      -6.525   1.610  -0.975  0.00  0.00    +0.000 A 
ATOM     22  C   UNL     1      -6.058   0.715  -0.009  0.00  0.00    +0.000 A 
ATOM     23  C   UNL     1      -4.740   0.792   0.455  0.00  0.00    +0.000 A 
BRANCH  21  24
ATOM     24  N   UNL     1      -7.814   1.474  -1.503  0.00  0.00    +0.000 N 
ATOM     25  H   UNL     1      -8.137   2.108  -2.183  0.00  0.00    +0.000 HD
ATOM     26  H   UNL     1      -8.398   0.744  -1.193  0.00  0.00    +0.000 HD
ENDBRANCH  21  24
ENDBRANCH  10  18
BRANCH  13  27
ATOM     27  C   UNL     1      -1.648   0.441   3.824  0.00  0.00    +0.000 C 
ATOM     28  C   UNL     1      -1.938  -1.001   3.369  0.00  0.00    +0.000 C 
ATOM     29  C   UNL     1      -1.234   0.392   5.318  0.00  0.00    +0.000 C 
ATOM     30  C   UNL     1      -2.929   1.291   3.805  0.00  0.00    +0.000 C 
ENDBRANCH  13  27
TORSDOF 3
