REMARK  Name = 
REMARK  8 active torsions:
REMARK  status: ('A' for Active; 'I' for Inactive)
REMARK    1  A    between atoms: C_1  and  C_2
REMARK    2  A    between atoms: C_2  and  C_3
REMARK    3  A    between atoms: C_3  and  C_4
REMARK    4  A    between atoms: C_4  and  C_5
REMARK    5  A    between atoms: N_13  and  C_14
REMARK    6  A    between atoms: C_14  and  C_15
REMARK    7  A    between atoms: C_18  and  C_19
REMARK    8  A    between atoms: C_24  and  C_25
REMARK                            x       y       z     vdW  Elec       q    Type
REMARK                         _______ _______ _______ _____ _____    ______ ____
ROOT
ATOM      1  C   UNL     1      -0.629   1.300  -0.726  0.00  0.00    +0.000 A 
ATOM      2  C   UNL     1       0.750   1.094  -0.628  0.00  0.00    +0.000 A 
ATOM      3  C   UNL     1       1.430   1.277   0.592  0.00  0.00    +0.000 A 
ATOM      4  C   UNL     1       0.762   1.665   1.766  0.00  0.00    +0.000 A 
ATOM      5  C   UNL     1      -0.571   2.087   1.597  0.00  0.00    +0.000 A 
ATOM      6  C   UNL     1      -1.255   1.917   0.373  0.00  0.00    +0.000 A 
ENDROOT
BRANCH   4   7
ATOM      7  C   UNL     1       1.409   1.571   3.114  0.00  0.00    +0.000 A 
ATOM      8  C   UNL     1       1.190   2.596   4.066  0.00  0.00    +0.000 A 
ATOM      9  C   UNL     1       1.734   2.553   5.361  0.00  0.00    +0.000 A 
ATOM     10  C   UNL     1       2.527   1.486   5.754  0.00  0.00    +0.000 A 
ATOM     11  C   UNL     1       2.767   0.458   4.853  0.00  0.00    +0.000 A 
ATOM     12  C   UNL     1       2.218   0.480   3.547  0.00  0.00    +0.000 A 
BRANCH  12  13
ATOM     13  C   UNL     1       2.480  -0.738   2.723  0.00  0.00    +0.000 C 
ATOM     14  O   UNL     1       1.762  -1.251   1.893  0.00  0.00    +0.000 OA
ATOM     15  O   UNL     1       3.682  -1.285   3.000  0.00  0.00    +0.000 OA
ENDBRANCH  12  13
ENDBRANCH   4   7
BRANCH   1  16
ATOM     16  C   UNL     1      -1.385   0.945  -1.982  0.00  0.00    +0.000 C 
BRANCH  16  25
ATOM     17  C   UNL     1      -1.530  -1.682  -1.683  0.00  0.00    +0.000 A 
ATOM     18  N   UNL     1      -2.187  -2.645  -2.313  0.00  0.00    +0.000 NA
ATOM     19  C   UNL     1      -2.771  -2.095  -3.407  0.00  0.00    +0.000 A 
ATOM     20  C   UNL     1      -3.554  -2.687  -4.389  0.00  0.00    +0.000 A 
ATOM     21  N   UNL     1      -3.987  -1.917  -5.414  0.00  0.00    +0.000 NA
ATOM     22  N   UNL     1      -3.666  -0.575  -5.482  0.00  0.00    +0.000 NA
ATOM     23  C   UNL     1      -2.923   0.031  -4.527  0.00  0.00    +0.000 A 
ATOM     24  C   UNL     1      -2.473  -0.741  -3.466  0.00  0.00    +0.000 A 
ATOM     25  N   UNL     1      -1.729  -0.460  -2.306  0.00  0.00    +0.000 N 
BRANCH  17  26
ATOM     26  C   UNL     1      -0.681  -2.054  -0.516  0.00  0.00    +0.000 C 
BRANCH  26  27
ATOM     27  C   UNL     1      -1.161  -1.643   0.866  0.00  0.00    +0.000 C 
BRANCH  27  29
ATOM     28  C   UNL     1      -3.711  -1.477   0.464  0.00  0.00    +0.000 C 
ATOM     29  C   UNL     1      -2.573  -1.999   1.322  0.00  0.00    +0.000 C 
ENDBRANCH  27  29
ENDBRANCH  26  27
ENDBRANCH  17  26
ENDBRANCH  16  25
ENDBRANCH   1  16
TORSDOF 7
