REMARK  Name = 
REMARK  8 active torsions:
REMARK  status: ('A' for Active; 'I' for Inactive)
REMARK    1  A    between atoms: C_1  and  C_2
REMARK    2  A    between atoms: C_2  and  C_3
REMARK    3  A    between atoms: C_3  and  C_4
REMARK    4  A    between atoms: C_16  and  C_17
REMARK    5  A    between atoms: C_16  and  C_18
REMARK    6  A    between atoms: C_22  and  C_23
REMARK    7  A    between atoms: C_24  and  C_25
REMARK    8  A    between atoms: C_26  and  O_27
REMARK                            x       y       z     vdW  Elec       q    Type
REMARK                         _______ _______ _______ _____ _____    ______ ____
ROOT
ATOM      1  C   UNL     1       0.405   0.352  -1.532  0.00  0.00    +0.000 A 
ATOM      2  C   UNL     1      -0.087   0.168  -0.284  0.00  0.00    +0.000 A 
ATOM      3  C   UNL     1      -1.146  -0.808  -0.018  0.00  0.00    +0.000 A 
ATOM      4  O   UNL     1      -1.920  -0.691   0.923  0.00  0.00    +0.000 OA
ATOM      5  O   UNL     1      -1.238  -1.828  -0.919  0.00  0.00    +0.000 OA
ATOM      6  C   UNL     1      -0.144  -1.937  -1.763  0.00  0.00    +0.000 A 
ATOM      7  C   UNL     1       0.558  -3.124  -1.757  0.00  0.00    +0.000 A 
ATOM      8  C   UNL     1       1.324  -3.439  -2.868  0.00  0.00    +0.000 A 
ATOM      9  C   UNL     1       1.523  -2.466  -3.862  0.00  0.00    +0.000 A 
ATOM     10  C   UNL     1       1.154  -1.128  -3.596  0.00  0.00    +0.000 A 
ATOM     11  C   UNL     1       0.390  -0.846  -2.441  0.00  0.00    +0.000 A 
ATOM     12  O   UNL     1       1.534  -0.099  -4.434  0.00  0.00    +0.000 OA
ATOM     13  C   UNL     1       2.393  -0.385  -5.582  0.00  0.00    +0.000 C 
ATOM     14  C   UNL     1       1.813   0.348  -6.806  0.00  0.00    +0.000 C 
ATOM     15  C   UNL     1       3.786   0.182  -5.288  0.00  0.00    +0.000 C 
ATOM     16  C   UNL     1       2.558  -1.834  -5.933  0.00  0.00    +0.000 C 
ATOM     17  C   UNL     1       2.167  -2.807  -5.112  0.00  0.00    +0.000 C 
ATOM     18  O   UNL     1       1.851  -4.695  -3.012  0.00  0.00    +0.000 OA
ATOM     19  C   UNL     1       1.945  -5.510  -1.825  0.00  0.00    +0.000 C 
ATOM     20  C   UNL     1       2.063  -6.961  -2.267  0.00  0.00    +0.000 C 
ATOM     21  C   UNL     1       0.803  -5.343  -0.808  0.00  0.00    +0.000 C 
ATOM     22  C   UNL     1      -0.569  -5.848  -1.269  0.00  0.00    +0.000 C 
ATOM     23  C   UNL     1       0.748  -3.876  -0.473  0.00  0.00    +0.000 C 
ENDROOT
BRANCH  23  24
ATOM     24  O   UNL     1      -0.185  -3.651   0.576  0.00  0.00    +0.000 OA
ATOM     25  H   UNL     1      -1.061  -3.967   0.303  0.00  0.00    +0.000 HD
ENDBRANCH  23  24
BRANCH   1  26
ATOM     26  C   UNL     1       1.209   1.600  -1.755  0.00  0.00    +0.000 C 
BRANCH  26  28
ATOM     27  C   UNL     1       1.000   4.092  -2.193  0.00  0.00    +0.000 C 
ATOM     28  C   UNL     1       0.322   2.731  -2.294  0.00  0.00    +0.000 C 
ENDBRANCH  26  28
ENDBRANCH   1  26
TORSDOF 3
