REMARK  Name = 
REMARK  12 active torsions:
REMARK  status: ('A' for Active; 'I' for Inactive)
REMARK    1  A    between atoms: C_1  and  C_2
REMARK    2  A    between atoms: C_2  and  C_3
REMARK    3  A    between atoms: C_3  and  C_4
REMARK    4  A    between atoms: C_10  and  C_11
REMARK    5  A    between atoms: C_11  and  O_12
REMARK    6  A    between atoms: C_11  and  C_13
REMARK    7  A    between atoms: C_13  and  C_14
REMARK    8  A    between atoms: C_15  and  O_16
REMARK    9  A    between atoms: O_16  and  C_17
REMARK   10  A    between atoms: C_17  and  C_18
REMARK   11  A    between atoms: C_23  and  C_24
REMARK   12  A    between atoms: C_23  and  C_25
REMARK                            x       y       z     vdW  Elec       q    Type
REMARK                         _______ _______ _______ _____ _____    ______ ____
ROOT
ATOM      1  C   UNL     1      -0.125  -0.092   2.134  0.00  0.00    +0.000 A 
ATOM      2  C   UNL     1      -1.308   0.173   1.536  0.00  0.00    +0.000 A 
ATOM      3  C   UNL     1      -1.032   0.481   0.095  0.00  0.00    +0.000 A 
ATOM      4  O   UNL     1      -1.744   0.098  -0.820  0.00  0.00    +0.000 OA
ATOM      5  O   UNL     1       0.078   1.322  -0.086  0.00  0.00    +0.000 OA
ATOM      6  C   UNL     1       0.732   1.888   1.062  0.00  0.00    +0.000 A 
ATOM      7  C   UNL     1       1.305   3.168   0.926  0.00  0.00    +0.000 A 
ATOM      8  C   UNL     1       1.666   3.789   2.141  0.00  0.00    +0.000 A 
ATOM      9  C   UNL     1       1.629   3.053   3.379  0.00  0.00    +0.000 A 
ATOM     10  C   UNL     1       1.155   1.730   3.439  0.00  0.00    +0.000 A 
ATOM     11  C   UNL     1       0.644   1.166   2.272  0.00  0.00    +0.000 A 
ATOM     12  O   UNL     1       1.100   0.990   4.594  0.00  0.00    +0.000 OA
ATOM     13  C   UNL     1       1.580   1.554   5.838  0.00  0.00    +0.000 C 
ATOM     14  C   UNL     1       0.434   1.441   6.853  0.00  0.00    +0.000 C 
ATOM     15  C   UNL     1       2.765   0.709   6.331  0.00  0.00    +0.000 C 
ATOM     16  C   UNL     1       2.017   2.990   5.768  0.00  0.00    +0.000 C 
ATOM     17  C   UNL     1       2.051   3.695   4.633  0.00  0.00    +0.000 C 
ENDROOT
BRANCH   1  18
ATOM     18  C   UNL     1       0.663  -1.315   1.697  0.00  0.00    +0.000 C 
BRANCH  18  20
ATOM     19  C   UNL     1       0.548  -2.540   3.935  0.00  0.00    +0.000 C 
ATOM     20  C   UNL     1       1.431  -2.008   2.816  0.00  0.00    +0.000 C 
ENDBRANCH  18  20
ENDBRANCH   1  18
BRANCH   7  21
ATOM     21  C   UNL     1       1.425   3.701  -0.494  0.00  0.00    +0.000 C 
BRANCH  21  22
ATOM     22  O   UNL     1       0.946   5.034  -0.608  0.00  0.00    +0.000 OA
ATOM     23  H   UNL     1       1.518   5.628  -0.097  0.00  0.00    +0.000 HD
ENDBRANCH  21  22
BRANCH  21  24
ATOM     24  C   UNL     1       2.823   3.575  -1.134  0.00  0.00    +0.000 C 
ATOM     25  C   UNL     1       3.331   2.144  -1.280  0.00  0.00    +0.000 C 
ENDBRANCH  21  24
ENDBRANCH   7  21
BRANCH   8  26
ATOM     26  O   UNL     1       1.812   5.145   2.340  0.00  0.00    +0.000 OA
BRANCH  26  27
ATOM     27  C   UNL     1       2.640   5.932   1.499  0.00  0.00    +0.000 C 
ATOM     28  C   UNL     1       3.410   6.924   2.357  0.00  0.00    +0.000 C 
ENDBRANCH  26  27
ENDBRANCH   8  26
TORSDOF 7
