REMARK  Name = 
REMARK  10 active torsions:
REMARK  status: ('A' for Active; 'I' for Inactive)
REMARK    1  A    between atoms: C_2  and  C_3
REMARK    2  A    between atoms: C_3  and  N_4
REMARK    3  A    between atoms: N_4  and  C_5
REMARK    4  A    between atoms: N_4  and  C_18
REMARK    5  A    between atoms: C_5  and  C_6
REMARK    6  A    between atoms: C_11  and  C_12
REMARK    7  A    between atoms: C_14  and  O_15
REMARK    8  A    between atoms: C_21  and  C_22
REMARK    9  A    between atoms: N_24  and  C_25
REMARK   10  A    between atoms: C_25  and  C_26
REMARK                            x       y       z     vdW  Elec       q    Type
REMARK                         _______ _______ _______ _____ _____    ______ ____
ROOT
ATOM      1  N   UNL     1      -2.129   0.561   1.466  0.00  0.00    +0.000 N 
ENDROOT
BRANCH   1   2
ATOM      2  C   UNL     1      -1.820   0.045   2.746  0.00  0.00    +0.000 A 
ATOM      3  C   UNL     1      -0.875  -0.952   3.015  0.00  0.00    +0.000 A 
ATOM      4  C   UNL     1      -0.723  -1.684   4.204  0.00  0.00    +0.000 A 
ATOM      5  C   UNL     1      -1.388  -1.287   5.338  0.00  0.00    +0.000 A 
ATOM      6  C   UNL     1      -2.155  -0.126   5.224  0.00  0.00    +0.000 A 
ATOM      7  C   UNL     1      -2.374   0.504   3.955  0.00  0.00    +0.000 A 
BRANCH   5   8
ATOM      8  C   UNL     1      -1.143  -2.093   6.578  0.00  0.00    +0.000 C 
ATOM      9  O   UNL     1      -0.412  -3.080   6.551  0.00  0.00    +0.000 OA
ATOM     10  N   UNL     1      -1.787  -1.689   7.722  0.00  0.00    +0.000 N 
ATOM     11  H   UNL     1      -2.282  -0.838   7.721  0.00  0.00    +0.000 HD
BRANCH  10  12
ATOM     12  C   UNL     1      -1.753  -2.485   8.927  0.00  0.00    +0.000 C 
BRANCH  12  13
ATOM     13  C   UNL     1      -2.963  -3.384   9.033  0.00  0.00    +0.000 A 
ATOM     14  C   UNL     1      -2.866  -4.742   8.739  0.00  0.00    +0.000 A 
ATOM     15  C   UNL     1      -4.012  -5.533   8.845  0.00  0.00    +0.000 A 
ATOM     16  C   UNL     1      -5.215  -4.943   9.206  0.00  0.00    +0.000 A 
ATOM     17  C   UNL     1      -5.227  -3.586   9.468  0.00  0.00    +0.000 A 
ATOM     18  N   UNL     1      -4.134  -2.793   9.386  0.00  0.00    +0.000 NA
ENDBRANCH  12  13
ENDBRANCH  10  12
ENDBRANCH   5   8
ENDBRANCH   1   2
BRANCH   1  19
ATOM     19  C   UNL     1      -1.748   0.051   0.041  0.00  0.00    +0.000 C 
BRANCH  19  21
ATOM     20  C   UNL     1       0.008  -2.121   0.460  0.00  0.00    +0.000 C 
ATOM     21  C   UNL     1      -0.803  -1.118   0.266  0.00  0.00    +0.000 C 
ENDBRANCH  19  21
ENDBRANCH   1  19
BRANCH   1  22
ATOM     22  C   UNL     1      -3.088   1.669   1.376  0.00  0.00    +0.000 C 
BRANCH  22  23
ATOM     23  C   UNL     1      -2.396   3.011   1.293  0.00  0.00    +0.000 A 
ATOM     24  C   UNL     1      -1.003   3.156   1.312  0.00  0.00    +0.000 A 
ATOM     25  C   UNL     1      -0.410   4.401   1.096  0.00  0.00    +0.000 A 
ATOM     26  C   UNL     1      -1.170   5.537   0.881  0.00  0.00    +0.000 A 
ATOM     27  N   UNL     1      -0.557   6.702   0.646  0.00  0.00    +0.000 NA
ATOM     28  C   UNL     1      -1.328   7.788   0.456  0.00  0.00    +0.000 A 
ATOM     29  C   UNL     1      -0.621   9.075   0.180  0.00  0.00    +0.000 C 
ATOM     30  N   UNL     1      -2.671   7.797   0.493  0.00  0.00    +0.000 NA
ATOM     31  C   UNL     1      -3.235   6.608   0.727  0.00  0.00    +0.000 A 
ATOM     32  C   UNL     1      -2.559   5.414   0.920  0.00  0.00    +0.000 A 
ATOM     33  C   UNL     1      -3.173   4.160   1.125  0.00  0.00    +0.000 A 
BRANCH  31  34
ATOM     34  O   UNL     1      -4.594   6.661   0.772  0.00  0.00    +0.000 OA
ATOM     35  H   UNL     1      -5.035   7.477   0.639  0.00  0.00    +0.000 HD
ENDBRANCH  31  34
ENDBRANCH  22  23
ENDBRANCH   1  22
TORSDOF 9
