REMARK  Name = 
REMARK  8 active torsions:
REMARK  status: ('A' for Active; 'I' for Inactive)
REMARK    1  A    between atoms: C_1  and  C_2
REMARK    2  A    between atoms: C_2  and  N_3
REMARK    3  A    between atoms: C_7  and  N_8
REMARK    4  A    between atoms: N_8  and  C_9
REMARK    5  A    between atoms: C_9  and  C_10
REMARK    6  A    between atoms: C_13  and  O_14
REMARK    7  A    between atoms: O_14  and  C_15
REMARK    8  A    between atoms: C_19  and  C_20
REMARK                            x       y       z     vdW  Elec       q    Type
REMARK                         _______ _______ _______ _____ _____    ______ ____
ROOT
ATOM      1  N   UNL     1       0.863  -0.487  -2.389  0.00  0.00    +0.000 N 
ATOM      2  N   UNL     1       1.477   0.053  -3.462  0.00  0.00    +0.000 NA
ATOM      3  C   UNL     1       1.638  -0.995  -4.274  0.00  0.00    +0.000 A 
ATOM      4  C   UNL     1       1.134  -2.212  -3.752  0.00  0.00    +0.000 A 
ATOM      5  C   UNL     1       1.002  -3.564  -4.163  0.00  0.00    +0.000 A 
ATOM      6  C   UNL     1       0.444  -4.423  -3.172  0.00  0.00    +0.000 A 
ATOM      7  C   UNL     1       0.037  -3.920  -1.940  0.00  0.00    +0.000 A 
ATOM      8  N   UNL     1       0.112  -2.629  -1.553  0.00  0.00    +0.000 NA
ATOM      9  C   UNL     1       0.671  -1.840  -2.492  0.00  0.00    +0.000 A 
ENDROOT
BRANCH   6  10
ATOM     10  C   UNL     1       0.337  -5.878  -3.425  0.00  0.00    +0.000 C 
ATOM     11  O   UNL     1       1.014  -6.518  -4.210  0.00  0.00    +0.000 OA
ATOM     12  O   UNL     1      -0.629  -6.465  -2.696  0.00  0.00    +0.000 OA
ENDBRANCH   6  10
BRANCH   1  14
ATOM     13  C   UNL     1      -0.961   0.917  -1.526  0.00  0.00    +0.000 C 
ATOM     14  C   UNL     1       0.438   0.367  -1.300  0.00  0.00    +0.000 C 
ENDBRANCH   1  14
BRANCH   5  15
ATOM     15  N   UNL     1       1.240  -4.076  -5.443  0.00  0.00    +0.000 N 
ATOM     16  H   UNL     1       1.032  -5.027  -5.586  0.00  0.00    +0.000 HD
BRANCH  15  17
ATOM     17  C   UNL     1       1.761  -3.343  -6.580  0.00  0.00    +0.000 C 
BRANCH  17  18
ATOM     18  C   UNL     1       3.268  -3.231  -6.577  0.00  0.00    +0.000 A 
ATOM     19  C   UNL     1       4.098  -4.271  -6.143  0.00  0.00    +0.000 A 
ATOM     20  C   UNL     1       5.487  -4.149  -6.219  0.00  0.00    +0.000 A 
ATOM     21  C   UNL     1       6.093  -2.993  -6.727  0.00  0.00    +0.000 A 
ATOM     22  C   UNL     1       5.273  -1.960  -7.194  0.00  0.00    +0.000 A 
ATOM     23 CL   UNL     1       5.851  -0.521  -7.953  0.00  0.00    +0.000 Cl
ATOM     24  C   UNL     1       3.876  -2.089  -7.121  0.00  0.00    +0.000 A 
BRANCH  21  25
ATOM     25  O   UNL     1       7.458  -3.085  -6.784  0.00  0.00    +0.000 OA
ATOM     26  C   UNL     1       8.204  -1.912  -6.490  0.00  0.00    +0.000 C 
ENDBRANCH  21  25
ENDBRANCH  17  18
ENDBRANCH  15  17
ENDBRANCH   5  15
TORSDOF 6
