REMARK  Name = 
REMARK  7 active torsions:
REMARK  status: ('A' for Active; 'I' for Inactive)
REMARK    1  A    between atoms: C_1  and  C_2
REMARK    2  A    between atoms: C_2  and  N_3
REMARK    3  A    between atoms: N_3  and  C_4
REMARK    4  A    between atoms: C_4  and  C_5
REMARK    5  A    between atoms: N_8  and  C_9
REMARK    6  A    between atoms: C_16  and  C_17
REMARK    7  A    between atoms: N_21  and  C_22
REMARK                            x       y       z     vdW  Elec       q    Type
REMARK                         _______ _______ _______ _____ _____    ______ ____
ROOT
ATOM      1  C   UNL     1      -0.715  -6.813  -2.735  0.00  0.00    +0.000 A 
ATOM      2  C   UNL     1      -0.795  -6.831  -4.131  0.00  0.00    +0.000 A 
ATOM      3  F   UNL     1      -0.599  -5.714  -4.848  0.00  0.00    +0.000 F 
ATOM      4  C   UNL     1      -0.991  -8.007  -4.844  0.00  0.00    +0.000 A 
ATOM      5  C   UNL     1      -1.159  -9.221  -4.165  0.00  0.00    +0.000 A 
ATOM      6  C   UNL     1      -1.357 -10.444  -4.986  0.00  0.00    +0.000 A 
ATOM      7  O   UNL     1      -1.370 -10.348  -6.207  0.00  0.00    +0.000 OA
ATOM      8  C   UNL     1      -1.517 -11.726  -4.272  0.00  0.00    +0.000 A 
ATOM      9  C   UNL     1      -1.494 -11.675  -2.931  0.00  0.00    +0.000 A 
ATOM     10  N   UNL     1      -1.363 -10.550  -2.124  0.00  0.00    +0.000 N 
ATOM     11  C   UNL     1      -1.132  -9.292  -2.757  0.00  0.00    +0.000 A 
ATOM     12  C   UNL     1      -0.868  -8.070  -2.087  0.00  0.00    +0.000 A 
ATOM     13  F   UNL     1      -0.757  -8.069  -0.749  0.00  0.00    +0.000 F 
ENDROOT
BRANCH   1  17
ATOM     14  C   UNL     1       0.833  -4.193  -0.672  0.00  0.00    +0.000 C 
ATOM     15  C   UNL     1       0.293  -3.464  -1.908  0.00  0.00    +0.000 C 
ATOM     16  C   UNL     1      -0.878  -4.314  -2.378  0.00  0.00    +0.000 C 
ATOM     17  N   UNL     1      -0.475  -5.661  -2.011  0.00  0.00    +0.000 N 
ATOM     18  C   UNL     1       0.394  -5.659  -0.840  0.00  0.00    +0.000 C 
BRANCH  14  19
ATOM     19  C   UNL     1       2.358  -4.082  -0.524  0.00  0.00    +0.000 C 
BRANCH  19  20
ATOM     20  N   UNL     1       2.883  -2.724  -0.372  0.00  0.00    +0.000 N 
ATOM     21  H   UNL     1       3.901  -2.771  -0.341  0.00  0.00    +0.000 HD
ATOM     22  H   UNL     1       2.548  -2.179  -1.166  0.00  0.00    +0.000 HD
BRANCH  20  24
ATOM     23  C   UNL     1       3.060  -0.687   0.965  0.00  0.00    +0.000 C 
ATOM     24  C   UNL     1       2.413  -2.058   0.839  0.00  0.00    +0.000 C 
ENDBRANCH  20  24
ENDBRANCH  19  20
ENDBRANCH  14  19
ENDBRANCH   1  17
BRANCH  10  25
ATOM     25  C   UNL     1      -1.431 -10.606  -0.642  0.00  0.00    +0.000 C 
ATOM     26  C   UNL     1      -0.067 -10.882  -0.009  0.00  0.00    +0.000 C 
ATOM     27  C   UNL     1      -0.379 -11.368   1.406  0.00  0.00    +0.000 C 
ATOM     28  C   UNL     1      -1.856 -11.762   1.414  0.00  0.00    +0.000 C 
ATOM     29  C   UNL     1      -2.296 -11.724  -0.045  0.00  0.00    +0.000 C 
ENDBRANCH  10  25
BRANCH   8  30
ATOM     30  C   UNL     1      -1.717 -13.047  -4.889  0.00  0.00    +0.000 C 
ATOM     31  O   UNL     1      -1.878 -14.097  -4.284  0.00  0.00    +0.000 OA
ATOM     32  O   UNL     1      -1.726 -13.040  -6.230  0.00  0.00    +0.000 OA
ENDBRANCH   8  30
TORSDOF 6
