REMARK  Name = 
REMARK  8 active torsions:
REMARK  status: ('A' for Active; 'I' for Inactive)
REMARK    1  A    between atoms: C_1  and  C_2
REMARK    2  A    between atoms: C_2  and  C_3
REMARK    3  A    between atoms: C_3  and  C_4
REMARK    4  A    between atoms: C_16  and  C_17
REMARK    5  A    between atoms: C_16  and  C_18
REMARK    6  A    between atoms: C_22  and  C_23
REMARK    7  A    between atoms: C_24  and  C_25
REMARK    8  A    between atoms: C_26  and  O_27
REMARK                            x       y       z     vdW  Elec       q    Type
REMARK                         _______ _______ _______ _____ _____    ______ ____
ROOT
ATOM      1  C   UNL     1       0.328   0.984   1.162  0.00  0.00    +0.000 A 
ATOM      2  C   UNL     1      -0.033   0.063   0.236  0.00  0.00    +0.000 A 
ATOM      3  C   UNL     1      -0.761   0.386  -0.990  0.00  0.00    +0.000 A 
ATOM      4  O   UNL     1      -1.134  -0.468  -1.783  0.00  0.00    +0.000 OA
ATOM      5  O   UNL     1      -1.065   1.700  -1.130  0.00  0.00    +0.000 OA
ATOM      6  C   UNL     1      -0.080   2.514  -0.582  0.00  0.00    +0.000 A 
ATOM      7  C   UNL     1       0.557   3.346  -1.468  0.00  0.00    +0.000 A 
ATOM      8  C   UNL     1       1.099   4.516  -0.981  0.00  0.00    +0.000 A 
ATOM      9  C   UNL     1       1.195   4.685   0.408  0.00  0.00    +0.000 A 
ATOM     10  C   UNL     1       0.932   3.584   1.277  0.00  0.00    +0.000 A 
ATOM     11  C   UNL     1       0.326   2.419   0.742  0.00  0.00    +0.000 A 
ATOM     12  O   UNL     1       1.224   3.665   2.625  0.00  0.00    +0.000 OA
ATOM     13  C   UNL     1       1.999   4.806   3.103  0.00  0.00    +0.000 C 
ATOM     14  C   UNL     1       1.473   5.205   4.492  0.00  0.00    +0.000 C 
ATOM     15  C   UNL     1       3.467   4.380   3.235  0.00  0.00    +0.000 C 
ATOM     16  C   UNL     1       1.957   6.033   2.229  0.00  0.00    +0.000 C 
ATOM     17  C   UNL     1       1.588   5.977   0.948  0.00  0.00    +0.000 C 
ATOM     18  O   UNL     1       1.458   5.521  -1.846  0.00  0.00    +0.000 OA
ATOM     19  C   UNL     1       1.559   5.181  -3.249  0.00  0.00    +0.000 C 
ATOM     20  C   UNL     1       1.414   6.470  -4.062  0.00  0.00    +0.000 C 
ATOM     21  C   UNL     1       0.568   4.099  -3.743  0.00  0.00    +0.000 C 
ATOM     22  C   UNL     1      -0.910   4.504  -3.737  0.00  0.00    +0.000 C 
ATOM     23  C   UNL     1       0.750   2.899  -2.873  0.00  0.00    +0.000 C 
ENDROOT
BRANCH  23  24
ATOM     24  O   UNL     1       2.076   2.367  -2.957  0.00  0.00    +0.000 OA
ATOM     25  H   UNL     1       2.713   3.043  -2.675  0.00  0.00    +0.000 HD
ENDBRANCH  23  24
BRANCH   1  26
ATOM     26  C   UNL     1       0.991   0.450   2.392  0.00  0.00    +0.000 C 
BRANCH  26  28
ATOM     27  C   UNL     1      -1.231  -0.539   3.307  0.00  0.00    +0.000 C 
ATOM     28  C   UNL     1       0.060   0.242   3.591  0.00  0.00    +0.000 C 
ENDBRANCH  26  28
ENDBRANCH   1  26
TORSDOF 3
