REMARK  Name = 
REMARK  1 active torsions:
REMARK  status: ('A' for Active; 'I' for Inactive)
REMARK    1  A    between atoms: C_13  and  C_14
REMARK                            x       y       z     vdW  Elec       q    Type
REMARK                         _______ _______ _______ _____ _____    ______ ____
ROOT
ATOM      1  N   UNL     1       1.016   0.184  -0.199  0.00  0.00    +0.000 N 
ATOM      2  C   UNL     1       0.325  -0.143  -1.337  0.00  0.00    +0.000 A 
ATOM      3  N   UNL     1       0.689  -1.153  -2.084  0.00  0.00    +0.000 NA
ATOM      4  C   UNL     1      -0.043  -1.445  -3.267  0.00  0.00    +0.000 A 
ATOM      5  C   UNL     1       0.398  -2.487  -4.084  0.00  0.00    +0.000 A 
ATOM      6  C   UNL     1      -0.275  -2.784  -5.273  0.00  0.00    +0.000 A 
ATOM      7  C   UNL     1      -1.395  -2.040  -5.647  0.00  0.00    +0.000 A 
ATOM      8 CL   UNL     1      -2.200  -2.400  -7.125  0.00  0.00    +0.000 Cl
ATOM      9  C   UNL     1      -1.860  -1.002  -4.843  0.00  0.00    +0.000 A 
ATOM     10  C   UNL     1      -1.185  -0.707  -3.659  0.00  0.00    +0.000 A 
ATOM     11  C   UNL     1      -1.582   0.370  -2.778  0.00  0.00    +0.000 A 
ATOM     12  N   UNL     1      -2.589   1.215  -2.802  0.00  0.00    +0.000 NA
ATOM     13  C   UNL     1      -2.355   2.002  -1.688  0.00  0.00    +0.000 A 
ATOM     14  N   UNL     1      -1.277   1.657  -0.964  0.00  0.00    +0.000 NA
ATOM     15  N   UNL     1      -0.806   0.619  -1.685  0.00  0.00    +0.000 N 
ATOM     16  H   UNL     1       1.809  -0.337   0.062  0.00  0.00    +0.000 HD
ATOM     17  H   UNL     1       0.718   0.940   0.357  0.00  0.00    +0.000 HD
ENDROOT
BRANCH  13  18
ATOM     18  C   UNL     1      -3.227   3.161  -1.332  0.00  0.00    +0.000 A 
ATOM     19  C   UNL     1      -4.408   3.506  -1.963  0.00  0.00    +0.000 A 
ATOM     20  C   UNL     1      -4.885   4.679  -1.326  0.00  0.00    +0.000 A 
ATOM     21  C   UNL     1      -3.962   4.985  -0.353  0.00  0.00    +0.000 A 
ATOM     22 BR   UNL     1      -4.046   6.464   0.780  0.00  0.00    +0.000 Br
ATOM     23  O   UNL     1      -2.967   4.060  -0.334  0.00  0.00    +0.000 OA
ENDBRANCH  13  18
TORSDOF 1
