REMARK  Name = 
REMARK  6 active torsions:
REMARK  status: ('A' for Active; 'I' for Inactive)
REMARK    1  A    between atoms: C_1  and  N_2
REMARK    2  A    between atoms: N_2  and  C_3
REMARK    3  A    between atoms: N_2  and  C_4
REMARK    4  A    between atoms: C_9  and  S_10
REMARK    5  A    between atoms: S_10  and  N_13
REMARK    6  A    between atoms: N_13  and  C_14
REMARK                            x       y       z     vdW  Elec       q    Type
REMARK                         _______ _______ _______ _____ _____    ______ ____
ROOT
ATOM      1  C   UNL     1       0.306   1.881  -1.364  0.00  0.00    +0.000 A 
ATOM      2  C   UNL     1       1.430   2.487  -0.769  0.00  0.00    +0.000 A 
ATOM      3  C   UNL     1       1.698   3.842  -0.903  0.00  0.00    +0.000 A 
ATOM      4  C   UNL     1       0.916   4.619  -1.742  0.00  0.00    +0.000 A 
ATOM      5  C   UNL     1      -0.173   4.077  -2.452  0.00  0.00    +0.000 A 
ATOM      6  C   UNL     1      -0.939   4.820  -3.396  0.00  0.00    +0.000 A 
ATOM      7  C   UNL     1      -2.160   4.334  -3.876  0.00  0.00    +0.000 A 
ATOM      8  C   UNL     1      -2.619   3.100  -3.448  0.00  0.00    +0.000 A 
ATOM      9  C   UNL     1      -1.816   2.311  -2.624  0.00  0.00    +0.000 A 
ATOM     10  C   UNL     1      -0.549   2.727  -2.158  0.00  0.00    +0.000 A 
ENDROOT
BRANCH   1  12
ATOM     11  C   UNL     1       0.709  -0.142  -0.002  0.00  0.00    +0.000 C 
ATOM     12  N   UNL     1       0.036   0.507  -1.133  0.00  0.00    +0.000 N 
ATOM     13  C   UNL     1      -0.120  -0.366  -2.311  0.00  0.00    +0.000 C 
ENDBRANCH   1  12
BRANCH   6  14
ATOM     14  S   UNL     1      -0.372   6.376  -4.080  0.00  0.00    +0.000 S 
ATOM     15  O   UNL     1      -1.246   6.744  -5.175  0.00  0.00    +0.000 OA
ATOM     16  O   UNL     1      -0.137   7.288  -2.982  0.00  0.00    +0.000 OA
BRANCH  14  17
ATOM     17  N   UNL     1       1.130   6.028  -4.747  0.00  0.00    +0.000 N 
ATOM     18  H   UNL     1       1.938   6.424  -4.348  0.00  0.00    +0.000 HD
BRANCH  17  19
ATOM     19  C   UNL     1       1.259   5.176  -5.872  0.00  0.00    +0.000 A 
ATOM     20  C   UNL     1       1.013   5.599  -7.167  0.00  0.00    +0.000 A 
ATOM     21  N   UNL     1       1.162   4.813  -8.252  0.00  0.00    +0.000 NA
ATOM     22  C   UNL     1       1.571   3.553  -8.023  0.00  0.00    +0.000 A 
ATOM     23 BR   UNL     1       1.735   2.393  -9.516  0.00  0.00    +0.000 Br
ATOM     24  N   UNL     1       1.860   3.041  -6.812  0.00  0.00    +0.000 NA
ATOM     25  C   UNL     1       1.703   3.872  -5.762  0.00  0.00    +0.000 A 
ENDBRANCH  17  19
ENDBRANCH  14  17
ENDBRANCH   6  14
TORSDOF 4
