REMARK  Name = 
REMARK  8 active torsions:
REMARK  status: ('A' for Active; 'I' for Inactive)
REMARK    1  A    between atoms: C_1  and  C_2
REMARK    2  A    between atoms: C_2  and  C_3
REMARK    3  A    between atoms: C_3  and  C_4
REMARK    4  A    between atoms: C_16  and  C_17
REMARK    5  A    between atoms: C_16  and  C_18
REMARK    6  A    between atoms: C_22  and  C_23
REMARK    7  A    between atoms: C_24  and  C_25
REMARK    8  A    between atoms: C_26  and  O_27
REMARK                            x       y       z     vdW  Elec       q    Type
REMARK                         _______ _______ _______ _____ _____    ______ ____
ROOT
ATOM      1  C   UNL     1       0.302  -1.455  -0.818  0.00  0.00    +0.000 A 
ATOM      2  C   UNL     1      -0.493  -0.496  -0.305  0.00  0.00    +0.000 A 
ATOM      3  C   UNL     1      -1.359  -0.708   0.856  0.00  0.00    +0.000 A 
ATOM      4  O   UNL     1      -2.213   0.112   1.195  0.00  0.00    +0.000 OA
ATOM      5  O   UNL     1      -1.137  -1.860   1.551  0.00  0.00    +0.000 OA
ATOM      6  C   UNL     1       0.037  -2.549   1.246  0.00  0.00    +0.000 A 
ATOM      7  C   UNL     1       0.827  -2.916   2.308  0.00  0.00    +0.000 A 
ATOM      8  C   UNL     1       1.716  -3.962   2.121  0.00  0.00    +0.000 A 
ATOM      9  C   UNL     1       1.872  -4.513   0.842  0.00  0.00    +0.000 A 
ATOM     10  C   UNL     1       1.360  -3.817  -0.280  0.00  0.00    +0.000 A 
ATOM     11  C   UNL     1       0.493  -2.720  -0.051  0.00  0.00    +0.000 A 
ATOM     12  O   UNL     1       1.667  -4.208  -1.568  0.00  0.00    +0.000 OA
ATOM     13  C   UNL     1       2.646  -5.269  -1.771  0.00  0.00    +0.000 C 
ATOM     14  C   UNL     1       2.139  -6.209  -2.879  0.00  0.00    +0.000 C 
ATOM     15  C   UNL     1       3.960  -4.623  -2.232  0.00  0.00    +0.000 C 
ATOM     16  C   UNL     1       2.952  -6.118  -0.563  0.00  0.00    +0.000 C 
ATOM     17  C   UNL     1       2.610  -5.756   0.670  0.00  0.00    +0.000 C 
ATOM     18  O   UNL     1       2.445  -4.482   3.161  0.00  0.00    +0.000 OA
ATOM     19  C   UNL     1       2.626  -3.632   4.312  0.00  0.00    +0.000 C 
ATOM     20  C   UNL     1       3.862  -2.760   4.085  0.00  0.00    +0.000 C 
ATOM     21  C   UNL     1       1.383  -2.820   4.696  0.00  0.00    +0.000 C 
ATOM     22  C   UNL     1       0.214  -3.700   5.167  0.00  0.00    +0.000 C 
ATOM     23  C   UNL     1       0.963  -2.003   3.502  0.00  0.00    +0.000 C 
ENDROOT
BRANCH  23  24
ATOM     24  O   UNL     1      -0.160  -1.200   3.842  0.00  0.00    +0.000 OA
ATOM     25  H   UNL     1      -0.890  -1.771   4.128  0.00  0.00    +0.000 HD
ENDBRANCH  23  24
BRANCH   1  26
ATOM     26  C   UNL     1       1.230  -1.049  -1.927  0.00  0.00    +0.000 C 
BRANCH  26  28
ATOM     27  C   UNL     1       1.452  -0.634  -4.389  0.00  0.00    +0.000 C 
ATOM     28  C   UNL     1       0.621  -1.293  -3.301  0.00  0.00    +0.000 C 
ENDBRANCH  26  28
ENDBRANCH   1  26
TORSDOF 3
