REMARK  Name = 
REMARK  10 active torsions:
REMARK  status: ('A' for Active; 'I' for Inactive)
REMARK    1  A    between atoms: C_1  and  C_2
REMARK    2  A    between atoms: C_2  and  O_3
REMARK    3  A    between atoms: O_3  and  C_4
REMARK    4  A    between atoms: C_4  and  C_5
REMARK    5  A    between atoms: C_5  and  N_6
REMARK    6  A    between atoms: C_8  and  C_9
REMARK    7  A    between atoms: C_18  and  C_19
REMARK    8  A    between atoms: C_22  and  C_23
REMARK    9  A    between atoms: C_26  and  O_27
REMARK   10  A    between atoms: O_27  and  C_28
REMARK                            x       y       z     vdW  Elec       q    Type
REMARK                         _______ _______ _______ _____ _____    ______ ____
ROOT
ATOM      1  N   UNL     1       2.534   2.231   0.893  0.00  0.00    +0.000 N 
ATOM      2  C   UNL     1       3.235   3.027   1.924  0.00  0.00    +0.000 C 
ATOM      3  C   UNL     1       4.526   2.266   2.199  0.00  0.00    +0.000 C 
ATOM      4  C   UNL     1       4.065   0.807   2.163  0.00  0.00    +0.000 C 
ATOM      5  C   UNL     1       2.856   0.807   1.217  0.00  0.00    +0.000 C 
ATOM      6  H   UNL     1       1.521   2.343   0.887  0.00  0.00    +0.000 HD
ENDROOT
BRANCH   3   7
ATOM      7  C   UNL     1       5.202   2.638   3.499  0.00  0.00    +0.000 A 
ATOM      8  C   UNL     1       4.549   2.490   4.737  0.00  0.00    +0.000 A 
ATOM      9  C   UNL     1       5.195   2.760   5.938  0.00  0.00    +0.000 A 
ATOM     10  C   UNL     1       6.501   3.198   5.872  0.00  0.00    +0.000 A 
ATOM     11  C   UNL     1       7.144   3.368   4.669  0.00  0.00    +0.000 A 
ATOM     12  C   UNL     1       6.533   3.098   3.466  0.00  0.00    +0.000 A 
ATOM     13  O   UNL     1       8.422   3.807   4.827  0.00  0.00    +0.000 OA
ATOM     14  C   UNL     1       8.493   3.924   6.263  0.00  0.00    +0.000 C 
ATOM     15  O   UNL     1       7.290   3.496   6.935  0.00  0.00    +0.000 OA
ENDBRANCH   3   7
BRANCH   5  16
ATOM     16  C   UNL     1       1.666   0.061   1.838  0.00  0.00    +0.000 A 
ATOM     17  C   UNL     1       0.450   0.695   2.131  0.00  0.00    +0.000 A 
ATOM     18  C   UNL     1      -0.685  -0.044   2.484  0.00  0.00    +0.000 A 
ATOM     19  C   UNL     1      -0.626  -1.433   2.565  0.00  0.00    +0.000 A 
ATOM     20  C   UNL     1       0.604  -2.065   2.396  0.00  0.00    +0.000 A 
ATOM     21  C   UNL     1       1.741  -1.327   2.049  0.00  0.00    +0.000 A 
BRANCH  19  22
ATOM     22  O   UNL     1      -1.685  -2.267   2.796  0.00  0.00    +0.000 OA
ATOM     23  C   UNL     1      -2.977  -1.669   2.767  0.00  0.00    +0.000 C 
ENDBRANCH  19  22
ENDBRANCH   5  16
BRANCH   4  24
ATOM     24  C   UNL     1       5.146  -0.099   1.644  0.00  0.00    +0.000 C 
ATOM     25  O   UNL     1       5.948   0.141   0.761  0.00  0.00    +0.000 OA
ATOM     26  O   UNL     1       5.147  -1.308   2.248  0.00  0.00    +0.000 OA
ENDBRANCH   4  24
BRANCH   1  27
ATOM     27  C   UNL     1       2.961   2.684  -0.454  0.00  0.00    +0.000 C 
BRANCH  27  28
ATOM     28  C   UNL     1       2.347   1.986  -1.683  0.00  0.00    +0.000 C 
BRANCH  28  29
ATOM     29  O   UNL     1       2.803   2.654  -2.877  0.00  0.00    +0.000 OA
BRANCH  29  31
ATOM     30  C   UNL     1       2.844   2.703  -5.300  0.00  0.00    +0.000 C 
ATOM     31  C   UNL     1       2.264   2.050  -4.054  0.00  0.00    +0.000 C 
ENDBRANCH  29  31
ENDBRANCH  28  29
ENDBRANCH  27  28
ENDBRANCH   1  27
TORSDOF 8
