REMARK  Name = 
REMARK  8 active torsions:
REMARK  status: ('A' for Active; 'I' for Inactive)
REMARK    1  A    between atoms: C_1  and  C_2
REMARK    2  A    between atoms: C_2  and  C_3
REMARK    3  A    between atoms: C_3  and  C_4
REMARK    4  A    between atoms: C_16  and  C_17
REMARK    5  A    between atoms: C_16  and  C_18
REMARK    6  A    between atoms: C_22  and  C_23
REMARK    7  A    between atoms: C_24  and  C_25
REMARK    8  A    between atoms: C_26  and  O_27
REMARK                            x       y       z     vdW  Elec       q    Type
REMARK                         _______ _______ _______ _____ _____    ______ ____
ROOT
ATOM      1  C   UNL     1       0.323   1.104  -1.252  0.00  0.00    +0.000 A 
ATOM      2  C   UNL     1       0.008   0.383  -0.150  0.00  0.00    +0.000 A 
ATOM      3  C   UNL     1      -1.165  -0.475  -0.195  0.00  0.00    +0.000 A 
ATOM      4  O   UNL     1      -1.903  -0.642   0.781  0.00  0.00    +0.000 OA
ATOM      5  O   UNL     1      -1.392  -1.062  -1.411  0.00  0.00    +0.000 OA
ATOM      6  C   UNL     1      -0.366  -0.893  -2.346  0.00  0.00    +0.000 A 
ATOM      7  C   UNL     1       0.139  -2.047  -2.920  0.00  0.00    +0.000 A 
ATOM      8  C   UNL     1       0.844  -1.918  -4.092  0.00  0.00    +0.000 A 
ATOM      9  C   UNL     1       1.128  -0.625  -4.591  0.00  0.00    +0.000 A 
ATOM     10  C   UNL     1       0.940   0.514  -3.763  0.00  0.00    +0.000 A 
ATOM     11  C   UNL     1       0.249   0.345  -2.545  0.00  0.00    +0.000 A 
ATOM     12  O   UNL     1       1.399   1.758  -4.132  0.00  0.00    +0.000 OA
ATOM     13  C   UNL     1       2.171   1.904  -5.359  0.00  0.00    +0.000 C 
ATOM     14  C   UNL     1       1.640   3.132  -6.120  0.00  0.00    +0.000 C 
ATOM     15  C   UNL     1       3.632   2.159  -4.971  0.00  0.00    +0.000 C 
ATOM     16  C   UNL     1       2.139   0.719  -6.298  0.00  0.00    +0.000 C 
ATOM     17  C   UNL     1       1.677  -0.468  -5.931  0.00  0.00    +0.000 C 
ATOM     18  O   UNL     1       1.265  -3.021  -4.777  0.00  0.00    +0.000 OA
ATOM     19  C   UNL     1       1.515  -4.223  -4.015  0.00  0.00    +0.000 C 
ATOM     20  C   UNL     1       1.417  -5.383  -5.015  0.00  0.00    +0.000 C 
ATOM     21  C   UNL     1       0.553  -4.488  -2.845  0.00  0.00    +0.000 C 
ATOM     22  C   UNL     1       1.058  -5.595  -1.898  0.00  0.00    +0.000 C 
ATOM     23  C   UNL     1       0.338  -3.240  -2.035  0.00  0.00    +0.000 C 
ENDROOT
BRANCH  23  24
ATOM     24  O   UNL     1      -0.692  -3.496  -1.089  0.00  0.00    +0.000 OA
ATOM     25  H   UNL     1      -1.507  -3.738  -1.556  0.00  0.00    +0.000 HD
ENDBRANCH  23  24
BRANCH   1  26
ATOM     26  C   UNL     1       1.110   2.350  -0.984  0.00  0.00    +0.000 C 
BRANCH  26  28
ATOM     27  C   UNL     1       0.750   4.724  -0.142  0.00  0.00    +0.000 C 
ATOM     28  C   UNL     1       0.128   3.520  -0.844  0.00  0.00    +0.000 C 
ENDBRANCH  26  28
ENDBRANCH   1  26
TORSDOF 3
