REMARK  Name = 
REMARK  9 active torsions:
REMARK  status: ('A' for Active; 'I' for Inactive)
REMARK    1  A    between atoms: C_1  and  C_2
REMARK    2  A    between atoms: C_2  and  C_12
REMARK    3  A    between atoms: C_3  and  C_4
REMARK    4  A    between atoms: C_4  and  C_5
REMARK    5  A    between atoms: C_16  and  O_17
REMARK    6  A    between atoms: O_17  and  C_18
REMARK    7  A    between atoms: C_18  and  C_19
REMARK    8  A    between atoms: C_21  and  C_22
REMARK    9  A    between atoms: C_29  and  C_30
REMARK                            x       y       z     vdW  Elec       q    Type
REMARK                         _______ _______ _______ _____ _____    ______ ____
ROOT
ATOM      1  C   UNL     1      -0.470   2.838  -3.773  0.00  0.00    +0.000 A 
ATOM      2  C   UNL     1      -0.079   2.207  -4.958  0.00  0.00    +0.000 A 
ATOM      3  C   UNL     1       0.000   2.940  -6.139  0.00  0.00    +0.000 A 
ATOM      4  C   UNL     1      -0.302   4.304  -6.134  0.00  0.00    +0.000 A 
ATOM      5  C   UNL     1      -0.634   4.950  -4.940  0.00  0.00    +0.000 A 
ATOM      6  C   UNL     1      -0.715   4.214  -3.759  0.00  0.00    +0.000 A 
ENDROOT
BRANCH   1   8
ATOM      7  C   UNL     1      -2.128   1.639  -2.342  0.00  0.00    +0.000 C 
ATOM      8  C   UNL     1      -0.701   2.053  -2.553  0.00  0.00    +0.000 C 
ATOM      9  C   UNL     1       0.353   1.756  -1.774  0.00  0.00    +0.000 C 
BRANCH   9  10
ATOM     10  C   UNL     1       0.330   0.903  -0.538  0.00  0.00    +0.000 C 
BRANCH  10  11
ATOM     11  C   UNL     1       0.654  -0.545  -0.895  0.00  0.00    +0.000 C 
ATOM     12  O   UNL     1       1.969  -0.633  -1.484  0.00  0.00    +0.000 OA
ATOM     13  C   UNL     1       2.782  -1.324  -0.644  0.00  0.00    +0.000 C 
ATOM     14  O   UNL     1       3.969  -1.508  -0.842  0.00  0.00    +0.000 OA
ATOM     15  N   UNL     1       2.087  -1.773   0.408  0.00  0.00    +0.000 N 
ATOM     16  C   UNL     1       0.799  -1.384   0.341  0.00  0.00    +0.000 C 
ATOM     17  O   UNL     1      -0.072  -1.650   1.153  0.00  0.00    +0.000 OA
ATOM     18  H   UNL     1       2.467  -2.317   1.135  0.00  0.00    +0.000 HD
ENDBRANCH  10  11
ENDBRANCH   9  10
ENDBRANCH   1   8
BRANCH   5  19
ATOM     19  O   UNL     1      -0.946   6.280  -5.036  0.00  0.00    +0.000 OA
BRANCH  19  20
ATOM     20  C   UNL     1      -0.548   7.095  -3.920  0.00  0.00    +0.000 C 
BRANCH  20  21
ATOM     21  C   UNL     1      -1.576   7.243  -2.847  0.00  0.00    +0.000 A 
ATOM     22  N   UNL     1      -1.183   7.389  -1.525  0.00  0.00    +0.000 NA
ATOM     23  C   UNL     1      -2.313   7.526  -0.857  0.00  0.00    +0.000 A 
ATOM     24  O   UNL     1      -3.430   7.457  -1.645  0.00  0.00    +0.000 OA
ATOM     25  C   UNL     1      -2.954   7.283  -2.913  0.00  0.00    +0.000 A 
ATOM     26  C   UNL     1      -3.973   7.207  -3.973  0.00  0.00    +0.000 C 
BRANCH  23  27
ATOM     27  C   UNL     1      -2.537   7.777   0.564  0.00  0.00    +0.000 A 
ATOM     28  C   UNL     1      -1.447   7.929   1.433  0.00  0.00    +0.000 A 
ATOM     29  C   UNL     1      -1.647   8.206   2.789  0.00  0.00    +0.000 A 
ATOM     30  C   UNL     1      -2.940   8.333   3.293  0.00  0.00    +0.000 A 
ATOM     31  C   UNL     1      -4.034   8.177   2.445  0.00  0.00    +0.000 A 
ATOM     32  C   UNL     1      -3.833   7.900   1.091  0.00  0.00    +0.000 A 
ENDBRANCH  23  27
ENDBRANCH  20  21
ENDBRANCH  19  20
ENDBRANCH   5  19
TORSDOF 7
