REMARK  Name = 
REMARK  13 active torsions:
REMARK  status: ('A' for Active; 'I' for Inactive)
REMARK    1  A    between atoms: C_1  and  C_2
REMARK    2  A    between atoms: C_2  and  C_3
REMARK    3  A    between atoms: C_3  and  C_4
REMARK    4  A    between atoms: C_5  and  C_6
REMARK    5  A    between atoms: C_6  and  O_8
REMARK    6  A    between atoms: O_8  and  C_9
REMARK    7  A    between atoms: C_9  and  C_10
REMARK    8  A    between atoms: C_9  and  C_15
REMARK    9  A    between atoms: C_10  and  C_11
REMARK   10  A    between atoms: C_12  and  C_13
REMARK   11  A    between atoms: C_12  and  C_14
REMARK   12  A    between atoms: C_20  and  O_21
REMARK   13  A    between atoms: C_24  and  O_25
REMARK                            x       y       z     vdW  Elec       q    Type
REMARK                         _______ _______ _______ _____ _____    ______ ____
ROOT
ATOM      1  C   UNL     1      -0.772  -5.181   5.267  0.00  0.00    +0.000 C 
ATOM      2  C   UNL     1      -1.516  -6.287   5.409  0.00  0.00    +0.000 C 
ATOM      3  C   UNL     1      -0.963  -7.598   5.756  0.00  0.00    +0.000 C 
ATOM      4  O   UNL     1      -1.696  -8.578   5.842  0.00  0.00    +0.000 OA
ATOM      5  C   UNL     1       0.478  -7.709   6.009  0.00  0.00    +0.000 A 
ATOM      6  C   UNL     1       1.020  -8.950   6.387  0.00  0.00    +0.000 A 
ATOM      7  C   UNL     1       2.379  -9.086   6.644  0.00  0.00    +0.000 A 
ATOM      8  C   UNL     1       3.214  -7.981   6.519  0.00  0.00    +0.000 A 
ATOM      9  C   UNL     1       2.680  -6.742   6.138  0.00  0.00    +0.000 A 
ATOM     10  C   UNL     1       1.303  -6.588   5.883  0.00  0.00    +0.000 A 
ATOM     11  C   UNL     1       0.706  -5.273   5.498  0.00  0.00    +0.000 C 
ATOM     12  O   UNL     1       1.404  -4.276   5.381  0.00  0.00    +0.000 OA
ENDROOT
BRANCH   6  13
ATOM     13  O   UNL     1       0.270 -10.087   6.531  0.00  0.00    +0.000 OA
ATOM     14  H   UNL     1      -0.653 -10.063   6.372  0.00  0.00    +0.000 HD
ENDBRANCH   6  13
BRANCH   9  15
ATOM     15  O   UNL     1       3.549  -5.688   6.029  0.00  0.00    +0.000 OA
ATOM     16  H   UNL     1       4.461  -5.813   6.203  0.00  0.00    +0.000 HD
ENDBRANCH   9  15
BRANCH   1  17
ATOM     17  C   UNL     1      -1.408  -3.825   4.950  0.00  0.00    +0.000 C 
BRANCH  17  18
ATOM     18  O   UNL     1      -2.707  -4.045   4.308  0.00  0.00    +0.000 OA
BRANCH  18  19
ATOM     19  C   UNL     1      -3.795  -3.509   4.907  0.00  0.00    +0.000 C 
ATOM     20  O   UNL     1      -3.805  -2.911   5.972  0.00  0.00    +0.000 OA
BRANCH  19  22
ATOM     21  C   UNL     1      -5.205  -4.443   3.013  0.00  0.00    +0.000 C 
ATOM     22  C   UNL     1      -5.044  -3.710   4.129  0.00  0.00    +0.000 C 
BRANCH  21  23
ATOM     23  C   UNL     1      -6.532  -4.581   2.305  0.00  0.00    +0.000 C 
BRANCH  23  25
ATOM     24  C   UNL     1      -5.606  -4.904  -0.067  0.00  0.00    +0.000 C 
ATOM     25  C   UNL     1      -6.535  -4.113   0.844  0.00  0.00    +0.000 C 
ENDBRANCH  23  25
ENDBRANCH  21  23
ENDBRANCH  19  22
ENDBRANCH  18  19
ENDBRANCH  17  18
BRANCH  17  26
ATOM     26  C   UNL     1      -0.640  -2.823   4.052  0.00  0.00    +0.000 C 
BRANCH  26  27
ATOM     27  C   UNL     1      -0.223  -3.364   2.706  0.00  0.00    +0.000 C 
ATOM     28  C   UNL     1      -0.537  -2.867   1.495  0.00  0.00    +0.000 C 
ATOM     29  C   UNL     1       0.022  -3.490   0.245  0.00  0.00    +0.000 C 
ATOM     30  C   UNL     1      -1.418  -1.669   1.276  0.00  0.00    +0.000 C 
ENDBRANCH  26  27
ENDBRANCH  17  26
ENDBRANCH   1  17
TORSDOF 10
