REMARK  Name = 
REMARK  4 active torsions:
REMARK  status: ('A' for Active; 'I' for Inactive)
REMARK    1  A    between atoms: C_1  and  O_2
REMARK    2  A    between atoms: O_2  and  C_3
REMARK    3  A    between atoms: N_10  and  S_11
REMARK    4  A    between atoms: S_11  and  C_14
REMARK                            x       y       z     vdW  Elec       q    Type
REMARK                         _______ _______ _______ _____ _____    ______ ____
ROOT
ATOM      1  S   UNL     1      -2.489  -4.249  -2.035  0.00  0.00    +0.000 S 
ATOM      2  O   UNL     1      -1.733  -5.476  -1.895  0.00  0.00    +0.000 OA
ATOM      3  O   UNL     1      -3.689  -4.021  -1.249  0.00  0.00    +0.000 OA
ENDROOT
BRANCH   1   4
ATOM      4  C   UNL     1      -2.849  -4.066  -3.784  0.00  0.00    +0.000 A 
ATOM      5  C   UNL     1      -1.766  -4.278  -4.651  0.00  0.00    +0.000 A 
ATOM      6  C   UNL     1      -1.825  -3.803  -5.954  0.00  0.00    +0.000 A 
ATOM      7  C   UNL     1      -2.909  -3.022  -6.347  0.00  0.00    +0.000 A 
ATOM      8  C   UNL     1      -4.034  -2.881  -5.518  0.00  0.00    +0.000 A 
ATOM      9  C   UNL     1      -5.136  -2.129  -5.951  0.00  0.00    +0.000 A 
ATOM     10  C   UNL     1      -6.344  -2.173  -5.260  0.00  0.00    +0.000 A 
ATOM     11  C   UNL     1      -6.459  -2.974  -4.134  0.00  0.00    +0.000 A 
ATOM     12  C   UNL     1      -5.330  -3.614  -3.619  0.00  0.00    +0.000 A 
ATOM     13  C   UNL     1      -4.071  -3.529  -4.262  0.00  0.00    +0.000 A 
ENDBRANCH   1   4
BRANCH   1  21
ATOM     14  C   UNL     1      -2.613  -0.965  -0.886  0.00  0.00    +0.000 A 
ATOM     15  N   UNL     1      -3.190   0.244  -1.096  0.00  0.00    +0.000 NA
ATOM     16  C   UNL     1      -3.111   0.712  -2.362  0.00  0.00    +0.000 A 
ATOM     17 BR   UNL     1      -3.909   2.382  -2.758  0.00  0.00    +0.000 Br
ATOM     18  C   UNL     1      -2.450   0.016  -3.370  0.00  0.00    +0.000 A 
ATOM     19  N   UNL     1      -1.843  -1.185  -3.165  0.00  0.00    +0.000 NA
ATOM     20  C   UNL     1      -1.962  -1.668  -1.910  0.00  0.00    +0.000 A 
ATOM     21  N   UNL     1      -1.408  -2.967  -1.739  0.00  0.00    +0.000 N 
ATOM     22  H   UNL     1      -0.473  -3.114  -1.470  0.00  0.00    +0.000 HD
BRANCH  14  24
ATOM     23  C   UNL     1      -3.193  -0.676   1.367  0.00  0.00    +0.000 C 
ATOM     24  O   UNL     1      -2.572  -1.496   0.387  0.00  0.00    +0.000 OA
ENDBRANCH  14  24
ENDBRANCH   1  21
TORSDOF 3
