REMARK  Name = 
REMARK  5 active torsions:
REMARK  status: ('A' for Active; 'I' for Inactive)
REMARK    1  A    between atoms: C_1  and  N_2
REMARK    2  A    between atoms: N_2  and  C_3
REMARK    3  A    between atoms: N_2  and  C_4
REMARK    4  A    between atoms: C_9  and  S_10
REMARK    5  A    between atoms: S_10  and  N_13
REMARK                            x       y       z     vdW  Elec       q    Type
REMARK                         _______ _______ _______ _____ _____    ______ ____
ROOT
ATOM      1  C   UNL     1       0.458   0.733  -2.133  0.00  0.00    +0.000 A 
ATOM      2  C   UNL     1       1.577   1.568  -1.963  0.00  0.00    +0.000 A 
ATOM      3  C   UNL     1       1.902   2.555  -2.886  0.00  0.00    +0.000 A 
ATOM      4  C   UNL     1       1.174   2.673  -4.064  0.00  0.00    +0.000 A 
ATOM      5  C   UNL     1       0.076   1.831  -4.344  0.00  0.00    +0.000 A 
ATOM      6  C   UNL     1      -0.658   1.854  -5.568  0.00  0.00    +0.000 A 
ATOM      7  C   UNL     1      -1.878   1.176  -5.687  0.00  0.00    +0.000 A 
ATOM      8  C   UNL     1      -2.370   0.444  -4.621  0.00  0.00    +0.000 A 
ATOM      9  C   UNL     1      -1.601   0.311  -3.468  0.00  0.00    +0.000 A 
ATOM     10  C   UNL     1      -0.342   0.933  -3.310  0.00  0.00    +0.000 A 
ENDROOT
BRANCH   1  12
ATOM     11  C   UNL     1       0.694  -0.080   0.187  0.00  0.00    +0.000 C 
ATOM     12  N   UNL     1       0.135  -0.247  -1.156  0.00  0.00    +0.000 N 
ATOM     13  C   UNL     1       0.122  -1.638  -1.634  0.00  0.00    +0.000 C 
ENDBRANCH   1  12
BRANCH   6  14
ATOM     14  S   UNL     1      -0.111   2.728  -7.034  0.00  0.00    +0.000 S 
ATOM     15  O   UNL     1      -0.985   2.352  -8.129  0.00  0.00    +0.000 OA
ATOM     16  O   UNL     1       0.014   4.127  -6.672  0.00  0.00    +0.000 OA
BRANCH  14  17
ATOM     17  N   UNL     1       1.434   2.221  -7.411  0.00  0.00    +0.000 N 
ATOM     18  C   UNL     1       1.738   0.878  -7.255  0.00  0.00    +0.000 A 
ATOM     19  N   UNL     1       1.340  -0.012  -8.162  0.00  0.00    +0.000 NA
ATOM     20  C   UNL     1       1.815  -1.270  -7.978  0.00  0.00    +0.000 A 
ATOM     21  C   UNL     1       2.613  -1.641  -6.917  0.00  0.00    +0.000 A 
ATOM     22 CL   UNL     1       3.175  -3.241  -6.700  0.00  0.00    +0.000 Cl
ATOM     23  C   UNL     1       2.939  -0.630  -6.046  0.00  0.00    +0.000 A 
ATOM     24  N   UNL     1       2.541   0.644  -6.210  0.00  0.00    +0.000 NA
ATOM     25  H   UNL     1       2.111   2.859  -7.734  0.00  0.00    +0.000 HD
ENDBRANCH  14  17
ENDBRANCH   6  14
TORSDOF 3
