REMARK  Name = 
REMARK  10 active torsions:
REMARK  status: ('A' for Active; 'I' for Inactive)
REMARK    1  A    between atoms: C_1  and  N_2
REMARK    2  A    between atoms: N_2  and  C_3
REMARK    3  A    between atoms: N_2  and  C_4
REMARK    4  A    between atoms: C_4  and  C_5
REMARK    5  A    between atoms: C_5  and  C_6
REMARK    6  A    between atoms: C_6  and  C_7
REMARK    7  A    between atoms: C_7  and  C_8
REMARK    8  A    between atoms: C_8  and  N_9
REMARK    9  A    between atoms: N_9  and  C_10
REMARK   10  A    between atoms: C_20  and  O_21
REMARK                            x       y       z     vdW  Elec       q    Type
REMARK                         _______ _______ _______ _____ _____    ______ ____
ROOT
ATOM      1  C   UNL     1       3.510  -4.123  -4.550  0.00  0.00    +0.000 A 
ATOM      2  C   UNL     1       4.900  -4.350  -4.503  0.00  0.00    +0.000 A 
ATOM      3  C   UNL     1       5.657  -4.718  -5.645  0.00  0.00    +0.000 A 
ATOM      4  C   UNL     1       4.986  -4.943  -6.836  0.00  0.00    +0.000 A 
ATOM      5  N   UNL     1       5.393  -5.355  -8.098  0.00  0.00    +0.000 NA
ATOM      6  C   UNL     1       4.294  -5.393  -8.828  0.00  0.00    +0.000 A 
ATOM      7  N   UNL     1       3.194  -5.039  -8.095  0.00  0.00    +0.000 N 
ATOM      8  C   UNL     1       1.859  -4.824  -8.447  0.00  0.00    +0.000 A 
ATOM      9  C   UNL     1       1.316  -5.259  -9.654  0.00  0.00    +0.000 A 
ATOM     10  C   UNL     1       0.135  -4.665 -10.057  0.00  0.00    +0.000 A 
ATOM     11  C   UNL     1      -0.217  -3.475  -9.438  0.00  0.00    +0.000 A 
ATOM     12  C   UNL     1       0.047  -3.270  -8.096  0.00  0.00    +0.000 A 
ATOM     13  C   UNL     1       1.094  -3.997  -7.567  0.00  0.00    +0.000 A 
ATOM     14  C   UNL     1       1.493  -3.842  -6.137  0.00  0.00    +0.000 A 
ATOM     15  O   UNL     1       0.731  -3.377  -5.306  0.00  0.00    +0.000 OA
ATOM     16  C   UNL     1       2.891  -4.226  -5.788  0.00  0.00    +0.000 A 
ATOM     17  C   UNL     1       3.633  -4.693  -6.852  0.00  0.00    +0.000 A 
ENDROOT
BRANCH   1  18
ATOM     18  N   UNL     1       2.729  -3.957  -3.394  0.00  0.00    +0.000 N 
ATOM     19  H   UNL     1       1.781  -4.221  -3.418  0.00  0.00    +0.000 HD
BRANCH  18  20
ATOM     20  C   UNL     1       3.275  -3.407  -2.161  0.00  0.00    +0.000 C 
BRANCH  20  21
ATOM     21  C   UNL     1       2.227  -3.449  -1.042  0.00  0.00    +0.000 C 
BRANCH  21  22
ATOM     22  C   UNL     1       1.790  -4.853  -0.598  0.00  0.00    +0.000 C 
BRANCH  22  23
ATOM     23  C   UNL     1       2.905  -5.779  -0.094  0.00  0.00    +0.000 C 
BRANCH  23  24
ATOM     24  C   UNL     1       3.694  -5.275   1.126  0.00  0.00    +0.000 C 
BRANCH  24  26
ATOM     25  C   UNL     1       2.257  -6.148   2.897  0.00  0.00    +0.000 C 
ATOM     26  N   UNL     1       2.881  -4.958   2.313  0.00  0.00    +0.000 N 
ATOM     27  C   UNL     1       3.715  -4.307   3.329  0.00  0.00    +0.000 C 
ATOM     28  H   UNL     1       2.136  -4.333   2.006  0.00  0.00    +0.000 HD
ENDBRANCH  24  26
ENDBRANCH  23  24
ENDBRANCH  22  23
ENDBRANCH  21  22
ENDBRANCH  20  21
ENDBRANCH  18  20
ENDBRANCH   1  18
BRANCH  11  29
ATOM     29  O   UNL     1      -0.024  -2.333 -10.219  0.00  0.00    +0.000 OA
ATOM     30  H   UNL     1      -0.176  -2.367 -11.143  0.00  0.00    +0.000 HD
ENDBRANCH  11  29
TORSDOF 8
