REMARK  Name = 
REMARK  4 active torsions:
REMARK  status: ('A' for Active; 'I' for Inactive)
REMARK    1  A    between atoms: C_1  and  C_19
REMARK    2  A    between atoms: N_6  and  C_7
REMARK    3  A    between atoms: C_10  and  C_11
REMARK    4  A    between atoms: C_22  and  C_23
REMARK                            x       y       z     vdW  Elec       q    Type
REMARK                         _______ _______ _______ _____ _____    ______ ____
ROOT
ATOM      1  C   UNL     1      -2.302  -0.076   0.354  0.00  0.00    +0.000 C 
ATOM      2  C   UNL     1      -1.059  -0.048  -0.167  0.00  0.00    +0.000 C 
ATOM      3  C   UNL     1      -0.329   1.255  -0.388  0.00  0.00    +0.000 C 
ATOM      4  C   UNL     1       1.014   1.245   0.349  0.00  0.00    +0.000 C 
ATOM      5  C   UNL     1       1.826   0.002  -0.009  0.00  0.00    +0.000 C 
ATOM      6  N   UNL     1       1.023  -1.203   0.189  0.00  0.00    +0.000 N 
ATOM      7  C   UNL     1      -0.242  -1.265  -0.547  0.00  0.00    +0.000 C 
ENDROOT
BRANCH   6   8
ATOM      8  C   UNL     1       1.345  -2.175   1.119  0.00  0.00    +0.000 A 
ATOM      9  C   UNL     1       2.035  -1.892   2.306  0.00  0.00    +0.000 A 
ATOM     10  C   UNL     1       2.329  -2.891   3.248  0.00  0.00    +0.000 A 
ATOM     11  C   UNL     1       1.944  -4.214   3.024  0.00  0.00    +0.000 A 
ATOM     12  C   UNL     1       1.285  -4.527   1.837  0.00  0.00    +0.000 A 
ATOM     13  C   UNL     1       0.995  -3.520   0.909  0.00  0.00    +0.000 A 
BRANCH  11  14
ATOM     14  C   UNL     1       2.230  -5.264   4.035  0.00  0.00    +0.000 C 
ATOM     15  N   UNL     1       2.865  -4.993   5.150  0.00  0.00    +0.000 N 
ATOM     16  C   UNL     1       2.926  -6.294   5.873  0.00  0.00    +0.000 C 
ATOM     17  C   UNL     1       1.940  -7.222   5.165  0.00  0.00    +0.000 C 
ATOM     18  N   UNL     1       1.818  -6.571   3.883  0.00  0.00    +0.000 N 
ATOM     19  H   UNL     1       3.222  -4.123   5.444  0.00  0.00    +0.000 HD
ATOM     20  H   UNL     1       1.498  -6.985   3.049  0.00  0.00    +0.000 HD
ENDBRANCH  11  14
ENDBRANCH   6   8
BRANCH   1  21
ATOM     21  C   UNL     1      -3.045  -1.305   0.641  0.00  0.00    +0.000 A 
ATOM     22  C   UNL     1      -2.948  -1.906   1.899  0.00  0.00    +0.000 A 
ATOM     23  C   UNL     1      -3.609  -3.111   2.158  0.00  0.00    +0.000 A 
ATOM     24  C   UNL     1      -4.364  -3.734   1.156  0.00  0.00    +0.000 A 
ATOM     25  C   UNL     1      -4.469  -3.126  -0.101  0.00  0.00    +0.000 A 
ATOM     26  C   UNL     1      -3.815  -1.914  -0.354  0.00  0.00    +0.000 A 
BRANCH  24  27
ATOM     27  C   UNL     1      -5.010  -5.048   1.434  0.00  0.00    +0.000 C 
ATOM     28  N   UNL     1      -4.962  -5.593   2.627  0.00  0.00    +0.000 N 
ATOM     29  C   UNL     1      -5.697  -6.881   2.488  0.00  0.00    +0.000 C 
ATOM     30  C   UNL     1      -6.424  -6.819   1.146  0.00  0.00    +0.000 C 
ATOM     31  N   UNL     1      -5.691  -5.769   0.479  0.00  0.00    +0.000 N 
ATOM     32  H   UNL     1      -4.535  -5.230   3.436  0.00  0.00    +0.000 HD
ATOM     33  H   UNL     1      -5.680  -5.598  -0.490  0.00  0.00    +0.000 HD
ENDBRANCH  24  27
ENDBRANCH   1  21
TORSDOF 4
