REMARK  Name = 
REMARK  11 active torsions:
REMARK  status: ('A' for Active; 'I' for Inactive)
REMARK    1  A    between atoms: C_1  and  C_2
REMARK    2  A    between atoms: C_2  and  C_3
REMARK    3  A    between atoms: C_3  and  O_5
REMARK    4  A    between atoms: O_5  and  C_6
REMARK    5  A    between atoms: C_6  and  C_7
REMARK    6  A    between atoms: C_6  and  C_12
REMARK    7  A    between atoms: C_7  and  C_8
REMARK    8  A    between atoms: C_9  and  C_10
REMARK    9  A    between atoms: C_9  and  C_11
REMARK   10  A    between atoms: C_17  and  O_18
REMARK   11  A    between atoms: C_21  and  O_22
REMARK                            x       y       z     vdW  Elec       q    Type
REMARK                         _______ _______ _______ _____ _____    ______ ____
ROOT
ATOM      1  C   UNL     1       2.498   1.312  -4.922  0.00  0.00    +0.000 C 
ATOM      2  C   UNL     1       2.296   2.618  -4.687  0.00  0.00    +0.000 C 
ATOM      3  C   UNL     1       1.847   3.584  -5.685  0.00  0.00    +0.000 C 
ATOM      4  O   UNL     1       1.612   4.743  -5.359  0.00  0.00    +0.000 OA
ATOM      5  C   UNL     1       1.693   3.131  -7.064  0.00  0.00    +0.000 A 
ATOM      6  C   UNL     1       1.279   4.056  -8.036  0.00  0.00    +0.000 A 
ATOM      7  C   UNL     1       1.183   3.679  -9.366  0.00  0.00    +0.000 A 
ATOM      8  C   UNL     1       1.506   2.376  -9.732  0.00  0.00    +0.000 A 
ATOM      9  C   UNL     1       1.901   1.447  -8.760  0.00  0.00    +0.000 A 
ATOM     10  C   UNL     1       1.988   1.806  -7.403  0.00  0.00    +0.000 A 
ATOM     11  C   UNL     1       2.381   0.824  -6.335  0.00  0.00    +0.000 C 
ATOM     12  O   UNL     1       2.626  -0.346  -6.601  0.00  0.00    +0.000 OA
ENDROOT
BRANCH   6  13
ATOM     13  O   UNL     1       0.955   5.357  -7.755  0.00  0.00    +0.000 OA
ATOM     14  H   UNL     1       1.001   5.671  -6.873  0.00  0.00    +0.000 HD
ENDBRANCH   6  13
BRANCH   9  15
ATOM     15  O   UNL     1       2.217   0.185  -9.175  0.00  0.00    +0.000 OA
ATOM     16  H   UNL     1       2.154  -0.040 -10.082  0.00  0.00    +0.000 HD
ENDBRANCH   9  15
BRANCH   1  17
ATOM     17  C   UNL     1       2.856   0.341  -3.778  0.00  0.00    +0.000 C 
BRANCH  17  18
ATOM     18  O   UNL     1       2.546  -1.054  -4.030  0.00  0.00    +0.000 OA
BRANCH  18  19
ATOM     19  C   UNL     1       1.258  -1.421  -4.238  0.00  0.00    +0.000 C 
ATOM     20  O   UNL     1       0.300  -0.664  -4.200  0.00  0.00    +0.000 OA
BRANCH  19  22
ATOM     21  C   UNL     1       2.125  -3.798  -3.883  0.00  0.00    +0.000 C 
ATOM     22  C   UNL     1       1.139  -2.889  -4.600  0.00  0.00    +0.000 C 
ENDBRANCH  19  22
ENDBRANCH  18  19
ENDBRANCH  17  18
BRANCH  17  23
ATOM     23  C   UNL     1       2.284   0.799  -2.401  0.00  0.00    +0.000 C 
BRANCH  23  24
ATOM     24  C   UNL     1       2.686   0.007  -1.187  0.00  0.00    +0.000 C 
ATOM     25  C   UNL     1       3.297   0.519  -0.097  0.00  0.00    +0.000 C 
ATOM     26  C   UNL     1       3.557  -0.324   1.119  0.00  0.00    +0.000 C 
ATOM     27  C   UNL     1       3.737   1.956   0.016  0.00  0.00    +0.000 C 
ENDBRANCH  23  24
ENDBRANCH  17  23
ENDBRANCH   1  17
TORSDOF 8
