REMARK  Name = 
REMARK  8 active torsions:
REMARK  status: ('A' for Active; 'I' for Inactive)
REMARK    1  A    between atoms: C_1  and  O_2
REMARK    2  A    between atoms: O_2  and  C_3
REMARK    3  A    between atoms: C_7  and  N_8
REMARK    4  A    between atoms: N_11  and  C_12
REMARK    5  A    between atoms: C_12  and  C_13
REMARK    6  A    between atoms: C_22  and  N_23
REMARK    7  A    between atoms: C_26  and  O_27
REMARK    8  A    between atoms: O_27  and  C_28
REMARK                            x       y       z     vdW  Elec       q    Type
REMARK                         _______ _______ _______ _____ _____    ______ ____
ROOT
ATOM      1  C   UNL     1       1.261   4.585  -1.694  0.00  0.00    +0.000 A 
ATOM      2  C   UNL     1       0.636   5.586  -0.932  0.00  0.00    +0.000 A 
ATOM      3  C   UNL     1       0.504   5.490   0.454  0.00  0.00    +0.000 A 
ATOM      4  N   UNL     1      -0.175   6.458   1.119  0.00  0.00    +0.000 NA
ATOM      5  C   UNL     1      -0.356   6.325   2.448  0.00  0.00    +0.000 A 
ATOM      6  C   UNL     1       0.231   5.276   3.150  0.00  0.00    +0.000 A 
ATOM      7  C   UNL     1       0.978   4.305   2.499  0.00  0.00    +0.000 A 
ATOM      8  C   UNL     1       1.062   4.369   1.100  0.00  0.00    +0.000 A 
ATOM      9  C   UNL     1       1.681   3.360   0.332  0.00  0.00    +0.000 A 
ATOM     10  C   UNL     1       1.756   3.441  -1.057  0.00  0.00    +0.000 A 
ENDROOT
BRANCH   5  11
ATOM     11  N   UNL     1      -1.157   7.207   3.186  0.00  0.00    +0.000 N 
ATOM     12  C   UNL     1      -1.455   8.511   2.585  0.00  0.00    +0.000 C 
ATOM     13  C   UNL     1      -2.108   9.405   3.675  0.00  0.00    +0.000 C 
ATOM     14  N   UNL     1      -3.305   8.843   4.358  0.00  0.00    +0.000 N 
ATOM     15  C   UNL     1      -3.032   7.458   4.784  0.00  0.00    +0.000 C 
ATOM     16  C   UNL     1      -2.364   6.550   3.728  0.00  0.00    +0.000 C 
ATOM     17  H   UNL     1      -3.480   9.414   5.185  0.00  0.00    +0.000 HD
BRANCH  14  18
ATOM     18  C   UNL     1      -4.540   8.949   3.566  0.00  0.00    +0.000 C 
BRANCH  18  19
ATOM     19  C   UNL     1      -4.901  10.401   3.316  0.00  0.00    +0.000 A 
ATOM     20  C   UNL     1      -5.012  10.889   2.008  0.00  0.00    +0.000 A 
ATOM     21  C   UNL     1      -5.106  12.261   1.778  0.00  0.00    +0.000 A 
ATOM     22  C   UNL     1      -5.117  13.153   2.851  0.00  0.00    +0.000 A 
ATOM     23  C   UNL     1      -5.091  12.672   4.158  0.00  0.00    +0.000 A 
ATOM     24  C   UNL     1      -4.999  11.301   4.391  0.00  0.00    +0.000 A 
ENDBRANCH  18  19
ENDBRANCH  14  18
ENDBRANCH   5  11
BRANCH   7  25
ATOM     25  N   UNL     1       1.392   3.182   3.245  0.00  0.00    +0.000 N 
ATOM     26  H   UNL     1       1.312   3.187   4.227  0.00  0.00    +0.000 HD
ATOM     27  H   UNL     1       1.760   2.393   2.785  0.00  0.00    +0.000 HD
ENDBRANCH   7  25
BRANCH   1  29
ATOM     28  C   UNL     1       1.423   5.911  -3.652  0.00  0.00    +0.000 C 
ATOM     29  O   UNL     1       1.365   4.619  -3.062  0.00  0.00    +0.000 OA
ENDBRANCH   1  29
BRANCH  10  30
ATOM     30  O   UNL     1       2.330   2.467  -1.837  0.00  0.00    +0.000 OA
ATOM     31  C   UNL     1       2.374   1.158  -1.274  0.00  0.00    +0.000 C 
ENDBRANCH  10  30
TORSDOF 6
