REMARK  Name = 
REMARK  4 active torsions:
REMARK  status: ('A' for Active; 'I' for Inactive)
REMARK    1  A    between atoms: C_2  and  C_4
REMARK    2  A    between atoms: C_7  and  C_8
REMARK    3  A    between atoms: C_10  and  C_11
REMARK    4  A    between atoms: C_20  and  C_21
REMARK                            x       y       z     vdW  Elec       q    Type
REMARK                         _______ _______ _______ _____ _____    ______ ____
ROOT
ATOM      1  C   UNL     1       5.221  -3.802  -3.180  0.00  0.00    +0.000 A 
ATOM      2  N   UNL     1       5.849  -3.531  -4.310  0.00  0.00    +0.000 NA
ATOM      3  C   UNL     1       6.441  -4.709  -4.717  0.00  0.00    +0.000 A 
ATOM      4  C   UNL     1       6.287  -5.690  -3.751  0.00  0.00    +0.000 A 
ATOM      5  N   UNL     1       5.430  -5.117  -2.838  0.00  0.00    +0.000 N 
ATOM      6  H   UNL     1       5.031  -5.576  -2.064  0.00  0.00    +0.000 HD
ENDROOT
BRANCH   3   7
ATOM      7  C   UNL     1       7.104  -4.840  -6.011  0.00  0.00    +0.000 A 
ATOM      8  C   UNL     1       7.086  -6.066  -6.723  0.00  0.00    +0.000 A 
ATOM      9  C   UNL     1       7.735  -6.211  -7.951  0.00  0.00    +0.000 A 
ATOM     10  C   UNL     1       8.319  -5.090  -8.488  0.00  0.00    +0.000 A 
ATOM     11  C   UNL     1       8.306  -3.879  -7.832  0.00  0.00    +0.000 A 
ATOM     12  C   UNL     1       7.729  -3.725  -6.588  0.00  0.00    +0.000 A 
ATOM     13  O   UNL     1       8.892  -2.896  -8.570  0.00  0.00    +0.000 OA
ATOM     14  C   UNL     1       9.093  -3.591  -9.818  0.00  0.00    +0.000 C 
ATOM     15  O   UNL     1       8.922  -5.018  -9.704  0.00  0.00    +0.000 OA
ENDBRANCH   3   7
BRANCH   1  19
ATOM     16  C   UNL     1       2.990  -0.985  -0.844  0.00  0.00    +0.000 A 
ATOM     17  C   UNL     1       2.649  -2.341  -0.812  0.00  0.00    +0.000 A 
ATOM     18  C   UNL     1       3.366  -3.269  -1.577  0.00  0.00    +0.000 A 
ATOM     19  C   UNL     1       4.438  -2.855  -2.380  0.00  0.00    +0.000 A 
ATOM     20  C   UNL     1       4.767  -1.490  -2.410  0.00  0.00    +0.000 A 
ATOM     21  C   UNL     1       4.060  -0.559  -1.639  0.00  0.00    +0.000 A 
BRANCH  16  23
ATOM     22  O   UNL     1       1.758  -0.361   1.093  0.00  0.00    +0.000 OA
ATOM     23  C   UNL     1       2.219  -0.046   0.010  0.00  0.00    +0.000 C 
ATOM     24  O   UNL     1       2.041   1.168  -0.549  0.00  0.00    +0.000 OA
ENDBRANCH  16  23
ENDBRANCH   1  19
BRANCH   4  25
ATOM     25  C   UNL     1       6.768  -7.055  -3.617  0.00  0.00    +0.000 A 
ATOM     26  C   UNL     1       8.039  -7.435  -4.041  0.00  0.00    +0.000 A 
ATOM     27  C   UNL     1       8.352  -8.789  -4.082  0.00  0.00    +0.000 A 
ATOM     28  C   UNL     1       7.409  -9.713  -3.653  0.00  0.00    +0.000 A 
ATOM     29  C   UNL     1       6.197  -9.236  -3.176  0.00  0.00    +0.000 A 
ATOM     30  N   UNL     1       5.853  -7.930  -3.144  0.00  0.00    +0.000 NA
ENDBRANCH   4  25
TORSDOF 4
