REMARK  Name = 
REMARK  4 active torsions:
REMARK  status: ('A' for Active; 'I' for Inactive)
REMARK    1  A    between atoms: C_2  and  C_3
REMARK    2  A    between atoms: C_6  and  C_7
REMARK    3  A    between atoms: C_9  and  C_10
REMARK    4  A    between atoms: C_19  and  C_20
REMARK                            x       y       z     vdW  Elec       q    Type
REMARK                         _______ _______ _______ _____ _____    ______ ____
ROOT
ATOM      1  C   UNL     1       3.872  -0.031   0.193  0.00  0.00    +0.000 A 
ATOM      2  N   UNL     1       4.680  -0.588  -0.694  0.00  0.00    +0.000 NA
ATOM      3  C   UNL     1       5.964  -0.417  -0.220  0.00  0.00    +0.000 A 
ATOM      4  C   UNL     1       5.959   0.350   0.935  0.00  0.00    +0.000 A 
ATOM      5  N   UNL     1       4.621   0.498   1.221  0.00  0.00    +0.000 N 
ATOM      6  H   UNL     1       4.256   0.918   2.033  0.00  0.00    +0.000 HD
ENDROOT
BRANCH   3   7
ATOM      7  C   UNL     1       7.132  -0.983  -0.887  0.00  0.00    +0.000 A 
ATOM      8  C   UNL     1       8.254  -1.425  -0.140  0.00  0.00    +0.000 A 
ATOM      9  C   UNL     1       9.421  -1.869  -0.763  0.00  0.00    +0.000 A 
ATOM     10  C   UNL     1       9.415  -1.936  -2.134  0.00  0.00    +0.000 A 
ATOM     11  C   UNL     1       8.314  -1.570  -2.874  0.00  0.00    +0.000 A 
ATOM     12  C   UNL     1       7.162  -1.085  -2.284  0.00  0.00    +0.000 A 
ATOM     13  O   UNL     1       8.518  -1.737  -4.209  0.00  0.00    +0.000 OA
ATOM     14  C   UNL     1       9.875  -2.226  -4.220  0.00  0.00    +0.000 C 
ATOM     15  O   UNL     1      10.447  -2.367  -2.905  0.00  0.00    +0.000 OA
ENDBRANCH   3   7
BRANCH   1  19
ATOM     16  C   UNL     1      -0.422   0.033  -0.080  0.00  0.00    +0.000 A 
ATOM     17  C   UNL     1       0.346  -0.599  -1.059  0.00  0.00    +0.000 A 
ATOM     18  C   UNL     1       1.745  -0.609  -0.957  0.00  0.00    +0.000 A 
ATOM     19  C   UNL     1       2.401   0.008   0.120  0.00  0.00    +0.000 A 
ATOM     20  C   UNL     1       1.617   0.646   1.092  0.00  0.00    +0.000 A 
ATOM     21  C   UNL     1       0.216   0.658   0.994  0.00  0.00    +0.000 A 
BRANCH  16  23
ATOM     22  N   UNL     1      -3.011   0.050  -0.240  0.00  0.00    +0.000 NA
ATOM     23  C   UNL     1      -1.856   0.041  -0.173  0.00  0.00    +0.000 C 
ENDBRANCH  16  23
ENDBRANCH   1  19
BRANCH   4  24
ATOM     24  C   UNL     1       7.007   0.889   1.790  0.00  0.00    +0.000 A 
ATOM     25  C   UNL     1       8.222   1.332   1.275  0.00  0.00    +0.000 A 
ATOM     26  C   UNL     1       9.259   1.623   2.152  0.00  0.00    +0.000 A 
ATOM     27  C   UNL     1       9.032   1.524   3.517  0.00  0.00    +0.000 A 
ATOM     28  C   UNL     1       7.768   1.147   3.946  0.00  0.00    +0.000 A 
ATOM     29  N   UNL     1       6.745   0.828   3.116  0.00  0.00    +0.000 NA
ENDBRANCH   4  24
TORSDOF 4
