REMARK  Name = 
REMARK  12 active torsions:
REMARK  status: ('A' for Active; 'I' for Inactive)
REMARK    1  A    between atoms: C_1  and  C_2
REMARK    2  A    between atoms: C_2  and  C_3
REMARK    3  A    between atoms: C_3  and  C_4
REMARK    4  A    between atoms: C_10  and  C_11
REMARK    5  A    between atoms: C_11  and  C_13
REMARK    6  A    between atoms: C_13  and  C_14
REMARK    7  A    between atoms: C_13  and  C_15
REMARK    8  A    between atoms: C_15  and  C_16
REMARK    9  A    between atoms: C_15  and  O_17
REMARK   10  A    between atoms: C_18  and  O_19
REMARK   11  A    between atoms: C_24  and  C_25
REMARK   12  A    between atoms: C_24  and  C_26
REMARK                            x       y       z     vdW  Elec       q    Type
REMARK                         _______ _______ _______ _____ _____    ______ ____
ROOT
ATOM      1  C   UNL     1      -2.838  -4.663  -3.655  0.00  0.00    +0.000 A 
ATOM      2  C   UNL     1      -3.514  -3.503  -3.511  0.00  0.00    +0.000 A 
ATOM      3  C   UNL     1      -4.127  -3.092  -2.244  0.00  0.00    +0.000 A 
ATOM      4  O   UNL     1      -4.889  -2.141  -2.167  0.00  0.00    +0.000 OA
ATOM      5  O   UNL     1      -3.627  -3.740  -1.144  0.00  0.00    +0.000 OA
ATOM      6  C   UNL     1      -2.819  -4.892  -1.267  0.00  0.00    +0.000 A 
ATOM      7  C   UNL     1      -2.199  -5.348  -0.118  0.00  0.00    +0.000 A 
ATOM      8  C   UNL     1      -1.882  -6.699  -0.037  0.00  0.00    +0.000 A 
ATOM      9  C   UNL     1      -2.069  -7.520  -1.163  0.00  0.00    +0.000 A 
ATOM     10  C   UNL     1      -2.386  -6.943  -2.417  0.00  0.00    +0.000 A 
ATOM     11  C   UNL     1      -2.725  -5.573  -2.483  0.00  0.00    +0.000 A 
ATOM     12  O   UNL     1      -2.382  -7.699  -3.569  0.00  0.00    +0.000 OA
ATOM     13  C   UNL     1      -2.469  -9.149  -3.462  0.00  0.00    +0.000 C 
ATOM     14  C   UNL     1      -3.874  -9.563  -3.918  0.00  0.00    +0.000 C 
ATOM     15  C   UNL     1      -1.432  -9.774  -4.410  0.00  0.00    +0.000 C 
ATOM     16  C   UNL     1      -2.189  -9.720  -2.096  0.00  0.00    +0.000 C 
ATOM     17  C   UNL     1      -1.945  -8.965  -1.029  0.00  0.00    +0.000 C 
ENDROOT
BRANCH   7  18
ATOM     18  C   UNL     1      -1.674  -4.362   0.877  0.00  0.00    +0.000 C 
ATOM     19  O   UNL     1      -1.495  -4.765   2.024  0.00  0.00    +0.000 OA
BRANCH  18  20
ATOM     20  C   UNL     1      -1.267  -2.962   0.370  0.00  0.00    +0.000 C 
ATOM     21  C   UNL     1      -0.226  -3.064  -0.766  0.00  0.00    +0.000 C 
BRANCH  20  22
ATOM     22  C   UNL     1      -0.770  -2.001   1.460  0.00  0.00    +0.000 C 
ATOM     23  C   UNL     1      -1.720  -1.836   2.639  0.00  0.00    +0.000 C 
BRANCH  22  24
ATOM     24  O   UNL     1      -0.605  -0.703   0.863  0.00  0.00    +0.000 OA
ATOM     25  H   UNL     1      -1.462  -0.384   0.540  0.00  0.00    +0.000 HD
ENDBRANCH  22  24
ENDBRANCH  20  22
ENDBRANCH  18  20
ENDBRANCH   7  18
BRANCH   8  26
ATOM     26  O   UNL     1      -1.396  -7.249   1.123  0.00  0.00    +0.000 OA
ATOM     27  H   UNL     1      -1.267  -6.711   1.879  0.00  0.00    +0.000 HD
ENDBRANCH   8  26
BRANCH   1  28
ATOM     28  C   UNL     1      -1.881  -4.759  -4.812  0.00  0.00    +0.000 C 
BRANCH  28  30
ATOM     29  C   UNL     1      -1.466  -5.199  -7.241  0.00  0.00    +0.000 C 
ATOM     30  C   UNL     1      -2.431  -5.406  -6.077  0.00  0.00    +0.000 C 
ENDBRANCH  28  30
ENDBRANCH   1  28
TORSDOF 7
