REMARK  Name = 
REMARK  4 active torsions:
REMARK  status: ('A' for Active; 'I' for Inactive)
REMARK    1  A    between atoms: C_1  and  C_2
REMARK    2  A    between atoms: C_2  and  N_3
REMARK    3  A    between atoms: N_3  and  C_4
REMARK    4  A    between atoms: C_14  and  C_16
REMARK                            x       y       z     vdW  Elec       q    Type
REMARK                         _______ _______ _______ _____ _____    ______ ____
ROOT
ATOM      1  C   UNL     1       0.566  -4.851   1.671  0.00  0.00    +0.000 A 
ATOM      2  C   UNL     1      -0.592  -5.373   1.093  0.00  0.00    +0.000 A 
ATOM      3  C   UNL     1      -1.811  -4.730   1.279  0.00  0.00    +0.000 A 
ATOM      4  C   UNL     1      -1.842  -3.598   2.071  0.00  0.00    +0.000 A 
ATOM      5  N   UNL     1      -0.759  -3.072   2.680  0.00  0.00    +0.000 NA
ATOM      6  C   UNL     1       0.429  -3.698   2.507  0.00  0.00    +0.000 A 
ATOM      7  N   UNL     1       1.573  -3.097   3.018  0.00  0.00    +0.000 N 
ATOM      8  C   UNL     1       1.526  -1.664   3.307  0.00  0.00    +0.000 C 
ATOM      9  C   UNL     1       2.941  -1.094   3.070  0.00  0.00    +0.000 C 
ATOM     10  N   UNL     1       4.004  -1.870   3.750  0.00  0.00    +0.000 N 
ATOM     11  C   UNL     1       5.189  -1.341   4.259  0.00  0.00    +0.000 C 
ATOM     12  O   UNL     1       5.983  -2.067   4.863  0.00  0.00    +0.000 OA
ATOM     13  C   UNL     1       3.885  -3.338   3.660  0.00  0.00    +0.000 C 
ATOM     14  C   UNL     1       2.450  -3.822   3.949  0.00  0.00    +0.000 C 
ENDROOT
BRANCH  11  15
ATOM     15  C   UNL     1       5.462   0.077   4.117  0.00  0.00    +0.000 A 
ATOM     16  C   UNL     1       6.215   0.916   4.920  0.00  0.00    +0.000 A 
ATOM     17  C   UNL     1       6.172   2.202   4.335  0.00  0.00    +0.000 A 
ATOM     18  C   UNL     1       6.686   3.472   4.653  0.00  0.00    +0.000 A 
ATOM     19  C   UNL     1       6.410   4.542   3.792  0.00  0.00    +0.000 A 
ATOM     20  C   UNL     1       5.648   4.361   2.634  0.00  0.00    +0.000 A 
ATOM     21  C   UNL     1       5.135   3.104   2.295  0.00  0.00    +0.000 A 
ATOM     22  C   UNL     1       5.425   2.062   3.175  0.00  0.00    +0.000 A 
ATOM     23  O   UNL     1       5.015   0.774   3.026  0.00  0.00    +0.000 OA
ENDBRANCH  11  15
BRANCH   1  24
ATOM     24  N   UNL     1       1.835  -5.446   1.515  0.00  0.00    +0.000 N 
ATOM     25  H   UNL     1       2.509  -5.332   2.224  0.00  0.00    +0.000 HD
BRANCH  24  27
ATOM     26  C   UNL     1       3.595  -6.740   0.509  0.00  0.00    +0.000 C 
ATOM     27  C   UNL     1       2.172  -6.222   0.337  0.00  0.00    +0.000 C 
ENDBRANCH  24  27
ENDBRANCH   1  24
TORSDOF 3
