REMARK  Name = 
REMARK  8 active torsions:
REMARK  status: ('A' for Active; 'I' for Inactive)
REMARK    1  A    between atoms: C_1  and  O_2
REMARK    2  A    between atoms: O_2  and  C_3
REMARK    3  A    between atoms: C_6  and  C_7
REMARK    4  A    between atoms: C_10  and  N_11
REMARK    5  A    between atoms: C_13  and  C_14
REMARK    6  A    between atoms: C_14  and  N_15
REMARK    7  A    between atoms: C_16  and  C_17
REMARK    8  A    between atoms: C_23  and  C_24
REMARK                            x       y       z     vdW  Elec       q    Type
REMARK                         _______ _______ _______ _____ _____    ______ ____
ROOT
ATOM      1  C   UNL     1       0.416   1.236  -6.709  0.00  0.00    +0.000 A 
ATOM      2  C   UNL     1       0.958   0.525  -7.789  0.00  0.00    +0.000 A 
ATOM      3  C   UNL     1       0.662   0.885  -9.105  0.00  0.00    +0.000 A 
ATOM      4  C   UNL     1      -0.156   1.981  -9.376  0.00  0.00    +0.000 A 
ATOM      5  C   UNL     1      -0.704   2.689  -8.295  0.00  0.00    +0.000 A 
ATOM      6  C   UNL     1      -0.428   2.333  -6.952  0.00  0.00    +0.000 A 
ENDROOT
BRANCH   1  10
ATOM      7  C   UNL     1       1.033  -0.535  -2.457  0.00  0.00    +0.000 A 
ATOM      8  C   UNL     1       0.123  -0.641  -3.428  0.00  0.00    +0.000 A 
ATOM      9  C   UNL     1       0.065  -0.110  -4.768  0.00  0.00    +0.000 A 
ATOM     10  C   UNL     1       0.829   0.828  -5.347  0.00  0.00    +0.000 A 
ATOM     11  C   UNL     1       1.964   1.485  -4.745  0.00  0.00    +0.000 A 
ATOM     12  C   UNL     1       2.588   1.226  -3.598  0.00  0.00    +0.000 A 
ATOM     13  C   UNL     1       2.332   0.213  -2.561  0.00  0.00    +0.000 A 
ATOM     14  O   UNL     1       3.245   0.038  -1.748  0.00  0.00    +0.000 OA
BRANCH   7  16
ATOM     15  C   UNL     1       1.167  -0.643  -0.066  0.00  0.00    +0.000 C 
ATOM     16  O   UNL     1       0.740  -1.251  -1.283  0.00  0.00    +0.000 OA
ENDBRANCH   7  16
ENDBRANCH   1  10
BRANCH   4  17
ATOM     17  N   UNL     1      -0.366   2.410 -10.705  0.00  0.00    +0.000 N 
ATOM     18  C   UNL     1      -0.701   3.759 -11.045  0.00  0.00    +0.000 C 
ATOM     19  C   UNL     1      -0.362   3.821 -12.520  0.00  0.00    +0.000 C 
ATOM     20  O   UNL     1      -0.406   2.452 -12.953  0.00  0.00    +0.000 OA
ATOM     21  C   UNL     1      -0.233   1.653 -11.855  0.00  0.00    +0.000 C 
ATOM     22  O   UNL     1      -0.035   0.451 -11.956  0.00  0.00    +0.000 OA
BRANCH  19  23
ATOM     23  C   UNL     1      -1.369   4.650 -13.312  0.00  0.00    +0.000 C 
BRANCH  23  24
ATOM     24  N   UNL     1      -1.055   4.694 -14.727  0.00  0.00    +0.000 N 
ATOM     25  C   UNL     1      -0.210   5.647 -15.247  0.00  0.00    +0.000 C 
ATOM     26  C   UNL     1       0.022   5.536 -16.729  0.00  0.00    +0.000 C 
ATOM     27  O   UNL     1       0.307   6.527 -14.564  0.00  0.00    +0.000 OA
ATOM     28  H   UNL     1      -1.456   4.026 -15.330  0.00  0.00    +0.000 HD
ENDBRANCH  23  24
ENDBRANCH  19  23
ENDBRANCH   4  17
BRANCH   6  29
ATOM     29  C   UNL     1      -1.037   3.190  -5.863  0.00  0.00    +0.000 C 
ATOM     30  F   UNL     1      -0.742   2.842  -4.583  0.00  0.00    +0.000 F 
ATOM     31  F   UNL     1      -0.650   4.494  -5.980  0.00  0.00    +0.000 F 
ATOM     32  F   UNL     1      -2.399   3.209  -5.929  0.00  0.00    +0.000 F 
ENDBRANCH   6  29
TORSDOF 6
