REMARK  Name = 
REMARK  3 active torsions:
REMARK  status: ('A' for Active; 'I' for Inactive)
REMARK    1  A    between atoms: C_2  and  C_3
REMARK    2  A    between atoms: C_2  and  C_11
REMARK    3  A    between atoms: C_14  and  N_15
REMARK                            x       y       z     vdW  Elec       q    Type
REMARK                         _______ _______ _______ _____ _____    ______ ____
ROOT
ATOM      1  C   UNL     1       2.865   1.107  -0.807  0.00  0.00    +0.000 A 
ATOM      2  C   UNL     1       3.756   0.683  -1.801  0.00  0.00    +0.000 A 
ATOM      3  C   UNL     1       4.365   1.599  -2.660  0.00  0.00    +0.000 A 
ATOM      4  C   UNL     1       4.054   2.961  -2.614  0.00  0.00    +0.000 A 
ATOM      5  C   UNL     1       3.146   3.383  -1.626  0.00  0.00    +0.000 A 
ATOM      6  C   UNL     1       2.551   2.470  -0.734  0.00  0.00    +0.000 A 
ATOM      7 CL   UNL     1       1.461   3.138   0.433  0.00  0.00    +0.000 Cl
ENDROOT
BRANCH   4   8
ATOM      8  N   UNL     1       4.635   3.897  -3.534  0.00  0.00    +0.000 N 
ATOM      9  N   UNL     1       4.572   5.219  -3.120  0.00  0.00    +0.000 NA
ATOM     10  C   UNL     1       5.120   6.115  -3.861  0.00  0.00    +0.000 A 
ATOM     11  C   UNL     1       5.807   5.808  -5.148  0.00  0.00    +0.000 A 
ATOM     12  O   UNL     1       6.320   6.700  -5.802  0.00  0.00    +0.000 OA
ATOM     13  N   UNL     1       5.785   4.496  -5.501  0.00  0.00    +0.000 N 
ATOM     14  C   UNL     1       5.210   3.504  -4.760  0.00  0.00    +0.000 A 
ATOM     15  O   UNL     1       5.219   2.368  -5.241  0.00  0.00    +0.000 OA
ATOM     16  H   UNL     1       6.212   4.243  -6.351  0.00  0.00    +0.000 HD
ENDBRANCH   4   8
BRANCH   1  18
ATOM     17  O   UNL     1       1.118   0.204   0.505  0.00  0.00    +0.000 OA
ATOM     18  C   UNL     1       2.270   0.080   0.101  0.00  0.00    +0.000 C 
BRANCH  18  19
ATOM     19  C   UNL     1       2.977  -1.194   0.423  0.00  0.00    +0.000 A 
ATOM     20  C   UNL     1       2.187  -2.357   0.404  0.00  0.00    +0.000 A 
ATOM     21  C   UNL     1       2.763  -3.614   0.598  0.00  0.00    +0.000 A 
ATOM     22  C   UNL     1       4.136  -3.716   0.802  0.00  0.00    +0.000 A 
ATOM     23 CL   UNL     1       4.857  -5.265   0.996  0.00  0.00    +0.000 Cl
ATOM     24  C   UNL     1       4.928  -2.572   0.862  0.00  0.00    +0.000 A 
ATOM     25  C   UNL     1       4.346  -1.307   0.709  0.00  0.00    +0.000 A 
ATOM     26 CL   UNL     1       5.385   0.054   0.950  0.00  0.00    +0.000 Cl
ENDBRANCH  18  19
ENDBRANCH   1  18
TORSDOF 3
