REMARK  Name = 
REMARK  10 active torsions:
REMARK  status: ('A' for Active; 'I' for Inactive)
REMARK    1  A    between atoms: C_1  and  O_2
REMARK    2  A    between atoms: O_2  and  C_3
REMARK    3  A    between atoms: C_3  and  C_5
REMARK    4  A    between atoms: C_9  and  O_10
REMARK    5  A    between atoms: O_10  and  C_11
REMARK    6  A    between atoms: C_11  and  C_12
REMARK    7  A    between atoms: C_12  and  C_13
REMARK    8  A    between atoms: C_13  and  O_14
REMARK    9  A    between atoms: O_14  and  C_15
REMARK   10  A    between atoms: C_20  and  O_21
REMARK                            x       y       z     vdW  Elec       q    Type
REMARK                         _______ _______ _______ _____ _____    ______ ____
ROOT
ATOM      1  C   UNL     1       0.147  -8.305  -3.665  0.00  0.00    +0.000 C 
ENDROOT
BRANCH   1   2
ATOM      2  C   UNL     1       0.848  -7.081  -4.261  0.00  0.00    +0.000 C 
BRANCH   2   3
ATOM      3  O   UNL     1       2.173  -7.438  -4.689  0.00  0.00    +0.000 OA
BRANCH   3   8
ATOM      4  C   UNL     1       3.314  -4.222  -6.194  0.00  0.00    +0.000 A 
ATOM      5  C   UNL     1       4.519  -4.653  -6.758  0.00  0.00    +0.000 A 
ATOM      6  C   UNL     1       4.928  -5.977  -6.592  0.00  0.00    +0.000 A 
ATOM      7  C   UNL     1       4.124  -6.874  -5.877  0.00  0.00    +0.000 A 
ATOM      8  C   UNL     1       2.898  -6.468  -5.338  0.00  0.00    +0.000 A 
ATOM      9  C   UNL     1       2.507  -5.136  -5.490  0.00  0.00    +0.000 A 
BRANCH   4  10
ATOM     10  C   UNL     1       2.922  -2.788  -6.346  0.00  0.00    +0.000 C 
ATOM     11  O   UNL     1       3.567  -1.959  -6.966  0.00  0.00    +0.000 OA
BRANCH  10  13
ATOM     12  C   UNL     1       1.310  -1.211  -5.714  0.00  0.00    +0.000 C 
ATOM     13  O   UNL     1       1.765  -2.558  -5.682  0.00  0.00    +0.000 OA
ENDBRANCH  10  13
ENDBRANCH   4  10
ENDBRANCH   3   8
ENDBRANCH   2   3
ENDBRANCH   1   2
BRANCH   1  14
ATOM     14  C   UNL     1      -1.220  -7.962  -3.065  0.00  0.00    +0.000 C 
BRANCH  14  15
ATOM     15  O   UNL     1      -1.882  -9.147  -2.588  0.00  0.00    +0.000 OA
BRANCH  15  16
ATOM     16  C   UNL     1      -2.893  -9.667  -3.361  0.00  0.00    +0.000 A 
ATOM     17  C   UNL     1      -3.067  -9.414  -4.721  0.00  0.00    +0.000 A 
ATOM     18  C   UNL     1      -4.120 -10.035  -5.362  0.00  0.00    +0.000 A 
ATOM     19  C   UNL     1      -5.034 -10.847  -4.700  0.00  0.00    +0.000 A 
ATOM     20  C   UNL     1      -4.877 -11.134  -3.361  0.00  0.00    +0.000 A 
ATOM     21  C   UNL     1      -3.782 -10.558  -2.711  0.00  0.00    +0.000 A 
ATOM     22  C   UNL     1      -6.084 -11.250  -5.666  0.00  0.00    +0.000 C 
ATOM     23  C   UNL     1      -5.255 -11.068  -6.936  0.00  0.00    +0.000 C 
ATOM     24  O   UNL     1      -4.361  -9.948  -6.714  0.00  0.00    +0.000 OA
BRANCH  21  25
ATOM     25  O   UNL     1      -3.583 -10.903  -1.400  0.00  0.00    +0.000 OA
ATOM     26  H   UNL     1      -4.174 -11.493  -0.976  0.00  0.00    +0.000 HD
ENDBRANCH  21  25
ENDBRANCH  15  16
ENDBRANCH  14  15
ENDBRANCH   1  14
TORSDOF 9
