REMARK  Name = 
REMARK  9 active torsions:
REMARK  status: ('A' for Active; 'I' for Inactive)
REMARK    1  A    between atoms: C_1  and  C_2
REMARK    2  A    between atoms: C_2  and  C_3
REMARK    3  A    between atoms: C_3  and  C_4
REMARK    4  A    between atoms: C_16  and  C_17
REMARK    5  A    between atoms: C_16  and  C_18
REMARK    6  A    between atoms: C_22  and  C_23
REMARK    7  A    between atoms: C_22  and  C_24
REMARK    8  A    between atoms: C_25  and  C_26
REMARK    9  A    between atoms: C_27  and  O_28
REMARK                            x       y       z     vdW  Elec       q    Type
REMARK                         _______ _______ _______ _____ _____    ______ ____
ROOT
ATOM      1  C   UNL     1       0.137  -1.552   0.711  0.00  0.00    +0.000 A 
ATOM      2  C   UNL     1      -0.656  -0.569   0.226  0.00  0.00    +0.000 A 
ATOM      3  C   UNL     1      -1.423   0.353   1.069  0.00  0.00    +0.000 A 
ATOM      4  O   UNL     1      -2.165   1.211   0.597  0.00  0.00    +0.000 OA
ATOM      5  O   UNL     1      -1.215   0.223   2.407  0.00  0.00    +0.000 OA
ATOM      6  C   UNL     1      -0.049  -0.442   2.774  0.00  0.00    +0.000 A 
ATOM      7  C   UNL     1       0.794   0.236   3.615  0.00  0.00    +0.000 A 
ATOM      8  C   UNL     1       1.672  -0.484   4.396  0.00  0.00    +0.000 A 
ATOM      9  C   UNL     1       1.819  -1.857   4.140  0.00  0.00    +0.000 A 
ATOM     10  C   UNL     1       1.276  -2.401   2.944  0.00  0.00    +0.000 A 
ATOM     11  C   UNL     1       0.389  -1.608   2.178  0.00  0.00    +0.000 A 
ATOM     12  O   UNL     1       1.570  -3.684   2.542  0.00  0.00    +0.000 OA
ATOM     13  C   UNL     1       2.552  -4.454   3.290  0.00  0.00    +0.000 C 
ATOM     14  C   UNL     1       2.019  -5.888   3.454  0.00  0.00    +0.000 C 
ATOM     15  C   UNL     1       3.843  -4.487   2.467  0.00  0.00    +0.000 C 
ATOM     16  C   UNL     1       2.892  -3.927   4.658  0.00  0.00    +0.000 C 
ATOM     17  C   UNL     1       2.569  -2.695   5.062  0.00  0.00    +0.000 C 
ATOM     18  O   UNL     1       2.359   0.110   5.421  0.00  0.00    +0.000 OA
ATOM     19  C   UNL     1       2.502   1.551   5.381  0.00  0.00    +0.000 C 
ATOM     20  C   UNL     1       3.822   1.852   4.620  0.00  0.00    +0.000 C 
ATOM     21  C   UNL     1       2.694   1.997   6.836  0.00  0.00    +0.000 C 
ATOM     22  C   UNL     1       1.283   2.315   4.776  0.00  0.00    +0.000 C 
ATOM     23  C   UNL     1       0.010   2.287   5.646  0.00  0.00    +0.000 C 
ATOM     24  C   UNL     1       0.903   1.712   3.446  0.00  0.00    +0.000 C 
ENDROOT
BRANCH  24  25
ATOM     25  O   UNL     1       1.887   1.932   2.433  0.00  0.00    +0.000 OA
ATOM     26  H   UNL     1       2.722   1.516   2.698  0.00  0.00    +0.000 HD
ENDBRANCH  24  25
BRANCH   1  27
ATOM     27  C   UNL     1       1.016  -2.264  -0.274  0.00  0.00    +0.000 C 
BRANCH  27  29
ATOM     28  C   UNL     1       1.158  -4.088  -1.989  0.00  0.00    +0.000 C 
ATOM     29  C   UNL     1       0.382  -3.545  -0.797  0.00  0.00    +0.000 C 
ENDBRANCH  27  29
ENDBRANCH   1  27
TORSDOF 3
