REMARK  Name = 
REMARK  7 active torsions:
REMARK  status: ('A' for Active; 'I' for Inactive)
REMARK    1  A    between atoms: C_1  and  C_2
REMARK    2  A    between atoms: C_2  and  N_3
REMARK    3  A    between atoms: N_3  and  C_4
REMARK    4  A    between atoms: C_4  and  C_5
REMARK    5  A    between atoms: N_8  and  C_9
REMARK    6  A    between atoms: C_16  and  C_17
REMARK    7  A    between atoms: N_21  and  C_22
REMARK                            x       y       z     vdW  Elec       q    Type
REMARK                         _______ _______ _______ _____ _____    ______ ____
ROOT
ATOM      1  C   UNL     1       1.431  -6.097   4.624  0.00  0.00    +0.000 A 
ATOM      2  C   UNL     1       2.358  -6.948   4.003  0.00  0.00    +0.000 A 
ATOM      3  F   UNL     1       2.911  -6.617   2.826  0.00  0.00    +0.000 F 
ATOM      4  C   UNL     1       2.740  -8.158   4.563  0.00  0.00    +0.000 A 
ATOM      5  C   UNL     1       2.192  -8.565   5.782  0.00  0.00    +0.000 A 
ATOM      6  C   UNL     1       2.538  -9.918   6.276  0.00  0.00    +0.000 A 
ATOM      7  O   UNL     1       3.235 -10.653   5.587  0.00  0.00    +0.000 OA
ATOM      8  C   UNL     1       1.974 -10.330   7.574  0.00  0.00    +0.000 A 
ATOM      9  C   UNL     1       1.134  -9.473   8.174  0.00  0.00    +0.000 A 
ATOM     10  N   UNL     1       0.723  -8.217   7.729  0.00  0.00    +0.000 N 
ATOM     11  C   UNL     1       1.308  -7.737   6.494  0.00  0.00    +0.000 A 
ATOM     12  C   UNL     1       0.993  -6.482   5.912  0.00  0.00    +0.000 A 
ATOM     13  F   UNL     1       0.195  -5.619   6.565  0.00  0.00    +0.000 F 
ENDROOT
BRANCH   1  17
ATOM     14  C   UNL     1       0.839  -2.779   3.164  0.00  0.00    +0.000 C 
ATOM     15  C   UNL     1       1.195  -3.742   2.030  0.00  0.00    +0.000 C 
ATOM     16  C   UNL     1       0.608  -5.043   2.541  0.00  0.00    +0.000 C 
ATOM     17  N   UNL     1       0.862  -5.000   3.985  0.00  0.00    +0.000 N 
ATOM     18  C   UNL     1       1.180  -3.624   4.412  0.00  0.00    +0.000 C 
BRANCH  14  19
ATOM     19  C   UNL     1       1.547  -1.429   3.044  0.00  0.00    +0.000 C 
BRANCH  19  20
ATOM     20  N   UNL     1       1.156  -0.803   1.774  0.00  0.00    +0.000 N 
ATOM     21  H   UNL     1       1.417  -1.427   1.011  0.00  0.00    +0.000 HD
ATOM     22  H   UNL     1       0.149  -0.644   1.812  0.00  0.00    +0.000 HD
BRANCH  20  24
ATOM     23  C   UNL     1       1.358   1.049   0.204  0.00  0.00    +0.000 C 
ATOM     24  C   UNL     1       1.792   0.491   1.554  0.00  0.00    +0.000 C 
ENDBRANCH  20  24
ENDBRANCH  19  20
ENDBRANCH  14  19
ENDBRANCH   1  17
BRANCH  10  25
ATOM     25  C   UNL     1      -0.304  -7.437   8.426  0.00  0.00    +0.000 C 
ATOM     26  C   UNL     1       0.288  -6.467   9.479  0.00  0.00    +0.000 C 
ATOM     27  C   UNL     1      -1.007  -6.692  10.290  0.00  0.00    +0.000 C 
ATOM     28  C   UNL     1      -1.108  -8.068   9.594  0.00  0.00    +0.000 C 
ENDBRANCH  10  25
BRANCH   8  29
ATOM     29  C   UNL     1       2.231 -11.617   8.241  0.00  0.00    +0.000 C 
ATOM     30  O   UNL     1       1.553 -12.100   9.134  0.00  0.00    +0.000 OA
ATOM     31  O   UNL     1       3.338 -12.240   7.816  0.00  0.00    +0.000 OA
ENDBRANCH   8  29
TORSDOF 6
