REMARK  Name = 
REMARK  14 active torsions:
REMARK  status: ('A' for Active; 'I' for Inactive)
REMARK    1  A    between atoms: C_2  and  C_3
REMARK    2  A    between atoms: C_3  and  C_4
REMARK    3  A    between atoms: C_4  and  C_5
REMARK    4  A    between atoms: C_5  and  C_6
REMARK    5  A    between atoms: C_6  and  C_7
REMARK    6  A    between atoms: C_7  and  O_9
REMARK    7  A    between atoms: O_9  and  C_10
REMARK    8  A    between atoms: C_10  and  C_11
REMARK    9  A    between atoms: C_10  and  C_16
REMARK   10  A    between atoms: C_11  and  C_12
REMARK   11  A    between atoms: C_13  and  C_14
REMARK   12  A    between atoms: C_13  and  C_15
REMARK   13  A    between atoms: C_21  and  O_22
REMARK   14  A    between atoms: C_25  and  O_26
REMARK                            x       y       z     vdW  Elec       q    Type
REMARK                         _______ _______ _______ _____ _____    ______ ____
ROOT
ATOM      1  C   UNL     1      -6.363  -3.473  -2.257  0.00  0.00    +0.000 C 
ATOM      2  C   UNL     1      -7.246  -4.005  -3.122  0.00  0.00    +0.000 C 
ATOM      3  C   UNL     1      -7.840  -5.348  -2.994  0.00  0.00    +0.000 C 
ATOM      4  O   UNL     1      -8.681  -5.734  -3.788  0.00  0.00    +0.000 OA
ATOM      5  C   UNL     1      -7.441  -6.182  -1.854  0.00  0.00    +0.000 A 
ATOM      6  C   UNL     1      -8.072  -7.427  -1.645  0.00  0.00    +0.000 A 
ATOM      7  C   UNL     1      -7.698  -8.246  -0.588  0.00  0.00    +0.000 A 
ATOM      8  C   UNL     1      -6.680  -7.834   0.264  0.00  0.00    +0.000 A 
ATOM      9  C   UNL     1      -6.067  -6.585   0.071  0.00  0.00    +0.000 A 
ATOM     10  C   UNL     1      -6.454  -5.724  -0.979  0.00  0.00    +0.000 A 
ATOM     11  C   UNL     1      -5.900  -4.331  -1.121  0.00  0.00    +0.000 C 
ATOM     12  O   UNL     1      -5.143  -3.841  -0.291  0.00  0.00    +0.000 OA
ENDROOT
BRANCH   6  13
ATOM     13  O   UNL     1      -9.084  -7.911  -2.433  0.00  0.00    +0.000 OA
ATOM     14  H   UNL     1      -9.387  -7.411  -3.165  0.00  0.00    +0.000 HD
ENDBRANCH   6  13
BRANCH   9  15
ATOM     15  O   UNL     1      -5.065  -6.235   0.932  0.00  0.00    +0.000 OA
ATOM     16  H   UNL     1      -4.819  -6.817   1.625  0.00  0.00    +0.000 HD
ENDBRANCH   9  15
BRANCH   1  17
ATOM     17  C   UNL     1      -6.049  -1.966  -2.224  0.00  0.00    +0.000 C 
BRANCH  17  18
ATOM     18  O   UNL     1      -6.745  -1.341  -3.334  0.00  0.00    +0.000 OA
BRANCH  18  19
ATOM     19  C   UNL     1      -7.464  -0.250  -2.957  0.00  0.00    +0.000 C 
ATOM     20  O   UNL     1      -6.970   0.792  -2.555  0.00  0.00    +0.000 OA
BRANCH  19  21
ATOM     21  C   UNL     1      -8.939  -0.495  -3.109  0.00  0.00    +0.000 C 
BRANCH  21  22
ATOM     22  C   UNL     1      -9.759  -0.084  -1.876  0.00  0.00    +0.000 C 
BRANCH  22  23
ATOM     23  C   UNL     1     -10.006  -1.073  -0.719  0.00  0.00    +0.000 C 
BRANCH  23  24
ATOM     24  C   UNL     1      -8.989  -1.489   0.364  0.00  0.00    +0.000 C 
BRANCH  24  26
ATOM     25  C   UNL     1      -8.481   0.700   1.672  0.00  0.00    +0.000 C 
ATOM     26  C   UNL     1      -8.447  -0.615   1.469  0.00  0.00    +0.000 C 
ENDBRANCH  24  26
ENDBRANCH  23  24
ENDBRANCH  22  23
ENDBRANCH  21  22
ENDBRANCH  19  21
ENDBRANCH  18  19
ENDBRANCH  17  18
BRANCH  17  27
ATOM     27  C   UNL     1      -4.657  -1.290  -2.044  0.00  0.00    +0.000 C 
BRANCH  27  28
ATOM     28  C   UNL     1      -3.470  -1.608  -2.916  0.00  0.00    +0.000 C 
ATOM     29  C   UNL     1      -2.329  -2.194  -2.494  0.00  0.00    +0.000 C 
ATOM     30  C   UNL     1      -1.114  -2.308  -3.374  0.00  0.00    +0.000 C 
ATOM     31  C   UNL     1      -2.160  -2.769  -1.113  0.00  0.00    +0.000 C 
ENDBRANCH  27  28
ENDBRANCH  17  27
ENDBRANCH   1  17
TORSDOF 12
