REMARK  Name = 
REMARK  6 active torsions:
REMARK  status: ('A' for Active; 'I' for Inactive)
REMARK    1  A    between atoms: C_1  and  O_2
REMARK    2  A    between atoms: O_2  and  C_3
REMARK    3  A    between atoms: C_6  and  C_7
REMARK    4  A    between atoms: C_8  and  C_9
REMARK    5  A    between atoms: C_12  and  C_13
REMARK    6  A    between atoms: C_24  and  C_26
REMARK                            x       y       z     vdW  Elec       q    Type
REMARK                         _______ _______ _______ _____ _____    ______ ____
ROOT
ATOM      1  C   UNL     1       1.898  -2.840  -5.620  0.00  0.00    +0.000 C 
ATOM      2  C   UNL     1       2.844  -4.040  -5.791  0.00  0.00    +0.000 C 
ATOM      3  C   UNL     1       3.352  -3.902  -7.237  0.00  0.00    +0.000 C 
ATOM      4  C   UNL     1       3.257  -2.402  -7.528  0.00  0.00    +0.000 C 
ATOM      5  N   UNL     1       2.536  -1.790  -6.420  0.00  0.00    +0.000 N 
ATOM      6  C   UNL     1       2.035  -0.482  -6.474  0.00  0.00    +0.000 C 
ATOM      7  O   UNL     1       1.249  -0.061  -5.626  0.00  0.00    +0.000 OA
ENDROOT
BRANCH   3   8
ATOM      8  C   UNL     1       4.753  -4.432  -7.474  0.00  0.00    +0.000 A 
ATOM      9  C   UNL     1       5.876  -3.873  -6.811  0.00  0.00    +0.000 A 
ATOM     10  C   UNL     1       7.168  -4.355  -7.036  0.00  0.00    +0.000 A 
ATOM     11  C   UNL     1       7.311  -5.412  -7.905  0.00  0.00    +0.000 A 
ATOM     12  C   UNL     1       6.234  -5.957  -8.564  0.00  0.00    +0.000 A 
ATOM     13  C   UNL     1       4.951  -5.482  -8.386  0.00  0.00    +0.000 A 
ATOM     14  O   UNL     1       6.592  -6.997  -9.365  0.00  0.00    +0.000 OA
ATOM     15  C   UNL     1       7.975  -7.150  -8.985  0.00  0.00    +0.000 C 
ATOM     16  O   UNL     1       8.476  -6.046  -8.205  0.00  0.00    +0.000 OA
ENDBRANCH   3   8
BRANCH   1  20
ATOM     17  C   UNL     1       0.966  -1.891  -1.484  0.00  0.00    +0.000 A 
ATOM     18  C   UNL     1       2.292  -1.856  -1.925  0.00  0.00    +0.000 A 
ATOM     19  C   UNL     1       2.606  -2.169  -3.256  0.00  0.00    +0.000 A 
ATOM     20  C   UNL     1       1.604  -2.520  -4.167  0.00  0.00    +0.000 A 
ATOM     21  C   UNL     1       0.277  -2.568  -3.707  0.00  0.00    +0.000 A 
ATOM     22  C   UNL     1      -0.035  -2.257  -2.381  0.00  0.00    +0.000 A 
BRANCH  17  24
ATOM     23  C   UNL     1       1.503  -1.097   0.690  0.00  0.00    +0.000 C 
ATOM     24  O   UNL     1       0.532  -1.600  -0.220  0.00  0.00    +0.000 OA
ENDBRANCH  17  24
ENDBRANCH   1  20
BRANCH   6  25
ATOM     25  C   UNL     1       2.397   0.355  -7.616  0.00  0.00    +0.000 A 
ATOM     26  C   UNL     1       1.724   1.434  -8.168  0.00  0.00    +0.000 A 
ATOM     27  C   UNL     1       2.414   1.793  -9.353  0.00  0.00    +0.000 A 
ATOM     28  C   UNL     1       3.506   0.961  -9.421  0.00  0.00    +0.000 A 
ATOM     29  O   UNL     1       3.519   0.112  -8.363  0.00  0.00    +0.000 OA
ENDBRANCH   6  25
BRANCH   2  30
ATOM     30  C   UNL     1       2.085  -5.321  -5.607  0.00  0.00    +0.000 C 
ATOM     31  O   UNL     1       1.112  -5.684  -6.246  0.00  0.00    +0.000 OA
ATOM     32  O   UNL     1       2.593  -6.094  -4.630  0.00  0.00    +0.000 OA
ENDBRANCH   2  30
TORSDOF 5
