REMARK  Name = 
REMARK  10 active torsions:
REMARK  status: ('A' for Active; 'I' for Inactive)
REMARK    1  A    between atoms: C_1  and  C_2
REMARK    2  A    between atoms: C_2  and  C_12
REMARK    3  A    between atoms: C_3  and  C_4
REMARK    4  A    between atoms: C_4  and  C_5
REMARK    5  A    between atoms: C_16  and  O_17
REMARK    6  A    between atoms: O_17  and  C_18
REMARK    7  A    between atoms: C_18  and  C_19
REMARK    8  A    between atoms: C_19  and  C_20
REMARK    9  A    between atoms: C_22  and  C_23
REMARK   10  A    between atoms: C_30  and  C_31
REMARK                            x       y       z     vdW  Elec       q    Type
REMARK                         _______ _______ _______ _____ _____    ______ ____
ROOT
ATOM      1  C   UNL     1      -3.799   4.507  -1.800  0.00  0.00    +0.000 A 
ATOM      2  C   UNL     1      -4.088   4.559  -3.169  0.00  0.00    +0.000 A 
ATOM      3  C   UNL     1      -4.983   5.505  -3.667  0.00  0.00    +0.000 A 
ATOM      4  C   UNL     1      -5.603   6.414  -2.804  0.00  0.00    +0.000 A 
ATOM      5  C   UNL     1      -5.332   6.382  -1.435  0.00  0.00    +0.000 A 
ATOM      6  C   UNL     1      -4.424   5.425  -0.940  0.00  0.00    +0.000 A 
ENDROOT
BRANCH   1   8
ATOM      7  C   UNL     1      -1.410   3.848  -1.325  0.00  0.00    +0.000 C 
ATOM      8  C   UNL     1      -2.862   3.462  -1.322  0.00  0.00    +0.000 C 
ATOM      9  C   UNL     1      -3.361   2.239  -1.051  0.00  0.00    +0.000 C 
BRANCH   9  10
ATOM     10  C   UNL     1      -2.598   0.974  -0.733  0.00  0.00    +0.000 C 
BRANCH  10  11
ATOM     11  C   UNL     1      -2.919   0.390   0.641  0.00  0.00    +0.000 C 
ATOM     12  O   UNL     1      -4.311   0.035   0.738  0.00  0.00    +0.000 OA
ATOM     13  C   UNL     1      -4.421  -1.308   0.919  0.00  0.00    +0.000 C 
ATOM     14  O   UNL     1      -5.480  -1.907   0.984  0.00  0.00    +0.000 OA
ATOM     15  N   UNL     1      -3.205  -1.865   1.004  0.00  0.00    +0.000 N 
ATOM     16  C   UNL     1      -2.238  -0.944   0.816  0.00  0.00    +0.000 C 
ATOM     17  O   UNL     1      -1.041  -1.170   0.766  0.00  0.00    +0.000 OA
ATOM     18  H   UNL     1      -3.040  -2.820   1.180  0.00  0.00    +0.000 HD
ENDBRANCH  10  11
ENDBRANCH   9  10
ENDBRANCH   1   8
BRANCH   5  19
ATOM     19  O   UNL     1      -5.882   7.226  -0.500  0.00  0.00    +0.000 OA
BRANCH  19  20
ATOM     20  C   UNL     1      -6.921   8.127  -0.938  0.00  0.00    +0.000 C 
BRANCH  20  21
ATOM     21  C   UNL     1      -7.492   8.856   0.285  0.00  0.00    +0.000 C 
BRANCH  21  22
ATOM     22  C   UNL     1      -8.643   9.773   0.013  0.00  0.00    +0.000 A 
ATOM     23  N   UNL     1      -9.164   9.962  -1.260  0.00  0.00    +0.000 NA
ATOM     24  C   UNL     1     -10.199  10.766  -1.077  0.00  0.00    +0.000 A 
ATOM     25  O   UNL     1     -10.361  11.162   0.219  0.00  0.00    +0.000 OA
ATOM     26  C   UNL     1      -9.389  10.514   0.913  0.00  0.00    +0.000 A 
ATOM     27  C   UNL     1      -9.429  10.741   2.367  0.00  0.00    +0.000 C 
BRANCH  24  28
ATOM     28  C   UNL     1     -11.252  11.214  -1.987  0.00  0.00    +0.000 A 
ATOM     29  C   UNL     1     -11.212  10.895  -3.349  0.00  0.00    +0.000 A 
ATOM     30  C   UNL     1     -12.280  11.232  -4.188  0.00  0.00    +0.000 A 
ATOM     31  C   UNL     1     -13.396  11.895  -3.677  0.00  0.00    +0.000 A 
ATOM     32  C   UNL     1     -13.438  12.251  -2.333  0.00  0.00    +0.000 A 
ATOM     33  C   UNL     1     -12.371  11.915  -1.498  0.00  0.00    +0.000 A 
ENDBRANCH  24  28
ENDBRANCH  21  22
ENDBRANCH  20  21
ENDBRANCH  19  20
ENDBRANCH   5  19
TORSDOF 8
