REMARK  Name = 
REMARK  5 active torsions:
REMARK  status: ('A' for Active; 'I' for Inactive)
REMARK    1  A    between atoms: C_1  and  N_2
REMARK    2  A    between atoms: C_5  and  C_6
REMARK    3  A    between atoms: C_7  and  O_8
REMARK    4  A    between atoms: C_10  and  O_11
REMARK    5  A    between atoms: C_16  and  C_17
REMARK                            x       y       z     vdW  Elec       q    Type
REMARK                         _______ _______ _______ _____ _____    ______ ____
ROOT
ATOM      1  C   UNL     1      -1.377  -4.664  -0.541  0.00  0.00    +0.000 A 
ATOM      2  C   UNL     1      -1.392  -5.884   0.161  0.00  0.00    +0.000 A 
ATOM      3  C   UNL     1      -1.993  -7.022  -0.381  0.00  0.00    +0.000 A 
ATOM      4  C   UNL     1      -2.594  -6.954  -1.638  0.00  0.00    +0.000 A 
ATOM      5  C   UNL     1      -2.588  -5.754  -2.365  0.00  0.00    +0.000 A 
ATOM      6  C   UNL     1      -3.218  -5.628  -3.700  0.00  0.00    +0.000 A 
ATOM      7  O   UNL     1      -3.746  -6.553  -4.313  0.00  0.00    +0.000 OA
ATOM      8  C   UNL     1      -3.215  -4.291  -4.312  0.00  0.00    +0.000 A 
ATOM      9  C   UNL     1      -2.609  -3.285  -3.675  0.00  0.00    +0.000 A 
ATOM     10  O   UNL     1      -1.934  -3.407  -2.481  0.00  0.00    +0.000 OA
ATOM     11  C   UNL     1      -1.976  -4.617  -1.817  0.00  0.00    +0.000 A 
ENDROOT
BRANCH   1  16
ATOM     12  C   UNL     1       1.280  -1.245   2.689  0.00  0.00    +0.000 C 
ATOM     13  N   UNL     1       0.606  -1.236   1.401  0.00  0.00    +0.000 N 
ATOM     14  C   UNL     1       1.291  -2.036   0.393  0.00  0.00    +0.000 C 
ATOM     15  C   UNL     1       0.551  -3.193  -0.194  0.00  0.00    +0.000 C 
ATOM     16  C   UNL     1      -0.741  -3.457   0.036  0.00  0.00    +0.000 C 
ATOM     17  C   UNL     1      -1.582  -2.559   0.888  0.00  0.00    +0.000 C 
ATOM     18  C   UNL     1      -0.848  -1.347   1.496  0.00  0.00    +0.000 C 
ATOM     19  H   UNL     1       0.698  -0.297   1.014  0.00  0.00    +0.000 HD
ENDBRANCH   1  16
BRANCH   9  20
ATOM     20  C   UNL     1      -2.616  -1.922  -4.233  0.00  0.00    +0.000 A 
ATOM     21  C   UNL     1      -1.575  -1.544  -5.097  0.00  0.00    +0.000 A 
ATOM     22  C   UNL     1      -1.569  -0.281  -5.698  0.00  0.00    +0.000 A 
ATOM     23  C   UNL     1      -2.606   0.613  -5.443  0.00  0.00    +0.000 A 
ATOM     24 CL   UNL     1      -2.616   2.154  -6.208  0.00  0.00    +0.000 Cl
ATOM     25  C   UNL     1      -3.635   0.269  -4.572  0.00  0.00    +0.000 A 
ATOM     26  C   UNL     1      -3.635  -0.990  -3.960  0.00  0.00    +0.000 A 
ATOM     27 CL   UNL     1      -4.919  -1.331  -2.853  0.00  0.00    +0.000 Cl
ENDBRANCH   9  20
BRANCH   2  28
ATOM     28  O   UNL     1      -0.818  -5.960   1.405  0.00  0.00    +0.000 OA
ATOM     29  H   UNL     1      -0.411  -5.204   1.780  0.00  0.00    +0.000 HD
ENDBRANCH   2  28
BRANCH   4  30
ATOM     30  O   UNL     1      -3.190  -8.074  -2.143  0.00  0.00    +0.000 OA
ATOM     31  H   UNL     1      -3.187  -8.870  -1.648  0.00  0.00    +0.000 HD
ENDBRANCH   4  30
TORSDOF 4
