REMARK  Name = 
REMARK  4 active torsions:
REMARK  status: ('A' for Active; 'I' for Inactive)
REMARK    1  A    between atoms: C_1  and  C_2
REMARK    2  A    between atoms: C_10  and  C_11
REMARK    3  A    between atoms: C_14  and  N_15
REMARK    4  A    between atoms: N_22  and  C_23
REMARK                            x       y       z     vdW  Elec       q    Type
REMARK                         _______ _______ _______ _____ _____    ______ ____
ROOT
ATOM      1  C   UNL     1       0.877   0.786   0.778  0.00  0.00    +0.000 C 
ATOM      2  C   UNL     1       0.303   1.182  -0.582  0.00  0.00    +0.000 C 
ATOM      3  C   UNL     1       1.170   2.279  -1.246  0.00  0.00    +0.000 C 
ATOM      4  C   UNL     1       0.445   3.572  -1.510  0.00  0.00    +0.000 A 
ATOM      5  C   UNL     1       0.896   4.785  -0.973  0.00  0.00    +0.000 A 
ATOM      6  C   UNL     1       0.141   5.916  -1.215  0.00  0.00    +0.000 A 
ATOM      7  C   UNL     1      -0.993   5.889  -1.995  0.00  0.00    +0.000 A 
ATOM      8  C   UNL     1      -1.451   4.730  -2.569  0.00  0.00    +0.000 A 
ATOM      9  C   UNL     1      -0.729   3.564  -2.300  0.00  0.00    +0.000 A 
ATOM     10  C   UNL     1      -1.322   2.275  -2.761  0.00  0.00    +0.000 C 
ATOM     11  N   UNL     1      -1.721   1.356  -1.918  0.00  0.00    +0.000 NA
ATOM     12  N   UNL     1      -1.155   1.464  -0.637  0.00  0.00    +0.000 N 
ATOM     13  C   UNL     1      -1.929   1.821   0.489  0.00  0.00    +0.000 C 
ATOM     14  O   UNL     1      -1.440   2.027   1.599  0.00  0.00    +0.000 OA
ATOM     15  N   UNL     1      -3.279   1.884   0.202  0.00  0.00    +0.000 N 
ATOM     16  O   UNL     1      -1.600   7.103  -2.080  0.00  0.00    +0.000 OA
ATOM     17  C   UNL     1      -0.813   7.852  -1.133  0.00  0.00    +0.000 C 
ATOM     18  O   UNL     1       0.380   7.157  -0.710  0.00  0.00    +0.000 OA
ATOM     19  H   UNL     1      -3.519   1.884  -0.753  0.00  0.00    +0.000 HD
ENDROOT
BRANCH  10  20
ATOM     20  C   UNL     1      -1.483   2.105  -4.237  0.00  0.00    +0.000 A 
ATOM     21  C   UNL     1      -0.539   2.676  -5.105  0.00  0.00    +0.000 A 
ATOM     22  C   UNL     1      -0.704   2.584  -6.488  0.00  0.00    +0.000 A 
ATOM     23  C   UNL     1      -1.824   1.952  -7.025  0.00  0.00    +0.000 A 
ATOM     24  C   UNL     1      -2.689   1.275  -6.158  0.00  0.00    +0.000 A 
ATOM     25  C   UNL     1      -2.533   1.358  -4.767  0.00  0.00    +0.000 A 
BRANCH  23  26
ATOM     26  N   UNL     1      -1.948   1.811  -8.411  0.00  0.00    +0.000 N 
ATOM     27  H   UNL     1      -1.334   2.292  -9.012  0.00  0.00    +0.000 HD
ATOM     28  H   UNL     1      -2.650   1.231  -8.787  0.00  0.00    +0.000 HD
ENDBRANCH  23  26
ENDBRANCH  10  20
BRANCH  15  29
ATOM     29  C   UNL     1      -4.359   1.948   1.112  0.00  0.00    +0.000 A 
ATOM     30  C   UNL     1      -4.216   2.126   2.493  0.00  0.00    +0.000 A 
ATOM     31  C   UNL     1      -5.320   2.010   3.348  0.00  0.00    +0.000 A 
ATOM     32  C   UNL     1      -6.582   1.732   2.830  0.00  0.00    +0.000 A 
ATOM     33  C   UNL     1      -6.749   1.622   1.452  0.00  0.00    +0.000 A 
ATOM     34  C   UNL     1      -5.645   1.742   0.599  0.00  0.00    +0.000 A 
ENDBRANCH  15  29
TORSDOF 3
