REMARK  Name = 
REMARK  9 active torsions:
REMARK  status: ('A' for Active; 'I' for Inactive)
REMARK    1  A    between atoms: C_1  and  C_2
REMARK    2  A    between atoms: C_2  and  N_3
REMARK    3  A    between atoms: N_3  and  C_4
REMARK    4  A    between atoms: C_14  and  C_16
REMARK    5  A    between atoms: C_19  and  C_20
REMARK    6  A    between atoms: C_21  and  O_22
REMARK    7  A    between atoms: O_22  and  C_23
REMARK    8  A    between atoms: C_24  and  C_25
REMARK    9  A    between atoms: C_26  and  C_27
REMARK                            x       y       z     vdW  Elec       q    Type
REMARK                         _______ _______ _______ _____ _____    ______ ____
ROOT
ATOM      1  C   UNL     1       0.550  -4.574   1.980  0.00  0.00    +0.000 A 
ATOM      2  C   UNL     1      -0.606  -5.175   1.481  0.00  0.00    +0.000 A 
ATOM      3  C   UNL     1      -1.846  -4.584   1.700  0.00  0.00    +0.000 A 
ATOM      4  C   UNL     1      -1.894  -3.420   2.447  0.00  0.00    +0.000 A 
ATOM      5  N   UNL     1      -0.811  -2.813   2.975  0.00  0.00    +0.000 NA
ATOM      6  C   UNL     1       0.396  -3.390   2.767  0.00  0.00    +0.000 A 
ATOM      7  N   UNL     1       1.550  -2.717   3.180  0.00  0.00    +0.000 N 
ATOM      8  C   UNL     1       1.428  -1.275   3.403  0.00  0.00    +0.000 C 
ATOM      9  C   UNL     1       2.822  -0.660   3.177  0.00  0.00    +0.000 C 
ATOM     10  N   UNL     1       3.899  -1.324   3.944  0.00  0.00    +0.000 N 
ATOM     11  C   UNL     1       5.071  -0.704   4.390  0.00  0.00    +0.000 C 
ATOM     12  O   UNL     1       5.853  -1.290   5.137  0.00  0.00    +0.000 OA
ATOM     13  C   UNL     1       3.843  -2.799   3.970  0.00  0.00    +0.000 C 
ATOM     14  C   UNL     1       2.416  -3.346   4.194  0.00  0.00    +0.000 C 
ENDROOT
BRANCH  11  15
ATOM     15  C   UNL     1       5.355   0.657   3.972  0.00  0.00    +0.000 A 
ATOM     16  C   UNL     1       5.056   1.341   2.811  0.00  0.00    +0.000 A 
ATOM     17  C   UNL     1       5.472   2.694   2.953  0.00  0.00    +0.000 A 
ATOM     18  C   UNL     1       5.299   3.828   2.135  0.00  0.00    +0.000 A 
ATOM     19  C   UNL     1       4.507   3.687   0.856  0.00  0.00    +0.000 C 
ATOM     20  C   UNL     1       5.862   5.068   2.551  0.00  0.00    +0.000 A 
ATOM     21  C   UNL     1       6.605   5.152   3.755  0.00  0.00    +0.000 A 
ATOM     22  C   UNL     1       7.254   6.409   4.283  0.00  0.00    +0.000 C 
ATOM     23  C   UNL     1       6.782   3.978   4.577  0.00  0.00    +0.000 A 
ATOM     24  C   UNL     1       7.602   3.969   5.843  0.00  0.00    +0.000 C 
ATOM     25  C   UNL     1       6.172   2.784   4.140  0.00  0.00    +0.000 A 
ATOM     26  N   UNL     1       6.135   1.526   4.717  0.00  0.00    +0.000 N 
ATOM     27  H   UNL     1       6.601   1.281   5.549  0.00  0.00    +0.000 HD
BRANCH  20  28
ATOM     28  O   UNL     1       5.561   6.036   1.634  0.00  0.00    +0.000 OA
ATOM     29  C   UNL     1       5.945   7.387   1.713  0.00  0.00    +0.000 C 
ENDBRANCH  20  28
ENDBRANCH  11  15
BRANCH   1  30
ATOM     30  N   UNL     1       1.839  -5.117   1.801  0.00  0.00    +0.000 N 
ATOM     31  H   UNL     1       2.533  -4.948   2.478  0.00  0.00    +0.000 HD
BRANCH  30  33
ATOM     32  C   UNL     1       3.610  -6.368   0.759  0.00  0.00    +0.000 C 
ATOM     33  C   UNL     1       2.159  -5.921   0.637  0.00  0.00    +0.000 C 
ENDBRANCH  30  33
ENDBRANCH   1  30
TORSDOF 4
