REMARK  Name = 
REMARK  9 active torsions:
REMARK  status: ('A' for Active; 'I' for Inactive)
REMARK    1  A    between atoms: C_1  and  C_2
REMARK    2  A    between atoms: C_2  and  C_3
REMARK    3  A    between atoms: C_3  and  C_4
REMARK    4  A    between atoms: C_16  and  C_17
REMARK    5  A    between atoms: C_16  and  C_18
REMARK    6  A    between atoms: C_22  and  C_23
REMARK    7  A    between atoms: C_24  and  C_25
REMARK    8  A    between atoms: C_24  and  C_26
REMARK    9  A    between atoms: C_27  and  O_28
REMARK                            x       y       z     vdW  Elec       q    Type
REMARK                         _______ _______ _______ _____ _____    ______ ____
ROOT
ATOM      1  C   UNL     1       0.213  -1.657  -0.622  0.00  0.00    +0.000 A 
ATOM      2  C   UNL     1      -0.564  -0.603  -0.282  0.00  0.00    +0.000 A 
ATOM      3  C   UNL     1      -1.325  -0.520   0.963  0.00  0.00    +0.000 A 
ATOM      4  O   UNL     1      -2.035   0.440   1.234  0.00  0.00    +0.000 OA
ATOM      5  O   UNL     1      -1.141  -1.550   1.833  0.00  0.00    +0.000 OA
ATOM      6  C   UNL     1      -0.009  -2.325   1.615  0.00  0.00    +0.000 A 
ATOM      7  C   UNL     1       0.797  -2.504   2.699  0.00  0.00    +0.000 A 
ATOM      8  C   UNL     1       1.571  -3.640   2.773  0.00  0.00    +0.000 A 
ATOM      9  C   UNL     1       1.715  -4.411   1.612  0.00  0.00    +0.000 A 
ATOM     10  C   UNL     1       1.256  -3.887   0.370  0.00  0.00    +0.000 A 
ATOM     11  C   UNL     1       0.429  -2.737   0.378  0.00  0.00    +0.000 A 
ATOM     12  O   UNL     1       1.561  -4.503  -0.825  0.00  0.00    +0.000 OA
ATOM     13  C   UNL     1       2.499  -5.619  -0.828  0.00  0.00    +0.000 C 
ATOM     14  C   UNL     1       1.972  -6.693  -1.789  0.00  0.00    +0.000 C 
ATOM     15  C   UNL     1       3.836  -5.095  -1.337  0.00  0.00    +0.000 C 
ATOM     16  C   UNL     1       2.735  -6.270   0.514  0.00  0.00    +0.000 C 
ATOM     17  C   UNL     1       2.394  -5.697   1.666  0.00  0.00    +0.000 C 
ATOM     18  O   UNL     1       2.124  -4.014   3.965  0.00  0.00    +0.000 OA
ATOM     19  C   UNL     1       2.320  -2.962   4.947  0.00  0.00    +0.000 C 
ATOM     20  C   UNL     1       2.530  -3.668   6.285  0.00  0.00    +0.000 C 
ATOM     21  C   UNL     1       1.200  -1.877   5.021  0.00  0.00    +0.000 C 
ATOM     22  C   UNL     1      -0.171  -2.420   5.488  0.00  0.00    +0.000 C 
ATOM     23  C   UNL     1       1.605  -0.700   5.926  0.00  0.00    +0.000 C 
ATOM     24  C   UNL     1       1.012  -1.349   3.615  0.00  0.00    +0.000 C 
ENDROOT
BRANCH  24  25
ATOM     25  O   UNL     1       2.181  -0.680   3.124  0.00  0.00    +0.000 OA
ATOM     26  H   UNL     1       2.924  -1.303   3.100  0.00  0.00    +0.000 HD
ENDBRANCH  24  25
BRANCH   1  27
ATOM     27  C   UNL     1       1.118  -1.483  -1.801  0.00  0.00    +0.000 C 
BRANCH  27  29
ATOM     28  C   UNL     1       1.298  -1.509  -4.297  0.00  0.00    +0.000 C 
ATOM     29  C   UNL     1       0.472  -1.947  -3.097  0.00  0.00    +0.000 C 
ENDBRANCH  27  29
ENDBRANCH   1  27
TORSDOF 3
