REMARK  Name = 
REMARK  7 active torsions:
REMARK  status: ('A' for Active; 'I' for Inactive)
REMARK    1  A    between atoms: C_1  and  N_2
REMARK    2  A    between atoms: C_4  and  C_5
REMARK    3  A    between atoms: C_6  and  C_7
REMARK    4  A    between atoms: N_9  and  C_10
REMARK    5  A    between atoms: C_10  and  C_11
REMARK    6  A    between atoms: C_11  and  C_12
REMARK    7  A    between atoms: C_12  and  N_13
REMARK                            x       y       z     vdW  Elec       q    Type
REMARK                         _______ _______ _______ _____ _____    ______ ____
ROOT
ATOM      1  C   UNL     1       0.925  -3.235  -0.012  0.00  0.00    +0.000 C 
ATOM      2  C   UNL     1       1.469  -4.024   0.924  0.00  0.00    +0.000 C 
ATOM      3  C   UNL     1       1.303  -5.423   0.484  0.00  0.00    +0.000 C 
ATOM      4  O   UNL     1       1.684  -6.422   1.062  0.00  0.00    +0.000 OA
ATOM      5  N   UNL     1       0.638  -5.392  -0.692  0.00  0.00    +0.000 N 
ATOM      6  C   UNL     1       0.340  -4.121  -1.042  0.00  0.00    +0.000 C 
ATOM      7  O   UNL     1      -0.306  -3.785  -2.017  0.00  0.00    +0.000 OA
ATOM      8  H   UNL     1       0.403  -6.188  -1.222  0.00  0.00    +0.000 HD
ENDROOT
BRANCH   1  12
ATOM      9  C   UNL     1       2.196   1.418  -0.989  0.00  0.00    +0.000 C 
ATOM     10  N   UNL     1       1.467   0.277  -0.471  0.00  0.00    +0.000 N 
ATOM     11  C   UNL     1       1.816  -1.029  -0.673  0.00  0.00    +0.000 A 
ATOM     12  C   UNL     1       0.869  -1.822  -0.053  0.00  0.00    +0.000 A 
ATOM     13  C   UNL     1      -0.085  -0.954   0.558  0.00  0.00    +0.000 A 
ATOM     14  C   UNL     1      -1.254  -1.154   1.325  0.00  0.00    +0.000 A 
ATOM     15  C   UNL     1      -1.971  -0.048   1.797  0.00  0.00    +0.000 A 
ATOM     16  C   UNL     1      -1.543   1.246   1.521  0.00  0.00    +0.000 A 
ATOM     17  C   UNL     1      -0.391   1.474   0.762  0.00  0.00    +0.000 A 
ATOM     18  C   UNL     1       0.322   0.359   0.289  0.00  0.00    +0.000 A 
ENDBRANCH   1  12
BRANCH   2  19
ATOM     19  C   UNL     1       2.096  -3.644   2.137  0.00  0.00    +0.000 A 
ATOM     20  C   UNL     1       1.440  -3.556   3.341  0.00  0.00    +0.000 A 
ATOM     21  N   UNL     1       2.340  -3.120   4.283  0.00  0.00    +0.000 N 
ATOM     22  C   UNL     1       3.566  -2.886   3.686  0.00  0.00    +0.000 A 
ATOM     23  C   UNL     1       4.770  -2.385   4.205  0.00  0.00    +0.000 A 
ATOM     24  C   UNL     1       5.907  -2.430   3.391  0.00  0.00    +0.000 A 
ATOM     25  C   UNL     1       5.834  -2.882   2.078  0.00  0.00    +0.000 A 
ATOM     26  C   UNL     1       4.608  -3.270   1.531  0.00  0.00    +0.000 A 
ATOM     27  C   UNL     1       3.457  -3.291   2.349  0.00  0.00    +0.000 A 
BRANCH  21  28
ATOM     28  C   UNL     1       2.067  -3.102   5.712  0.00  0.00    +0.000 C 
BRANCH  28  29
ATOM     29  C   UNL     1       1.510  -1.784   6.252  0.00  0.00    +0.000 C 
BRANCH  29  30
ATOM     30  C   UNL     1       0.198  -1.310   5.627  0.00  0.00    +0.000 C 
BRANCH  30  31
ATOM     31  N   UNL     1      -0.902  -2.245   5.839  0.00  0.00    +0.000 N 
ATOM     32  H   UNL     1      -0.679  -3.138   5.399  0.00  0.00    +0.000 HD
ATOM     33  H   UNL     1      -1.755  -1.866   5.427  0.00  0.00    +0.000 HD
ATOM     34  H   UNL     1      -1.041  -2.385   6.840  0.00  0.00    +0.000 HD
ENDBRANCH  30  31
ENDBRANCH  29  30
ENDBRANCH  28  29
ENDBRANCH  21  28
ENDBRANCH   2  19
TORSDOF 6
