REMARK  Name = 
REMARK  9 active torsions:
REMARK  status: ('A' for Active; 'I' for Inactive)
REMARK    1  A    between atoms: C_1  and  N_2
REMARK    2  A    between atoms: C_4  and  C_5
REMARK    3  A    between atoms: C_6  and  C_7
REMARK    4  A    between atoms: N_9  and  C_10
REMARK    5  A    between atoms: C_10  and  C_11
REMARK    6  A    between atoms: C_11  and  C_12
REMARK    7  A    between atoms: C_12  and  C_13
REMARK    8  A    between atoms: C_13  and  C_14
REMARK    9  A    between atoms: C_14  and  O_15
REMARK                            x       y       z     vdW  Elec       q    Type
REMARK                         _______ _______ _______ _____ _____    ______ ____
ROOT
ATOM      1  C   UNL     1       1.447  -3.317  -0.271  0.00  0.00    +0.000 C 
ATOM      2  C   UNL     1       1.485  -4.020   0.875  0.00  0.00    +0.000 C 
ATOM      3  C   UNL     1       0.706  -5.263   0.676  0.00  0.00    +0.000 C 
ATOM      4  O   UNL     1       0.533  -6.154   1.478  0.00  0.00    +0.000 OA
ATOM      5  N   UNL     1       0.211  -5.220  -0.584  0.00  0.00    +0.000 N 
ATOM      6  C   UNL     1       0.585  -4.076  -1.210  0.00  0.00    +0.000 C 
ATOM      7  O   UNL     1       0.248  -3.741  -2.322  0.00  0.00    +0.000 OA
ATOM      8  H   UNL     1      -0.346  -5.923  -0.990  0.00  0.00    +0.000 HD
ENDROOT
BRANCH   1  12
ATOM      9  C   UNL     1       2.045   1.552  -0.657  0.00  0.00    +0.000 C 
ATOM     10  N   UNL     1       2.299   0.132  -0.756  0.00  0.00    +0.000 N 
ATOM     11  C   UNL     1       1.444  -0.846  -0.324  0.00  0.00    +0.000 A 
ATOM     12  C   UNL     1       2.039  -2.065  -0.566  0.00  0.00    +0.000 A 
ATOM     13  C   UNL     1       3.306  -1.817  -1.176  0.00  0.00    +0.000 A 
ATOM     14  C   UNL     1       4.350  -2.635  -1.660  0.00  0.00    +0.000 A 
ATOM     15  C   UNL     1       5.475  -2.048  -2.254  0.00  0.00    +0.000 A 
ATOM     16  C   UNL     1       5.576  -0.664  -2.366  0.00  0.00    +0.000 A 
ATOM     17  C   UNL     1       4.562   0.169  -1.891  0.00  0.00    +0.000 A 
ATOM     18  C   UNL     1       3.437  -0.429  -1.299  0.00  0.00    +0.000 A 
ENDBRANCH   1  12
BRANCH   2  19
ATOM     19  C   UNL     1       2.049  -3.655   2.110  0.00  0.00    +0.000 A 
ATOM     20  C   UNL     1       3.348  -3.894   2.499  0.00  0.00    +0.000 A 
ATOM     21  N   UNL     1       3.505  -3.377   3.764  0.00  0.00    +0.000 N 
ATOM     22  C   UNL     1       2.281  -2.926   4.241  0.00  0.00    +0.000 A 
ATOM     23  C   UNL     1       1.852  -2.454   5.496  0.00  0.00    +0.000 A 
ATOM     24  C   UNL     1       0.608  -1.816   5.593  0.00  0.00    +0.000 A 
ATOM     25  C   UNL     1      -0.256  -1.776   4.511  0.00  0.00    +0.000 A 
ATOM     26  C   UNL     1       0.098  -2.409   3.317  0.00  0.00    +0.000 A 
ATOM     27  C   UNL     1       1.387  -2.970   3.165  0.00  0.00    +0.000 A 
BRANCH  21  28
ATOM     28  C   UNL     1       4.801  -3.308   4.425  0.00  0.00    +0.000 C 
BRANCH  28  29
ATOM     29  C   UNL     1       5.871  -2.458   3.702  0.00  0.00    +0.000 C 
BRANCH  29  30
ATOM     30  C   UNL     1       5.523  -0.979   3.480  0.00  0.00    +0.000 C 
BRANCH  30  31
ATOM     31  C   UNL     1       5.286  -0.219   4.788  0.00  0.00    +0.000 C 
BRANCH  31  32
ATOM     32  C   UNL     1       4.944   1.250   4.599  0.00  0.00    +0.000 C 
BRANCH  32  33
ATOM     33  O   UNL     1       4.735   1.872   5.863  0.00  0.00    +0.000 OA
ATOM     34  H   UNL     1       4.000   1.435   6.322  0.00  0.00    +0.000 HD
ENDBRANCH  32  33
ENDBRANCH  31  32
ENDBRANCH  30  31
ENDBRANCH  29  30
ENDBRANCH  28  29
ENDBRANCH  21  28
ENDBRANCH   2  19
TORSDOF 8
