REMARK  Name = 
REMARK  14 active torsions:
REMARK  status: ('A' for Active; 'I' for Inactive)
REMARK    1  A    between atoms: C_1  and  C_2
REMARK    2  A    between atoms: C_2  and  C_3
REMARK    3  A    between atoms: C_2  and  C_4
REMARK    4  A    between atoms: C_2  and  N_5
REMARK    5  A    between atoms: N_5  and  C_6
REMARK    6  A    between atoms: C_6  and  C_7
REMARK    7  A    between atoms: C_7  and  O_8
REMARK    8  A    between atoms: C_7  and  C_9
REMARK    9  A    between atoms: C_9  and  O_10
REMARK   10  A    between atoms: O_10  and  C_11
REMARK   11  A    between atoms: C_11  and  C_13
REMARK   12  A    between atoms: C_16  and  O_17
REMARK   13  A    between atoms: O_17  and  C_18
REMARK   14  A    between atoms: C_18  and  C_19
REMARK                            x       y       z     vdW  Elec       q    Type
REMARK                         _______ _______ _______ _____ _____    ______ ____
ROOT
ATOM      1  C   UNL     1       4.808  -0.524  -1.475  0.00  0.00    +0.000 C 
ATOM      2  O   UNL     1       4.501  -0.858  -2.606  0.00  0.00    +0.000 OA
ENDROOT
BRANCH   1   3
ATOM      3  C   UNL     1       5.083   0.880  -1.091  0.00  0.00    +0.000 A 
ATOM      4  C   UNL     1       4.582   1.889  -1.921  0.00  0.00    +0.000 A 
ATOM      5  C   UNL     1       4.682   3.225  -1.533  0.00  0.00    +0.000 A 
ATOM      6  C   UNL     1       5.288   3.566  -0.323  0.00  0.00    +0.000 A 
ATOM      7  C   UNL     1       5.856   2.561   0.468  0.00  0.00    +0.000 A 
ATOM      8  C   UNL     1       5.746   1.219   0.092  0.00  0.00    +0.000 A 
BRANCH   6   9
ATOM      9  O   UNL     1       5.251   4.899  -0.013  0.00  0.00    +0.000 OA
BRANCH   9  10
ATOM     10  C   UNL     1       5.524   5.217   1.352  0.00  0.00    +0.000 C 
BRANCH  10  11
ATOM     11  C   UNL     1       5.111   6.629   1.689  0.00  0.00    +0.000 A 
ATOM     12  C   UNL     1       4.570   6.903   2.956  0.00  0.00    +0.000 A 
ATOM     13  C   UNL     1       4.289   8.213   3.341  0.00  0.00    +0.000 A 
ATOM     14  C   UNL     1       4.548   9.265   2.467  0.00  0.00    +0.000 A 
ATOM     15  C   UNL     1       5.068   9.006   1.199  0.00  0.00    +0.000 A 
ATOM     16  C   UNL     1       5.348   7.694   0.810  0.00  0.00    +0.000 A 
ENDBRANCH  10  11
ENDBRANCH   9  10
ENDBRANCH   6   9
ENDBRANCH   1   3
BRANCH   1  17
ATOM     17  O   UNL     1       4.798  -1.313  -0.376  0.00  0.00    +0.000 OA
BRANCH  17  18
ATOM     18  C   UNL     1       4.056  -2.535  -0.518  0.00  0.00    +0.000 C 
BRANCH  18  19
ATOM     19  C   UNL     1       4.764  -3.608  -1.346  0.00  0.00    +0.000 C 
BRANCH  19  20
ATOM     20  O   UNL     1       3.902  -4.748  -1.460  0.00  0.00    +0.000 OA
ATOM     21  H   UNL     1       3.720  -5.105  -0.577  0.00  0.00    +0.000 HD
ENDBRANCH  19  20
BRANCH  19  22
ATOM     22  C   UNL     1       6.102  -4.046  -0.716  0.00  0.00    +0.000 C 
BRANCH  22  23
ATOM     23  N   UNL     1       6.736  -5.051  -1.590  0.00  0.00    +0.000 N 
ATOM     24  H   UNL     1       6.107  -5.851  -1.654  0.00  0.00    +0.000 HD
ATOM     25  H   UNL     1       6.900  -4.581  -2.480  0.00  0.00    +0.000 HD
BRANCH  23  27
ATOM     26  C   UNL     1       7.969  -6.282   0.199  0.00  0.00    +0.000 C 
ATOM     27  C   UNL     1       8.056  -5.545  -1.147  0.00  0.00    +0.000 C 
ATOM     28  C   UNL     1       9.099  -4.417  -1.059  0.00  0.00    +0.000 C 
ATOM     29  C   UNL     1       8.513  -6.550  -2.223  0.00  0.00    +0.000 C 
ENDBRANCH  23  27
ENDBRANCH  22  23
ENDBRANCH  19  22
ENDBRANCH  18  19
ENDBRANCH  17  18
ENDBRANCH   1  17
TORSDOF 11
