REMARK  Name = 
REMARK  6 active torsions:
REMARK  status: ('A' for Active; 'I' for Inactive)
REMARK    1  A    between atoms: C_1  and  C_2
REMARK    2  A    between atoms: N_5  and  S_6
REMARK    3  A    between atoms: S_6  and  C_9
REMARK    4  A    between atoms: C_14  and  N_15
REMARK    5  A    between atoms: N_15  and  C_16
REMARK    6  A    between atoms: N_15  and  C_17
REMARK                            x       y       z     vdW  Elec       q    Type
REMARK                         _______ _______ _______ _____ _____    ______ ____
ROOT
ATOM      1  S   UNL     1      -1.156   0.846   6.142  0.00  0.00    +0.000 S 
ATOM      2  O   UNL     1      -0.102   1.016   5.162  0.00  0.00    +0.000 OA
ATOM      3  O   UNL     1      -1.034   1.494   7.434  0.00  0.00    +0.000 OA
ENDROOT
BRANCH   1   8
ATOM      4  C   UNL     1      -5.223   3.909   8.786  0.00  0.00    +0.000 C 
ATOM      5  C   UNL     1      -4.966   2.723   7.905  0.00  0.00    +0.000 A 
ATOM      6  C   UNL     1      -3.879   2.704   7.024  0.00  0.00    +0.000 A 
ATOM      7  C   UNL     1      -3.664   1.574   6.252  0.00  0.00    +0.000 A 
ATOM      8  N   UNL     1      -2.550   1.445   5.411  0.00  0.00    +0.000 N 
ATOM      9  N   UNL     1      -4.454   0.492   6.320  0.00  0.00    +0.000 NA
ATOM     10  N   UNL     1      -5.531   0.504   7.162  0.00  0.00    +0.000 NA
ATOM     11  C   UNL     1      -5.766   1.587   7.932  0.00  0.00    +0.000 A 
ATOM     12 CL   UNL     1      -7.127   1.425   8.962  0.00  0.00    +0.000 Cl
ATOM     13  H   UNL     1      -2.580   1.689   4.458  0.00  0.00    +0.000 HD
ENDBRANCH   1   8
BRANCH   1  14
ATOM     14  C   UNL     1      -1.384  -0.912   6.388  0.00  0.00    +0.000 A 
ATOM     15  C   UNL     1      -1.265  -1.370   7.706  0.00  0.00    +0.000 A 
ATOM     16  C   UNL     1      -1.229  -2.730   7.957  0.00  0.00    +0.000 A 
ATOM     17  C   UNL     1      -1.230  -3.630   6.891  0.00  0.00    +0.000 A 
ATOM     18  C   UNL     1      -1.253  -3.222   5.534  0.00  0.00    +0.000 A 
ATOM     19  C   UNL     1      -1.120  -4.145   4.430  0.00  0.00    +0.000 A 
ATOM     20  C   UNL     1      -1.406  -3.638   3.145  0.00  0.00    +0.000 A 
ATOM     21  C   UNL     1      -1.754  -2.311   2.927  0.00  0.00    +0.000 A 
ATOM     22  C   UNL     1      -1.754  -1.416   3.983  0.00  0.00    +0.000 A 
ATOM     23  C   UNL     1      -1.458  -1.824   5.296  0.00  0.00    +0.000 A 
BRANCH  19  24
ATOM     24  N   UNL     1      -0.755  -5.506   4.589  0.00  0.00    +0.000 N 
ATOM     25  C   UNL     1       0.418  -5.841   5.408  0.00  0.00    +0.000 C 
ATOM     26  C   UNL     1      -0.905  -6.414   3.443  0.00  0.00    +0.000 C 
ENDBRANCH  19  24
ENDBRANCH   1  14
TORSDOF 3
