REMARK  Name = 
REMARK  11 active torsions:
REMARK  status: ('A' for Active; 'I' for Inactive)
REMARK    1  A    between atoms: C_1  and  C_2
REMARK    2  A    between atoms: C_2  and  C_3
REMARK    3  A    between atoms: C_3  and  C_4
REMARK    4  A    between atoms: C_4  and  N_5
REMARK    5  A    between atoms: C_7  and  C_8
REMARK    6  A    between atoms: N_10  and  C_11
REMARK    7  A    between atoms: C_11  and  C_12
REMARK    8  A    between atoms: C_12  and  N_13
REMARK    9  A    between atoms: N_13  and  C_14
REMARK   10  A    between atoms: N_13  and  C_15
REMARK   11  A    between atoms: C_19  and  C_20
REMARK                            x       y       z     vdW  Elec       q    Type
REMARK                         _______ _______ _______ _____ _____    ______ ____
ROOT
ATOM      1  N   UNL     1      -0.909   1.597   2.608  0.00  0.00    +0.000 N 
ATOM      2  C   UNL     1      -1.625   0.454   2.943  0.00  0.00    +0.000 A 
ATOM      3  C   UNL     1      -2.968   0.378   2.874  0.00  0.00    +0.000 A 
ATOM      4  C   UNL     1      -3.701   1.605   2.511  0.00  0.00    +0.000 A 
ATOM      5  N   UNL     1      -5.063   1.549   2.496  0.00  0.00    +0.000 NA
ATOM      6  C   UNL     1      -5.780   2.670   2.257  0.00  0.00    +0.000 A 
ATOM      7  C   UNL     1      -7.180   2.642   2.260  0.00  0.00    +0.000 A 
ATOM      8  C   UNL     1      -7.957   1.373   2.490  0.00  0.00    +0.000 C 
ATOM      9  C   UNL     1      -7.921   3.819   2.052  0.00  0.00    +0.000 A 
ATOM     10  C   UNL     1      -7.276   5.030   1.829  0.00  0.00    +0.000 A 
ATOM     11  C   UNL     1      -5.889   5.075   1.801  0.00  0.00    +0.000 A 
ATOM     12  C   UNL     1      -5.137   3.904   2.010  0.00  0.00    +0.000 A 
ATOM     13  C   UNL     1      -3.741   3.940   1.989  0.00  0.00    +0.000 A 
ATOM     14  C   UNL     1      -3.014   2.776   2.241  0.00  0.00    +0.000 A 
ATOM     15  C   UNL     1      -1.539   2.787   2.238  0.00  0.00    +0.000 A 
ATOM     16  O   UNL     1      -0.952   3.817   1.919  0.00  0.00    +0.000 OA
ENDROOT
BRANCH   3  17
ATOM     17  C   UNL     1      -3.584  -0.968   3.158  0.00  0.00    +0.000 C 
ATOM     18  O   UNL     1      -2.904  -1.940   3.471  0.00  0.00    +0.000 OA
ATOM     19  N   UNL     1      -4.942  -1.029   3.011  0.00  0.00    +0.000 N 
ATOM     20  H   UNL     1      -5.412  -0.182   2.836  0.00  0.00    +0.000 HD
BRANCH  19  21
ATOM     21  C   UNL     1      -5.755  -2.232   3.090  0.00  0.00    +0.000 C 
BRANCH  21  22
ATOM     22  C   UNL     1      -5.864  -2.816   4.512  0.00  0.00    +0.000 C 
BRANCH  22  23
ATOM     23  N   UNL     1      -6.827  -3.934   4.657  0.00  0.00    +0.000 N 
ATOM     24  C   UNL     1      -6.791  -4.437   6.034  0.00  0.00    +0.000 C 
ATOM     25  C   UNL     1      -8.196  -3.548   4.312  0.00  0.00    +0.000 C 
ATOM     26  H   UNL     1      -6.544  -4.663   4.002  0.00  0.00    +0.000 HD
ENDBRANCH  22  23
ENDBRANCH  21  22
ENDBRANCH  19  21
ENDBRANCH   3  17
BRANCH   1  27
ATOM     27  C   UNL     1       0.560   1.555   2.614  0.00  0.00    +0.000 C 
BRANCH  27  28
ATOM     28  C   UNL     1       1.168   0.508   1.671  0.00  0.00    +0.000 C 
BRANCH  28  30
ATOM     29  C   UNL     1       1.392  -0.360  -0.684  0.00  0.00    +0.000 C 
ATOM     30  C   UNL     1       0.760   0.699   0.208  0.00  0.00    +0.000 C 
ENDBRANCH  28  30
ENDBRANCH  27  28
ENDBRANCH   1  27
TORSDOF 7
