REMARK  Name = 
REMARK  14 active torsions:
REMARK  status: ('A' for Active; 'I' for Inactive)
REMARK    1  A    between atoms: C_1  and  C_2
REMARK    2  A    between atoms: C_2  and  C_3
REMARK    3  A    between atoms: C_2  and  C_4
REMARK    4  A    between atoms: C_2  and  N_5
REMARK    5  A    between atoms: N_5  and  C_6
REMARK    6  A    between atoms: C_6  and  C_7
REMARK    7  A    between atoms: C_7  and  O_8
REMARK    8  A    between atoms: C_7  and  C_9
REMARK    9  A    between atoms: C_9  and  O_10
REMARK   10  A    between atoms: O_10  and  C_11
REMARK   11  A    between atoms: C_11  and  C_13
REMARK   12  A    between atoms: C_17  and  O_18
REMARK   13  A    between atoms: O_18  and  C_19
REMARK   14  A    between atoms: C_19  and  C_20
REMARK                            x       y       z     vdW  Elec       q    Type
REMARK                         _______ _______ _______ _____ _____    ______ ____
ROOT
ATOM      1  C   UNL     1       5.108   0.846   1.303  0.00  0.00    +0.000 C 
ATOM      2  O   UNL     1       4.893   1.411   2.363  0.00  0.00    +0.000 OA
ENDROOT
BRANCH   1   3
ATOM      3  C   UNL     1       5.361  -0.611   1.214  0.00  0.00    +0.000 A 
ATOM      4  C   UNL     1       5.369  -1.329   2.417  0.00  0.00    +0.000 A 
ATOM      5  C   UNL     1       5.301  -2.719   2.392  0.00  0.00    +0.000 A 
ATOM      6  C   UNL     1       5.291  -3.391   1.171  0.00  0.00    +0.000 A 
ATOM      7  C   UNL     1       5.442  -2.687  -0.028  0.00  0.00    +0.000 A 
ATOM      8  C   UNL     1       5.437  -1.292  -0.008  0.00  0.00    +0.000 A 
BRANCH   7   9
ATOM      9  O   UNL     1       5.574  -3.259  -1.269  0.00  0.00    +0.000 OA
BRANCH   9  10
ATOM     10  C   UNL     1       6.112  -4.586  -1.271  0.00  0.00    +0.000 C 
BRANCH  10  11
ATOM     11  C   UNL     1       6.923  -4.897  -2.515  0.00  0.00    +0.000 A 
ATOM     12  C   UNL     1       7.592  -3.907  -3.246  0.00  0.00    +0.000 A 
ATOM     13  C   UNL     1       8.441  -4.256  -4.303  0.00  0.00    +0.000 A 
ATOM     14  C   UNL     1       8.629  -5.590  -4.640  0.00  0.00    +0.000 A 
ATOM     15  C   UNL     1       7.962  -6.590  -3.933  0.00  0.00    +0.000 A 
ATOM     16  C   UNL     1       7.118  -6.241  -2.875  0.00  0.00    +0.000 A 
ENDBRANCH  10  11
ENDBRANCH   9  10
ENDBRANCH   7   9
ENDBRANCH   1   3
BRANCH   1  17
ATOM     17  O   UNL     1       4.993   1.397   0.070  0.00  0.00    +0.000 OA
BRANCH  17  18
ATOM     18  C   UNL     1       4.132   2.542   0.015  0.00  0.00    +0.000 C 
BRANCH  18  19
ATOM     19  C   UNL     1       4.708   3.816   0.637  0.00  0.00    +0.000 C 
BRANCH  19  20
ATOM     20  O   UNL     1       3.717   4.848   0.555  0.00  0.00    +0.000 OA
ATOM     21  H   UNL     1       3.505   5.019  -0.376  0.00  0.00    +0.000 HD
ENDBRANCH  19  20
BRANCH  19  22
ATOM     22  C   UNL     1       6.006   4.285  -0.058  0.00  0.00    +0.000 C 
BRANCH  22  23
ATOM     23  N   UNL     1       6.537   5.479   0.629  0.00  0.00    +0.000 N 
ATOM     24  H   UNL     1       5.837   6.218   0.556  0.00  0.00    +0.000 HD
ATOM     25  H   UNL     1       6.732   5.183   1.585  0.00  0.00    +0.000 HD
BRANCH  23  27
ATOM     26  C   UNL     1       7.681   6.483  -1.351  0.00  0.00    +0.000 C 
ATOM     27  C   UNL     1       7.814   6.011   0.106  0.00  0.00    +0.000 C 
ATOM     28  C   UNL     1       8.976   5.005   0.216  0.00  0.00    +0.000 C 
ATOM     29  C   UNL     1       8.155   7.233   0.983  0.00  0.00    +0.000 C 
ENDBRANCH  23  27
ENDBRANCH  22  23
ENDBRANCH  19  22
ENDBRANCH  18  19
ENDBRANCH  17  18
ENDBRANCH   1  17
TORSDOF 11
