REMARK  Name = 
REMARK  6 active torsions:
REMARK  status: ('A' for Active; 'I' for Inactive)
REMARK    1  A    between atoms: C_1  and  N_2
REMARK    2  A    between atoms: N_2  and  C_3
REMARK    3  A    between atoms: N_2  and  C_4
REMARK    4  A    between atoms: C_9  and  S_10
REMARK    5  A    between atoms: S_10  and  N_13
REMARK    6  A    between atoms: N_13  and  C_14
REMARK                            x       y       z     vdW  Elec       q    Type
REMARK                         _______ _______ _______ _____ _____    ______ ____
ROOT
ATOM      1  C   UNL     1       0.339   1.899  -1.362  0.00  0.00    +0.000 A 
ATOM      2  C   UNL     1       1.470   2.496  -0.779  0.00  0.00    +0.000 A 
ATOM      3  C   UNL     1       1.768   3.838  -0.972  0.00  0.00    +0.000 A 
ATOM      4  C   UNL     1       1.012   4.594  -1.857  0.00  0.00    +0.000 A 
ATOM      5  C   UNL     1      -0.072   4.042  -2.570  0.00  0.00    +0.000 A 
ATOM      6  C   UNL     1      -0.814   4.751  -3.562  0.00  0.00    +0.000 A 
ATOM      7  C   UNL     1      -2.038   4.260  -4.034  0.00  0.00    +0.000 A 
ATOM      8  C   UNL     1      -2.513   3.043  -3.573  0.00  0.00    +0.000 A 
ATOM      9  C   UNL     1      -1.729   2.276  -2.707  0.00  0.00    +0.000 A 
ATOM     10  C   UNL     1      -0.476   2.714  -2.224  0.00  0.00    +0.000 A 
ENDROOT
BRANCH   1  12
ATOM     11  C   UNL     1       0.556  -0.013   0.173  0.00  0.00    +0.000 C 
ATOM     12  N   UNL     1       0.009   0.545  -1.069  0.00  0.00    +0.000 N 
ATOM     13  C   UNL     1       0.110  -0.369  -2.215  0.00  0.00    +0.000 C 
ENDBRANCH   1  12
BRANCH   6  14
ATOM     14  S   UNL     1      -0.257   6.312  -4.242  0.00  0.00    +0.000 S 
ATOM     15  O   UNL     1      -1.111   6.642  -5.371  0.00  0.00    +0.000 OA
ATOM     16  O   UNL     1      -0.122   7.235  -3.135  0.00  0.00    +0.000 OA
BRANCH  14  17
ATOM     17  N   UNL     1       1.279   6.055  -4.849  0.00  0.00    +0.000 N 
ATOM     18  H   UNL     1       2.060   6.412  -4.368  0.00  0.00    +0.000 HD
BRANCH  17  19
ATOM     19  C   UNL     1       1.462   5.331  -6.044  0.00  0.00    +0.000 A 
ATOM     20  C   UNL     1       1.199   5.872  -7.302  0.00  0.00    +0.000 A 
ATOM     21  N   UNL     1       1.603   5.271  -8.454  0.00  0.00    +0.000 NA
ATOM     22  C   UNL     1       2.260   4.104  -8.284  0.00  0.00    +0.000 A 
ATOM     23 CL   UNL     1       2.832   3.367  -9.719  0.00  0.00    +0.000 Cl
ATOM     24  C   UNL     1       2.499   3.555  -7.031  0.00  0.00    +0.000 A 
ATOM     25  N   UNL     1       2.113   4.169  -5.872  0.00  0.00    +0.000 NA
ENDBRANCH  17  19
ENDBRANCH  14  17
ENDBRANCH   6  14
TORSDOF 4
