REMARK  Name = 
REMARK  8 active torsions:
REMARK  status: ('A' for Active; 'I' for Inactive)
REMARK    1  A    between atoms: C_1  and  O_2
REMARK    2  A    between atoms: O_2  and  C_3
REMARK    3  A    between atoms: C_3  and  C_5
REMARK    4  A    between atoms: C_5  and  N_6
REMARK    5  A    between atoms: C_8  and  C_9
REMARK    6  A    between atoms: C_19  and  O_20
REMARK    7  A    between atoms: C_22  and  O_23
REMARK    8  A    between atoms: O_23  and  C_24
REMARK                            x       y       z     vdW  Elec       q    Type
REMARK                         _______ _______ _______ _____ _____    ______ ____
ROOT
ATOM      1  N   UNL     1       0.748   4.172   1.315  0.00  0.00    +0.000 N 
ATOM      2  C   UNL     1       1.445   3.970   0.130  0.00  0.00    +0.000 A 
ATOM      3  C   UNL     1       1.755   4.901  -0.790  0.00  0.00    +0.000 A 
ATOM      4  C   UNL     1       1.354   6.296  -0.502  0.00  0.00    +0.000 A 
ATOM      5  O   UNL     1       1.607   7.220  -1.273  0.00  0.00    +0.000 OA
ATOM      6  C   UNL     1       0.643   6.563   0.767  0.00  0.00    +0.000 A 
ATOM      7  C   UNL     1       0.267   7.879   1.068  0.00  0.00    +0.000 A 
ATOM      8  C   UNL     1      -0.396   8.169   2.249  0.00  0.00    +0.000 A 
ATOM      9  C   UNL     1      -0.689   7.147   3.144  0.00  0.00    +0.000 A 
ATOM     10  C   UNL     1      -0.318   5.828   2.841  0.00  0.00    +0.000 A 
ATOM     11  C   UNL     1       0.351   5.496   1.649  0.00  0.00    +0.000 A 
ENDROOT
BRANCH   3  12
ATOM     12  C   UNL     1       2.451   4.545  -2.026  0.00  0.00    +0.000 A 
ATOM     13  C   UNL     1       1.718   4.179  -3.164  0.00  0.00    +0.000 A 
ATOM     14  C   UNL     1       2.378   3.879  -4.356  0.00  0.00    +0.000 A 
ATOM     15  C   UNL     1       3.772   3.885  -4.400  0.00  0.00    +0.000 A 
ATOM     16  C   UNL     1       4.501   4.199  -3.254  0.00  0.00    +0.000 A 
ATOM     17 CL   UNL     1       6.220   4.127  -3.285  0.00  0.00    +0.000 Cl
ATOM     18  C   UNL     1       3.849   4.548  -2.073  0.00  0.00    +0.000 A 
ENDBRANCH   3  12
BRANCH   7  19
ATOM     19  O   UNL     1       0.518   8.947   0.246  0.00  0.00    +0.000 OA
ATOM     20  H   UNL     1       0.963   8.818  -0.568  0.00  0.00    +0.000 HD
ENDBRANCH   7  19
BRANCH   9  21
ATOM     21  O   UNL     1      -1.329   7.314   4.344  0.00  0.00    +0.000 OA
ATOM     22  C   UNL     1      -1.710   8.650   4.668  0.00  0.00    +0.000 C 
ENDBRANCH   9  21
BRANCH   1  23
ATOM     23  C   UNL     1       0.304   3.049   2.190  0.00  0.00    +0.000 C 
BRANCH  23  24
ATOM     24  C   UNL     1      -1.106   2.535   1.886  0.00  0.00    +0.000 C 
ATOM     25  O   UNL     1      -1.619   2.502   0.786  0.00  0.00    +0.000 OA
BRANCH  24  27
ATOM     26  C   UNL     1      -3.011   1.509   2.819  0.00  0.00    +0.000 C 
ATOM     27  O   UNL     1      -1.690   2.031   3.022  0.00  0.00    +0.000 OA
ENDBRANCH  24  27
ENDBRANCH  23  24
ENDBRANCH   1  23
TORSDOF 6
