REMARK  Name = 
REMARK  8 active torsions:
REMARK  status: ('A' for Active; 'I' for Inactive)
REMARK    1  A    between atoms: C_1  and  N_2
REMARK    2  A    between atoms: C_4  and  C_5
REMARK    3  A    between atoms: C_6  and  C_7
REMARK    4  A    between atoms: N_9  and  C_10
REMARK    5  A    between atoms: C_10  and  C_11
REMARK    6  A    between atoms: C_11  and  C_12
REMARK    7  A    between atoms: C_12  and  C_13
REMARK    8  A    between atoms: C_13  and  O_14
REMARK                            x       y       z     vdW  Elec       q    Type
REMARK                         _______ _______ _______ _____ _____    ______ ____
ROOT
ATOM      1  C   UNL     1       0.895  -5.170   0.571  0.00  0.00    +0.000 C 
ATOM      2  C   UNL     1       1.541  -4.039   0.880  0.00  0.00    +0.000 C 
ATOM      3  C   UNL     1       1.635  -3.221  -0.341  0.00  0.00    +0.000 C 
ATOM      4  O   UNL     1       2.129  -2.110  -0.444  0.00  0.00    +0.000 OA
ATOM      5  N   UNL     1       1.056  -3.928  -1.334  0.00  0.00    +0.000 N 
ATOM      6  C   UNL     1       0.613  -5.117  -0.880  0.00  0.00    +0.000 C 
ATOM      7  O   UNL     1       0.100  -5.993  -1.559  0.00  0.00    +0.000 OA
ATOM      8  H   UNL     1       0.969  -3.617  -2.264  0.00  0.00    +0.000 HD
ENDROOT
BRANCH   1  12
ATOM      9  C   UNL     1      -1.753  -7.958   3.638  0.00  0.00    +0.000 C 
ATOM     10  N   UNL     1      -0.654  -7.488   2.825  0.00  0.00    +0.000 N 
ATOM     11  C   UNL     1      -0.670  -6.340   2.078  0.00  0.00    +0.000 A 
ATOM     12  C   UNL     1       0.536  -6.250   1.418  0.00  0.00    +0.000 A 
ATOM     13  C   UNL     1       1.325  -7.379   1.793  0.00  0.00    +0.000 A 
ATOM     14  C   UNL     1       2.623  -7.833   1.474  0.00  0.00    +0.000 A 
ATOM     15  C   UNL     1       3.109  -9.012   2.055  0.00  0.00    +0.000 A 
ATOM     16  C   UNL     1       2.326  -9.740   2.945  0.00  0.00    +0.000 A 
ATOM     17  C   UNL     1       1.037  -9.316   3.276  0.00  0.00    +0.000 A 
ATOM     18  C   UNL     1       0.557  -8.134   2.688  0.00  0.00    +0.000 A 
ENDBRANCH   1  12
BRANCH   2  19
ATOM     19  C   UNL     1       2.073  -3.643   2.128  0.00  0.00    +0.000 A 
ATOM     20  C   UNL     1       3.368  -3.888   2.517  0.00  0.00    +0.000 A 
ATOM     21  N   UNL     1       3.533  -3.366   3.776  0.00  0.00    +0.000 N 
ATOM     22  C   UNL     1       2.310  -2.911   4.250  0.00  0.00    +0.000 A 
ATOM     23  C   UNL     1       1.902  -2.423   5.509  0.00  0.00    +0.000 A 
ATOM     24  C   UNL     1       0.659  -1.787   5.608  0.00  0.00    +0.000 A 
ATOM     25  C   UNL     1      -0.222  -1.766   4.533  0.00  0.00    +0.000 A 
ATOM     26  C   UNL     1       0.124  -2.404   3.337  0.00  0.00    +0.000 A 
ATOM     27  C   UNL     1       1.407  -2.960   3.181  0.00  0.00    +0.000 A 
BRANCH  21  28
ATOM     28  C   UNL     1       4.829  -3.308   4.440  0.00  0.00    +0.000 C 
BRANCH  28  29
ATOM     29  C   UNL     1       5.912  -2.474   3.720  0.00  0.00    +0.000 C 
BRANCH  29  30
ATOM     30  C   UNL     1       5.600  -0.990   3.479  0.00  0.00    +0.000 C 
BRANCH  30  31
ATOM     31  C   UNL     1       5.377  -0.191   4.760  0.00  0.00    +0.000 C 
BRANCH  31  32
ATOM     32  O   UNL     1       4.281  -0.674   5.507  0.00  0.00    +0.000 OA
ATOM     33  H   UNL     1       3.471  -0.597   4.980  0.00  0.00    +0.000 HD
ENDBRANCH  31  32
ENDBRANCH  30  31
ENDBRANCH  29  30
ENDBRANCH  28  29
ENDBRANCH  21  28
ENDBRANCH   2  19
TORSDOF 7
