REMARK  Name = 
REMARK  4 active torsions:
REMARK  status: ('A' for Active; 'I' for Inactive)
REMARK    1  A    between atoms: C_1  and  C_2
REMARK    2  A    between atoms: C_10  and  C_11
REMARK    3  A    between atoms: C_14  and  N_15
REMARK    4  A    between atoms: C_20  and  C_22
REMARK                            x       y       z     vdW  Elec       q    Type
REMARK                         _______ _______ _______ _____ _____    ______ ____
ROOT
ATOM      1  C   UNL     1       1.826   1.731   1.381  0.00  0.00    +0.000 C 
ATOM      2  C   UNL     1       0.460   1.249   0.866  0.00  0.00    +0.000 C 
ATOM      3  C   UNL     1      -0.057   2.289  -0.161  0.00  0.00    +0.000 C 
ATOM      4  C   UNL     1      -0.782   3.412   0.547  0.00  0.00    +0.000 A 
ATOM      5  C   UNL     1      -0.205   4.678   0.706  0.00  0.00    +0.000 A 
ATOM      6  C   UNL     1      -0.869   5.590   1.504  0.00  0.00    +0.000 A 
ATOM      7  C   UNL     1      -2.074   5.298   2.105  0.00  0.00    +0.000 A 
ATOM      8  C   UNL     1      -2.690   4.080   1.949  0.00  0.00    +0.000 A 
ATOM      9  C   UNL     1      -2.020   3.128   1.173  0.00  0.00    +0.000 A 
ATOM     10  C   UNL     1      -2.557   1.744   1.084  0.00  0.00    +0.000 C 
ATOM     11  N   UNL     1      -1.859   0.695   1.423  0.00  0.00    +0.000 NA
ATOM     12  N   UNL     1      -0.580   0.918   1.897  0.00  0.00    +0.000 N 
ATOM     13  C   UNL     1      -0.273   0.434   3.179  0.00  0.00    +0.000 C 
ATOM     14  O   UNL     1       0.864   0.536   3.663  0.00  0.00    +0.000 OA
ATOM     15  O   UNL     1      -2.531   6.320   2.877  0.00  0.00    +0.000 OA
ATOM     16  C   UNL     1      -1.419   7.234   2.796  0.00  0.00    +0.000 C 
ATOM     17  O   UNL     1      -0.420   6.833   1.833  0.00  0.00    +0.000 OA
ENDROOT
BRANCH  10  18
ATOM     18  C   UNL     1      -3.965   1.573   0.613  0.00  0.00    +0.000 A 
ATOM     19  C   UNL     1      -4.519   2.456  -0.321  0.00  0.00    +0.000 A 
ATOM     20  C   UNL     1      -5.863   2.340  -0.682  0.00  0.00    +0.000 A 
ATOM     21  C   UNL     1      -6.678   1.374  -0.088  0.00  0.00    +0.000 A 
ATOM     22  C   UNL     1      -6.094   0.430   0.758  0.00  0.00    +0.000 A 
ATOM     23  C   UNL     1      -4.748   0.536   1.124  0.00  0.00    +0.000 A 
BRANCH  21  24
ATOM     24  N   UNL     1      -8.002   1.217  -0.516  0.00  0.00    +0.000 N 
ATOM     25  H   UNL     1      -8.410   1.886  -1.112  0.00  0.00    +0.000 HD
ATOM     26  H   UNL     1      -8.525   0.437  -0.221  0.00  0.00    +0.000 HD
ENDBRANCH  21  24
ENDBRANCH  10  18
BRANCH  13  27
ATOM     27  C   UNL     1      -1.408  -0.165   4.045  0.00  0.00    +0.000 C 
ATOM     28  F   UNL     1      -2.585  -0.474   3.431  0.00  0.00    +0.000 F 
ATOM     29  F   UNL     1      -1.006  -1.332   4.639  0.00  0.00    +0.000 F 
ATOM     30  F   UNL     1      -1.745   0.669   5.077  0.00  0.00    +0.000 F 
ENDBRANCH  13  27
TORSDOF 3
