REMARK  Name = 
REMARK  7 active torsions:
REMARK  status: ('A' for Active; 'I' for Inactive)
REMARK    1  A    between atoms: C_1  and  C_2
REMARK    2  A    between atoms: C_2  and  C_3
REMARK    3  A    between atoms: C_3  and  C_4
REMARK    4  A    between atoms: C_16  and  C_17
REMARK    5  A    between atoms: C_16  and  C_18
REMARK    6  A    between atoms: C_23  and  C_24
REMARK    7  A    between atoms: C_25  and  O_26
REMARK                            x       y       z     vdW  Elec       q    Type
REMARK                         _______ _______ _______ _____ _____    ______ ____
ROOT
ATOM      1  C   UNL     1       0.122  -1.240   1.187  0.00  0.00    +0.000 A 
ATOM      2  C   UNL     1      -0.692  -0.449   0.453  0.00  0.00    +0.000 A 
ATOM      3  C   UNL     1      -1.408   0.711   0.989  0.00  0.00    +0.000 A 
ATOM      4  O   UNL     1      -2.216   1.350   0.331  0.00  0.00    +0.000 OA
ATOM      5  O   UNL     1      -1.032   1.079   2.247  0.00  0.00    +0.000 OA
ATOM      6  C   UNL     1       0.093   0.469   2.805  0.00  0.00    +0.000 A 
ATOM      7  C   UNL     1       0.947   1.304   3.478  0.00  0.00    +0.000 A 
ATOM      8  C   UNL     1       1.784   0.774   4.437  0.00  0.00    +0.000 A 
ATOM      9  C   UNL     1       1.869  -0.626   4.556  0.00  0.00    +0.000 A 
ATOM     10  C   UNL     1       1.293  -1.444   3.551  0.00  0.00    +0.000 A 
ATOM     11  C   UNL     1       0.441  -0.853   2.588  0.00  0.00    +0.000 A 
ATOM     12  O   UNL     1       1.507  -2.808   3.532  0.00  0.00    +0.000 OA
ATOM     13  C   UNL     1       2.490  -3.374   4.446  0.00  0.00    +0.000 C 
ATOM     14  C   UNL     1       1.943  -4.707   4.982  0.00  0.00    +0.000 C 
ATOM     15  C   UNL     1       3.770  -3.643   3.646  0.00  0.00    +0.000 C 
ATOM     16  C   UNL     1       2.850  -2.516   5.633  0.00  0.00    +0.000 C 
ATOM     17  C   UNL     1       2.582  -1.213   5.679  0.00  0.00    +0.000 C 
ATOM     18  O   UNL     1       2.470   1.590   5.296  0.00  0.00    +0.000 OA
ATOM     19  C   UNL     1       2.613   2.969   4.901  0.00  0.00    +0.000 C 
ATOM     20  C   UNL     1       1.416   3.590   4.173  0.00  0.00    +0.000 C 
ATOM     21  C   UNL     1       0.168   3.733   5.048  0.00  0.00    +0.000 C 
ATOM     22  C   UNL     1       1.090   2.709   2.998  0.00  0.00    +0.000 C 
ENDROOT
BRANCH  22  23
ATOM     23  O   UNL     1       2.151   2.742   2.032  0.00  0.00    +0.000 OA
ATOM     24  H   UNL     1       2.971   2.424   2.442  0.00  0.00    +0.000 HD
ENDBRANCH  22  23
BRANCH   1  25
ATOM     25  C   UNL     1       0.958  -2.235   0.440  0.00  0.00    +0.000 C 
BRANCH  25  27
ATOM     26  C   UNL     1       1.035  -4.492  -0.644  0.00  0.00    +0.000 C 
ATOM     27  C   UNL     1       0.286  -3.595   0.332  0.00  0.00    +0.000 C 
ENDBRANCH  25  27
ENDBRANCH   1  25
TORSDOF 3
