REMARK  Name = 
REMARK  9 active torsions:
REMARK  status: ('A' for Active; 'I' for Inactive)
REMARK    1  A    between atoms: C_1  and  O_2
REMARK    2  A    between atoms: O_2  and  C_3
REMARK    3  A    between atoms: C_4  and  C_5
REMARK    4  A    between atoms: C_7  and  C_8
REMARK    5  A    between atoms: C_19  and  N_20
REMARK    6  A    between atoms: N_20  and  C_21
REMARK    7  A    between atoms: C_21  and  C_22
REMARK    8  A    between atoms: C_21  and  C_23
REMARK    9  A    between atoms: C_27  and  C_28
REMARK                            x       y       z     vdW  Elec       q    Type
REMARK                         _______ _______ _______ _____ _____    ______ ____
ROOT
ATOM      1  C   UNL     1       1.717   1.720   6.091  0.00  0.00    +0.000 C 
ATOM      2  O   UNL     1       1.835   0.718   5.381  0.00  0.00    +0.000 OA
ATOM      3  N   UNL     1       0.574   1.985   6.836  0.00  0.00    +0.000 N 
ATOM      4  C   UNL     1      -0.570   1.058   6.741  0.00  0.00    +0.000 C 
ATOM      5  C   UNL     1      -1.928   1.782   6.948  0.00  0.00    +0.000 C 
ATOM      6  N   UNL     1      -1.852   2.539   8.215  0.00  0.00    +0.000 N 
ATOM      7  C   UNL     1      -2.971   2.874   8.972  0.00  0.00    +0.000 A 
ATOM      8  N   UNL     1      -3.006   4.148   9.450  0.00  0.00    +0.000 NA
ATOM      9  C   UNL     1      -3.987   4.518  10.293  0.00  0.00    +0.000 A 
ATOM     10  C   UNL     1      -5.015   3.689  10.664  0.00  0.00    +0.000 A 
ATOM     11  C   UNL     1      -5.008   2.393  10.170  0.00  0.00    +0.000 A 
ATOM     12  C   UNL     1      -3.941   1.918   9.389  0.00  0.00    +0.000 A 
ATOM     13  C   UNL     1      -0.797   3.574   8.147  0.00  0.00    +0.000 C 
ATOM     14  C   UNL     1       0.546   2.846   8.033  0.00  0.00    +0.000 C 
ENDROOT
BRANCH   1  19
ATOM     15  C   UNL     1       4.984   4.503   6.310  0.00  0.00    +0.000 A 
ATOM     16  C   UNL     1       3.666   4.986   6.180  0.00  0.00    +0.000 A 
ATOM     17  C   UNL     1       3.224   6.423   6.210  0.00  0.00    +0.000 C 
ATOM     18  C   UNL     1       2.615   4.050   6.060  0.00  0.00    +0.000 A 
ATOM     19  C   UNL     1       2.845   2.681   6.124  0.00  0.00    +0.000 A 
ATOM     20  C   UNL     1       4.144   2.203   6.178  0.00  0.00    +0.000 A 
ATOM     21  C   UNL     1       5.223   3.106   6.272  0.00  0.00    +0.000 A 
ATOM     22  C   UNL     1       6.600   2.499   6.375  0.00  0.00    +0.000 C 
BRANCH  15  24
ATOM     23  C   UNL     1       6.087   6.543   6.988  0.00  0.00    +0.000 C 
ATOM     24  O   UNL     1       6.128   5.250   6.416  0.00  0.00    +0.000 OA
ENDBRANCH  15  24
ENDBRANCH   1  19
BRANCH  12  25
ATOM     25  N   UNL     1      -3.884   0.554   9.002  0.00  0.00    +0.000 N 
ATOM     26  H   UNL     1      -3.516   0.297   8.126  0.00  0.00    +0.000 HD
BRANCH  25  27
ATOM     27  C   UNL     1      -4.383  -0.471   9.931  0.00  0.00    +0.000 C 
ATOM     28  C   UNL     1      -4.864  -1.680   9.131  0.00  0.00    +0.000 C 
ATOM     29  C   UNL     1      -3.275  -0.862  10.908  0.00  0.00    +0.000 C 
ENDBRANCH  25  27
ENDBRANCH  12  25
TORSDOF 4
