REMARK  Name = 
REMARK  8 active torsions:
REMARK  status: ('A' for Active; 'I' for Inactive)
REMARK    1  A    between atoms: C_1  and  C_2
REMARK    2  A    between atoms: C_5  and  N_6
REMARK    3  A    between atoms: N_6  and  S_7
REMARK    4  A    between atoms: S_7  and  C_10
REMARK    5  A    between atoms: C_15  and  N_16
REMARK    6  A    between atoms: N_16  and  C_17
REMARK    7  A    between atoms: N_16  and  C_18
REMARK    8  A    between atoms: C_23  and  C_24
REMARK                            x       y       z     vdW  Elec       q    Type
REMARK                         _______ _______ _______ _____ _____    ______ ____
ROOT
ATOM      1  C   UNL     1      -2.205   2.896  -0.403  0.00  0.00    +0.000 A 
ATOM      2  C   UNL     1      -3.302   3.662   0.009  0.00  0.00    +0.000 A 
ATOM      3  C   UNL     1      -4.539   3.064   0.149  0.00  0.00    +0.000 A 
ATOM      4  C   UNL     1      -4.660   1.687  -0.031  0.00  0.00    +0.000 A 
ATOM      5  C   UNL     1      -3.600   0.870  -0.493  0.00  0.00    +0.000 A 
ATOM      6  C   UNL     1      -3.703  -0.559  -0.639  0.00  0.00    +0.000 A 
ATOM      7  C   UNL     1      -2.650  -1.222  -1.301  0.00  0.00    +0.000 A 
ATOM      8  C   UNL     1      -1.523  -0.549  -1.758  0.00  0.00    +0.000 A 
ATOM      9  C   UNL     1      -1.375   0.800  -1.482  0.00  0.00    +0.000 A 
ATOM     10  C   UNL     1      -2.366   1.531  -0.795  0.00  0.00    +0.000 A 
ENDROOT
BRANCH   1  11
ATOM     11  S   UNL     1      -0.601   3.710  -0.328  0.00  0.00    +0.000 S 
ATOM     12  O   UNL     1      -0.760   4.933   0.430  0.00  0.00    +0.000 OA
ATOM     13  O   UNL     1      -0.096   3.744  -1.679  0.00  0.00    +0.000 OA
BRANCH  11  14
ATOM     14  N   UNL     1       0.465   2.716   0.560  0.00  0.00    +0.000 N 
ATOM     15  H   UNL     1       1.383   2.527   0.258  0.00  0.00    +0.000 HD
BRANCH  14  20
ATOM     16  C   UNL     1      -1.080   1.881   5.261  0.00  0.00    +0.000 C 
ATOM     17  C   UNL     1      -0.683   1.784   3.836  0.00  0.00    +0.000 A 
ATOM     18  N   UNL     1      -1.047   0.707   3.131  0.00  0.00    +0.000 NA
ATOM     19  O   UNL     1      -0.620   0.943   1.842  0.00  0.00    +0.000 OA
ATOM     20  C   UNL     1      -0.064   2.180   1.763  0.00  0.00    +0.000 A 
ATOM     21  C   UNL     1       0.049   2.707   3.034  0.00  0.00    +0.000 A 
ATOM     22  C   UNL     1       0.793   3.907   3.486  0.00  0.00    +0.000 C 
ENDBRANCH  14  20
ENDBRANCH  11  14
ENDBRANCH   1  11
BRANCH   6  23
ATOM     23  N   UNL     1      -4.741  -1.322  -0.059  0.00  0.00    +0.000 N 
ATOM     24  C   UNL     1      -4.417  -2.676   0.398  0.00  0.00    +0.000 C 
ATOM     25  C   UNL     1      -6.118  -1.144  -0.518  0.00  0.00    +0.000 C 
ENDBRANCH   6  23
TORSDOF 4
