REMARK  Name = 
REMARK  9 active torsions:
REMARK  status: ('A' for Active; 'I' for Inactive)
REMARK    1  A    between atoms: C_1  and  C_2
REMARK    2  A    between atoms: C_2  and  C_3
REMARK    3  A    between atoms: C_3  and  C_4
REMARK    4  A    between atoms: C_16  and  C_17
REMARK    5  A    between atoms: C_16  and  C_18
REMARK    6  A    between atoms: C_22  and  C_23
REMARK    7  A    between atoms: C_22  and  C_24
REMARK    8  A    between atoms: C_25  and  C_26
REMARK    9  A    between atoms: C_27  and  O_28
REMARK                            x       y       z     vdW  Elec       q    Type
REMARK                         _______ _______ _______ _____ _____    ______ ____
ROOT
ATOM      1  C   UNL     1       0.283   1.413  -1.064  0.00  0.00    +0.000 A 
ATOM      2  C   UNL     1      -0.001   0.522  -0.083  0.00  0.00    +0.000 A 
ATOM      3  C   UNL     1      -1.213  -0.279  -0.280  0.00  0.00    +0.000 A 
ATOM      4  O   UNL     1      -1.958  -0.586   0.635  0.00  0.00    +0.000 OA
ATOM      5  O   UNL     1      -1.396  -0.691  -1.570  0.00  0.00    +0.000 OA
ATOM      6  C   UNL     1      -0.367  -0.364  -2.467  0.00  0.00    +0.000 A 
ATOM      7  C   UNL     1       0.136  -1.384  -3.229  0.00  0.00    +0.000 A 
ATOM      8  C   UNL     1       0.783  -1.054  -4.403  0.00  0.00    +0.000 A 
ATOM      9  C   UNL     1       1.041   0.300  -4.682  0.00  0.00    +0.000 A 
ATOM     10  C   UNL     1       0.884   1.275  -3.664  0.00  0.00    +0.000 A 
ATOM     11  C   UNL     1       0.235   0.890  -2.457  0.00  0.00    +0.000 A 
ATOM     12  O   UNL     1       1.318   2.572  -3.831  0.00  0.00    +0.000 OA
ATOM     13  C   UNL     1       2.060   2.927  -5.042  0.00  0.00    +0.000 C 
ATOM     14  C   UNL     1       1.531   4.271  -5.567  0.00  0.00    +0.000 C 
ATOM     15  C   UNL     1       3.539   3.086  -4.668  0.00  0.00    +0.000 C 
ATOM     16  C   UNL     1       1.978   1.936  -6.161  0.00  0.00    +0.000 C 
ATOM     17  C   UNL     1       1.525   0.690  -6.003  0.00  0.00    +0.000 C 
ATOM     18  O   UNL     1       1.168  -2.028  -5.299  0.00  0.00    +0.000 OA
ATOM     19  C   UNL     1       1.325  -3.371  -4.794  0.00  0.00    +0.000 C 
ATOM     20  C   UNL     1       2.762  -3.492  -4.231  0.00  0.00    +0.000 C 
ATOM     21  C   UNL     1       1.217  -4.310  -6.001  0.00  0.00    +0.000 C 
ATOM     22  C   UNL     1       0.258  -3.780  -3.740  0.00  0.00    +0.000 C 
ATOM     23  C   UNL     1      -1.180  -3.897  -4.264  0.00  0.00    +0.000 C 
ATOM     24  C   UNL     1       0.301  -2.755  -2.625  0.00  0.00    +0.000 C 
ENDROOT
BRANCH  24  25
ATOM     25  O   UNL     1      -0.597  -3.127  -1.588  0.00  0.00    +0.000 OA
ATOM     26  H   UNL     1      -1.497  -3.187  -1.946  0.00  0.00    +0.000 HD
ENDBRANCH  24  25
BRANCH   1  27
ATOM     27  C   UNL     1       1.021   2.622  -0.584  0.00  0.00    +0.000 C 
BRANCH  27  29
ATOM     28  C   UNL     1       0.588   4.815   0.601  0.00  0.00    +0.000 C 
ATOM     29  C   UNL     1       0.002   3.725  -0.285  0.00  0.00    +0.000 C 
ENDBRANCH  27  29
ENDBRANCH   1  27
TORSDOF 3
