REMARK  Name = 
REMARK  4 active torsions:
REMARK  status: ('A' for Active; 'I' for Inactive)
REMARK    1  A    between atoms: C_2  and  C_4
REMARK    2  A    between atoms: C_7  and  C_8
REMARK    3  A    between atoms: C_10  and  C_11
REMARK    4  A    between atoms: C_17  and  C_18
REMARK                            x       y       z     vdW  Elec       q    Type
REMARK                         _______ _______ _______ _____ _____    ______ ____
ROOT
ATOM      1  C   UNL     1       3.187   5.757   2.652  0.00  0.00    +0.000 A 
ATOM      2  N   UNL     1       3.392   6.894   2.016  0.00  0.00    +0.000 NA
ATOM      3  C   UNL     1       4.120   7.699   2.881  0.00  0.00    +0.000 A 
ATOM      4  C   UNL     1       4.454   6.998   4.036  0.00  0.00    +0.000 A 
ATOM      5  N   UNL     1       3.831   5.782   3.863  0.00  0.00    +0.000 N 
ATOM      6  H   UNL     1       3.847   5.041   4.511  0.00  0.00    +0.000 HD
ENDROOT
BRANCH   4   7
ATOM      7  C   UNL     1       5.236   7.312   5.236  0.00  0.00    +0.000 A 
ATOM      8  C   UNL     1       6.392   8.124   5.159  0.00  0.00    +0.000 A 
ATOM      9  C   UNL     1       7.079   8.534   6.306  0.00  0.00    +0.000 A 
ATOM     10  C   UNL     1       6.604   8.096   7.519  0.00  0.00    +0.000 A 
ATOM     11  C   UNL     1       5.519   7.256   7.607  0.00  0.00    +0.000 A 
ATOM     12  C   UNL     1       4.824   6.838   6.492  0.00  0.00    +0.000 A 
ATOM     13  O   UNL     1       5.210   6.944   8.895  0.00  0.00    +0.000 OA
ATOM     14  C   UNL     1       6.108   7.828   9.598  0.00  0.00    +0.000 C 
ATOM     15  O   UNL     1       7.098   8.432   8.740  0.00  0.00    +0.000 OA
ENDBRANCH   4   7
BRANCH   1  19
ATOM     16  C   UNL     1       1.073   2.344   1.171  0.00  0.00    +0.000 A 
ATOM     17  C   UNL     1       1.684   3.238   0.288  0.00  0.00    +0.000 A 
ATOM     18  C   UNL     1       2.357   4.359   0.785  0.00  0.00    +0.000 A 
ATOM     19  C   UNL     1       2.439   4.599   2.162  0.00  0.00    +0.000 A 
ATOM     20  C   UNL     1       1.794   3.711   3.039  0.00  0.00    +0.000 A 
ATOM     21  C   UNL     1       1.112   2.596   2.546  0.00  0.00    +0.000 A 
BRANCH  16  23
ATOM     22  N   UNL     1       0.755   0.588  -0.493  0.00  0.00    +0.000 N 
ATOM     23  C   UNL     1       0.357   1.129   0.699  0.00  0.00    +0.000 C 
ATOM     24  O   UNL     1      -0.525   0.600   1.365  0.00  0.00    +0.000 OA
ATOM     25  H   UNL     1       0.308  -0.216  -0.842  0.00  0.00    +0.000 HD
ATOM     26  H   UNL     1       1.489   1.004  -1.000  0.00  0.00    +0.000 HD
ENDBRANCH  16  23
ENDBRANCH   1  19
BRANCH   3  27
ATOM     27  C   UNL     1       4.467   9.083   2.554  0.00  0.00    +0.000 A 
ATOM     28  C   UNL     1       4.643   9.467   1.229  0.00  0.00    +0.000 A 
ATOM     29  C   UNL     1       5.041  10.775   0.954  0.00  0.00    +0.000 A 
ATOM     30  C   UNL     1       5.241  11.663   2.004  0.00  0.00    +0.000 A 
ATOM     31  C   UNL     1       5.016  11.209   3.291  0.00  0.00    +0.000 A 
ATOM     32  N   UNL     1       4.628   9.950   3.585  0.00  0.00    +0.000 NA
ENDBRANCH   3  27
TORSDOF 4
