REMARK  Name = 
REMARK  13 active torsions:
REMARK  status: ('A' for Active; 'I' for Inactive)
REMARK    1  A    between atoms: C_1  and  C_2
REMARK    2  A    between atoms: C_2  and  C_3
REMARK    3  A    between atoms: C_3  and  C_4
REMARK    4  A    between atoms: C_10  and  C_11
REMARK    5  A    between atoms: C_11  and  C_13
REMARK    6  A    between atoms: C_13  and  C_14
REMARK    7  A    between atoms: C_13  and  C_15
REMARK    8  A    between atoms: C_13  and  C_16
REMARK    9  A    between atoms: C_16  and  C_17
REMARK   10  A    between atoms: C_16  and  O_18
REMARK   11  A    between atoms: C_19  and  O_20
REMARK   12  A    between atoms: C_25  and  C_26
REMARK   13  A    between atoms: C_25  and  C_27
REMARK                            x       y       z     vdW  Elec       q    Type
REMARK                         _______ _______ _______ _____ _____    ______ ____
ROOT
ATOM      1  C   UNL     1       0.353  -1.011  -1.779  0.00  0.00    +0.000 A 
ATOM      2  C   UNL     1      -0.310  -0.302  -0.843  0.00  0.00    +0.000 A 
ATOM      3  C   UNL     1      -1.371  -0.891  -0.034  0.00  0.00    +0.000 A 
ATOM      4  O   UNL     1      -2.432  -0.328   0.191  0.00  0.00    +0.000 OA
ATOM      5  O   UNL     1      -1.038  -2.126   0.455  0.00  0.00    +0.000 OA
ATOM      6  C   UNL     1       0.124  -2.732  -0.079  0.00  0.00    +0.000 A 
ATOM      7  C   UNL     1       0.810  -3.591   0.788  0.00  0.00    +0.000 A 
ATOM      8  C   UNL     1       1.709  -4.468   0.196  0.00  0.00    +0.000 A 
ATOM      9  C   UNL     1       1.901  -4.467  -1.211  0.00  0.00    +0.000 A 
ATOM     10  C   UNL     1       1.383  -3.422  -2.007  0.00  0.00    +0.000 A 
ATOM     11  C   UNL     1       0.536  -2.452  -1.403  0.00  0.00    +0.000 A 
ATOM     12  O   UNL     1       1.676  -3.324  -3.347  0.00  0.00    +0.000 OA
ATOM     13  C   UNL     1       2.146  -4.528  -4.024  0.00  0.00    +0.000 C 
ATOM     14  C   UNL     1       0.965  -5.189  -4.745  0.00  0.00    +0.000 C 
ATOM     15  C   UNL     1       3.201  -4.101  -5.057  0.00  0.00    +0.000 C 
ATOM     16  C   UNL     1       2.816  -5.552  -3.151  0.00  0.00    +0.000 C 
ATOM     17  C   UNL     1       2.750  -5.496  -1.817  0.00  0.00    +0.000 C 
ENDROOT
BRANCH   7  18
ATOM     18  C   UNL     1       0.755  -3.158   2.244  0.00  0.00    +0.000 C 
ATOM     19  O   UNL     1       0.793  -1.931   2.409  0.00  0.00    +0.000 OA
BRANCH  18  20
ATOM     20  C   UNL     1       0.744  -4.084   3.486  0.00  0.00    +0.000 C 
ATOM     21  C   UNL     1       0.037  -5.426   3.198  0.00  0.00    +0.000 C 
ATOM     22  C   UNL     1       2.194  -4.283   3.985  0.00  0.00    +0.000 C 
BRANCH  20  23
ATOM     23  C   UNL     1      -0.032  -3.398   4.684  0.00  0.00    +0.000 C 
ATOM     24  C   UNL     1       0.556  -2.116   5.293  0.00  0.00    +0.000 C 
BRANCH  23  25
ATOM     25  O   UNL     1      -1.397  -3.167   4.336  0.00  0.00    +0.000 OA
ATOM     26  H   UNL     1      -1.443  -2.505   3.629  0.00  0.00    +0.000 HD
ENDBRANCH  23  25
ENDBRANCH  20  23
ENDBRANCH  18  20
ENDBRANCH   7  18
BRANCH   8  27
ATOM     27  O   UNL     1       2.465  -5.363   0.906  0.00  0.00    +0.000 OA
ATOM     28  H   UNL     1       2.383  -5.410   1.838  0.00  0.00    +0.000 HD
ENDBRANCH   8  27
BRANCH   1  29
ATOM     29  C   UNL     1       1.263  -0.228  -2.706  0.00  0.00    +0.000 C 
BRANCH  29  31
ATOM     30  C   UNL     1       1.294   1.306  -4.755  0.00  0.00    +0.000 C 
ATOM     31  C   UNL     1       0.550   0.200  -4.005  0.00  0.00    +0.000 C 
ENDBRANCH  29  31
ENDBRANCH   1  29
TORSDOF 7
