REMARK  Name = 
REMARK  4 active torsions:
REMARK  status: ('A' for Active; 'I' for Inactive)
REMARK    1  A    between atoms: C_1  and  C_2
REMARK    2  A    between atoms: C_2  and  N_3
REMARK    3  A    between atoms: N_3  and  C_4
REMARK    4  A    between atoms: C_14  and  C_16
REMARK                            x       y       z     vdW  Elec       q    Type
REMARK                         _______ _______ _______ _____ _____    ______ ____
ROOT
ATOM      1  C   UNL     1       0.489  -4.882   1.627  0.00  0.00    +0.000 A 
ATOM      2  C   UNL     1      -0.675  -5.411   1.068  0.00  0.00    +0.000 A 
ATOM      3  C   UNL     1      -1.891  -4.775   1.268  0.00  0.00    +0.000 A 
ATOM      4  C   UNL     1      -1.914  -3.630   2.042  0.00  0.00    +0.000 A 
ATOM      5  N   UNL     1      -0.827  -3.111   2.643  0.00  0.00    +0.000 NA
ATOM      6  C   UNL     1       0.366  -3.726   2.446  0.00  0.00    +0.000 A 
ATOM      7  N   UNL     1       1.494  -3.120   2.972  0.00  0.00    +0.000 N 
ATOM      8  C   UNL     1       1.411  -1.698   3.291  0.00  0.00    +0.000 C 
ATOM      9  C   UNL     1       2.802  -1.100   3.027  0.00  0.00    +0.000 C 
ATOM     10  N   UNL     1       3.901  -1.848   3.686  0.00  0.00    +0.000 N 
ATOM     11  C   UNL     1       5.077  -1.327   4.225  0.00  0.00    +0.000 C 
ATOM     12  O   UNL     1       5.922  -2.048   4.749  0.00  0.00    +0.000 OA
ATOM     13  C   UNL     1       3.816  -3.317   3.577  0.00  0.00    +0.000 C 
ATOM     14  C   UNL     1       2.398  -3.839   3.874  0.00  0.00    +0.000 C 
ENDROOT
BRANCH  11  15
ATOM     15  C   UNL     1       5.342   0.128   4.238  0.00  0.00    +0.000 A 
ATOM     16  C   UNL     1       6.052   0.633   5.316  0.00  0.00    +0.000 A 
ATOM     17  N   UNL     1       6.412   1.931   5.452  0.00  0.00    +0.000 NA
ATOM     18  C   UNL     1       5.890   2.814   4.582  0.00  0.00    +0.000 A 
ATOM     19  C   UNL     1       6.101   4.167   4.774  0.00  0.00    +0.000 A 
ATOM     20  C   UNL     1       5.250   5.108   4.196  0.00  0.00    +0.000 A 
ATOM     21  C   UNL     1       4.364   4.714   3.201  0.00  0.00    +0.000 A 
ATOM     22  C   UNL     1       4.360   3.387   2.777  0.00  0.00    +0.000 A 
ATOM     23  C   UNL     1       5.071   2.416   3.515  0.00  0.00    +0.000 A 
ATOM     24  C   UNL     1       4.931   1.046   3.267  0.00  0.00    +0.000 A 
ENDBRANCH  11  15
BRANCH   1  25
ATOM     25  N   UNL     1       1.755  -5.385   1.239  0.00  0.00    +0.000 N 
ATOM     26  H   UNL     1       2.473  -4.786   0.931  0.00  0.00    +0.000 HD
BRANCH  25  28
ATOM     27  C   UNL     1       3.442  -7.137   1.340  0.00  0.00    +0.000 C 
ATOM     28  C   UNL     1       1.952  -6.824   1.316  0.00  0.00    +0.000 C 
ENDBRANCH  25  28
ENDBRANCH   1  25
TORSDOF 3
