REMARK  Name = 
REMARK  5 active torsions:
REMARK  status: ('A' for Active; 'I' for Inactive)
REMARK    1  A    between atoms: C_1  and  N_2
REMARK    2  A    between atoms: C_5  and  C_6
REMARK    3  A    between atoms: C_7  and  O_8
REMARK    4  A    between atoms: C_10  and  O_11
REMARK    5  A    between atoms: C_16  and  C_17
REMARK                            x       y       z     vdW  Elec       q    Type
REMARK                         _______ _______ _______ _____ _____    ______ ____
ROOT
ATOM      1  C   UNL     1       1.877   5.086  -1.542  0.00  0.00    +0.000 A 
ATOM      2  C   UNL     1       1.787   5.739  -2.781  0.00  0.00    +0.000 A 
ATOM      3  C   UNL     1       2.243   7.047  -2.941  0.00  0.00    +0.000 A 
ATOM      4  C   UNL     1       2.792   7.722  -1.848  0.00  0.00    +0.000 A 
ATOM      5  C   UNL     1       2.882   7.098  -0.597  0.00  0.00    +0.000 A 
ATOM      6  C   UNL     1       3.438   7.783   0.592  0.00  0.00    +0.000 A 
ATOM      7  O   UNL     1       3.921   8.907   0.590  0.00  0.00    +0.000 OA
ATOM      8  C   UNL     1       3.394   7.042   1.860  0.00  0.00    +0.000 A 
ATOM      9  C   UNL     1       2.947   5.780   1.880  0.00  0.00    +0.000 A 
ATOM     10  O   UNL     1       2.484   5.115   0.760  0.00  0.00    +0.000 OA
ATOM     11  C   UNL     1       2.426   5.784  -0.445  0.00  0.00    +0.000 A 
ENDROOT
BRANCH   1  16
ATOM     12  C   UNL     1       0.495   0.151   0.399  0.00  0.00    +0.000 C 
ATOM     13  N   UNL     1       0.512   1.010  -0.766  0.00  0.00    +0.000 N 
ATOM     14  C   UNL     1      -0.438   2.104  -0.788  0.00  0.00    +0.000 C 
ATOM     15  C   UNL     1       0.118   3.468  -1.026  0.00  0.00    +0.000 C 
ATOM     16  C   UNL     1       1.388   3.702  -1.374  0.00  0.00    +0.000 C 
ATOM     17  C   UNL     1       2.374   2.593  -1.582  0.00  0.00    +0.000 C 
ATOM     18  C   UNL     1       1.807   1.169  -1.413  0.00  0.00    +0.000 C 
ATOM     19  H   UNL     1       0.052   0.447  -1.481  0.00  0.00    +0.000 HD
ENDBRANCH   1  16
BRANCH   9  20
ATOM     20  C   UNL     1       2.902   4.992   3.132  0.00  0.00    +0.000 A 
ATOM     21  C   UNL     1       1.922   4.001   3.317  0.00  0.00    +0.000 A 
ATOM     22  C   UNL     1       1.871   3.255   4.499  0.00  0.00    +0.000 A 
ATOM     23  C   UNL     1       2.804   3.481   5.507  0.00  0.00    +0.000 A 
ATOM     24 CL   UNL     1       2.742   2.564   6.960  0.00  0.00    +0.000 Cl
ATOM     25  C   UNL     1       3.790   4.445   5.341  0.00  0.00    +0.000 A 
ATOM     26  C   UNL     1       3.843   5.190   4.159  0.00  0.00    +0.000 A 
ENDBRANCH   9  20
BRANCH   2  27
ATOM     27  O   UNL     1       1.241   5.080  -3.855  0.00  0.00    +0.000 OA
ATOM     28  H   UNL     1       0.931   4.201  -3.758  0.00  0.00    +0.000 HD
ENDBRANCH   2  27
BRANCH   4  29
ATOM     29  O   UNL     1       3.226   9.004  -2.022  0.00  0.00    +0.000 OA
ATOM     30  H   UNL     1       3.160   9.411  -2.864  0.00  0.00    +0.000 HD
ENDBRANCH   4  29
TORSDOF 4
