REMARK  Name = 
REMARK  8 active torsions:
REMARK  status: ('A' for Active; 'I' for Inactive)
REMARK    1  A    between atoms: C_1  and  C_2
REMARK    2  A    between atoms: C_2  and  C_3
REMARK    3  A    between atoms: C_3  and  C_4
REMARK    4  A    between atoms: C_16  and  C_17
REMARK    5  A    between atoms: C_16  and  C_18
REMARK    6  A    between atoms: C_22  and  C_23
REMARK    7  A    between atoms: C_22  and  C_24
REMARK    8  A    between atoms: C_26  and  O_27
REMARK                            x       y       z     vdW  Elec       q    Type
REMARK                         _______ _______ _______ _____ _____    ______ ____
ROOT
ATOM      1  C   UNL     1       0.668   1.228   0.941  0.00  0.00    +0.000 A 
ATOM      2  C   UNL     1       0.824   0.171   0.102  0.00  0.00    +0.000 A 
ATOM      3  C   UNL     1      -0.465  -0.006  -0.645  0.00  0.00    +0.000 A 
ATOM      4  O   UNL     1      -0.981  -1.099  -0.821  0.00  0.00    +0.000 OA
ATOM      5  O   UNL     1      -0.970   1.168  -1.161  0.00  0.00    +0.000 OA
ATOM      6  C   UNL     1      -0.174   2.313  -0.967  0.00  0.00    +0.000 A 
ATOM      7  C   UNL     1       0.219   3.012  -2.089  0.00  0.00    +0.000 A 
ATOM      8  C   UNL     1       0.870   4.225  -1.896  0.00  0.00    +0.000 A 
ATOM      9  C   UNL     1       1.125   4.685  -0.580  0.00  0.00    +0.000 A 
ATOM     10  C   UNL     1       0.986   3.807   0.515  0.00  0.00    +0.000 A 
ATOM     11  C   UNL     1       0.436   2.536   0.274  0.00  0.00    +0.000 A 
ATOM     12  O   UNL     1       1.381   4.149   1.786  0.00  0.00    +0.000 OA
ATOM     13  C   UNL     1       2.108   5.390   1.999  0.00  0.00    +0.000 C 
ATOM     14  C   UNL     1       1.538   6.088   3.246  0.00  0.00    +0.000 C 
ATOM     15  C   UNL     1       3.571   5.017   2.269  0.00  0.00    +0.000 C 
ATOM     16  C   UNL     1       2.051   6.380   0.858  0.00  0.00    +0.000 C 
ATOM     17  C   UNL     1       1.620   6.042  -0.362  0.00  0.00    +0.000 C 
ATOM     18  O   UNL     1       1.325   4.971  -2.960  0.00  0.00    +0.000 OA
ATOM     19  C   UNL     1       1.598   4.267  -4.191  0.00  0.00    +0.000 C 
ATOM     20  C   UNL     1       3.017   3.672  -4.133  0.00  0.00    +0.000 C 
ATOM     21  C   UNL     1       1.539   5.312  -5.308  0.00  0.00    +0.000 C 
ATOM     22  C   UNL     1       0.541   3.218  -4.530  0.00  0.00    +0.000 C 
ATOM     23  C   UNL     1       0.315   2.269  -3.399  0.00  0.00    +0.000 C 
ENDROOT
BRANCH  23  24
ATOM     24  O   UNL     1      -0.783   1.446  -3.735  0.00  0.00    +0.000 OA
ATOM     25  H   UNL     1      -1.567   1.997  -3.885  0.00  0.00    +0.000 HD
ENDBRANCH  23  24
BRANCH   1  26
ATOM     26  C   UNL     1       0.861   0.961   2.393  0.00  0.00    +0.000 C 
BRANCH  26  28
ATOM     27  C   UNL     1      -1.595   0.206   2.623  0.00  0.00    +0.000 C 
ATOM     28  C   UNL     1      -0.430   0.998   3.212  0.00  0.00    +0.000 C 
ENDBRANCH  26  28
ENDBRANCH   1  26
TORSDOF 3
