REMARK  Name = 
REMARK  2 active torsions:
REMARK  status: ('A' for Active; 'I' for Inactive)
REMARK    1  A    between atoms: N_5  and  C_6
REMARK    2  A    between atoms: C_9  and  C_10
REMARK                            x       y       z     vdW  Elec       q    Type
REMARK                         _______ _______ _______ _____ _____    ______ ____
ROOT
ATOM      1  C   UNL     1      10.794   0.107  -0.223  0.00  0.00    +0.000 A 
ATOM      2  C   UNL     1      11.060   1.165  -1.118  0.00  0.00    +0.000 A 
ATOM      3  C   UNL     1      12.125   2.004  -0.916  0.00  0.00    +0.000 A 
ATOM      4  C   UNL     1      13.029   1.644   0.045  0.00  0.00    +0.000 A 
ATOM      5  O   UNL     1      13.989   2.530   0.413  0.00  0.00    +0.000 OA
ATOM      6  C   UNL     1      15.170   2.166  -0.158  0.00  0.00    +0.000 A 
ATOM      7  C   UNL     1      15.806   3.182  -0.860  0.00  0.00    +0.000 A 
ATOM      8  C   UNL     1      16.806   2.831  -1.741  0.00  0.00    +0.000 A 
ATOM      9  C   UNL     1      17.196   1.486  -1.829  0.00  0.00    +0.000 A 
ATOM     10 CL   UNL     1      18.382   1.082  -3.011  0.00  0.00    +0.000 Cl
ATOM     11  C   UNL     1      16.589   0.470  -1.052  0.00  0.00    +0.000 A 
ATOM     12  C   UNL     1      15.528   0.809  -0.213  0.00  0.00    +0.000 A 
ATOM     13  C   UNL     1      14.538  -0.176   0.426  0.00  0.00    +0.000 A 
ATOM     14  O   UNL     1      14.847  -1.307   0.738  0.00  0.00    +0.000 OA
ATOM     15  C   UNL     1      13.107   0.325   0.448  0.00  0.00    +0.000 A 
ATOM     16  C   UNL     1      11.919  -0.425   0.455  0.00  0.00    +0.000 A 
ENDROOT
BRANCH   1  20
ATOM     17  C   UNL     1       6.548  -0.915  -0.043  0.00  0.00    +0.000 A 
ATOM     18  C   UNL     1       7.512  -1.754   0.540  0.00  0.00    +0.000 A 
ATOM     19  C   UNL     1       8.896  -1.454   0.513  0.00  0.00    +0.000 A 
ATOM     20  C   UNL     1       9.362  -0.289  -0.090  0.00  0.00    +0.000 A 
ATOM     21  C   UNL     1       8.357   0.599  -0.558  0.00  0.00    +0.000 A 
ATOM     22  C   UNL     1       7.000   0.284  -0.582  0.00  0.00    +0.000 A 
BRANCH  17  27
ATOM     23  O   UNL     1       1.347  -2.140  -0.860  0.00  0.00    +0.000 OA
ATOM     24  C   UNL     1       2.511  -1.903  -0.594  0.00  0.00    +0.000 A 
ATOM     25  C   UNL     1       3.252  -0.876  -1.376  0.00  0.00    +0.000 A 
ATOM     26  N   UNL     1       4.496  -0.589  -1.158  0.00  0.00    +0.000 NA
ATOM     27  N   UNL     1       5.156  -1.247  -0.133  0.00  0.00    +0.000 N 
ATOM     28  C   UNL     1       4.528  -2.178   0.705  0.00  0.00    +0.000 A 
ATOM     29  O   UNL     1       5.032  -2.740   1.677  0.00  0.00    +0.000 OA
ATOM     30  N   UNL     1       3.222  -2.464   0.417  0.00  0.00    +0.000 N 
ATOM     31  H   UNL     1       2.765  -3.126   0.984  0.00  0.00    +0.000 HD
ENDBRANCH  17  27
ENDBRANCH   1  20
TORSDOF 2
