REMARK  Name = 
REMARK  12 active torsions:
REMARK  status: ('A' for Active; 'I' for Inactive)
REMARK    1  A    between atoms: C_2  and  C_3
REMARK    2  A    between atoms: C_3  and  C_4
REMARK    3  A    between atoms: C_4  and  C_5
REMARK    4  A    between atoms: C_5  and  O_7
REMARK    5  A    between atoms: O_7  and  C_8
REMARK    6  A    between atoms: C_8  and  C_9
REMARK    7  A    between atoms: C_8  and  C_14
REMARK    8  A    between atoms: C_9  and  C_10
REMARK    9  A    between atoms: C_11  and  C_12
REMARK   10  A    between atoms: C_11  and  C_13
REMARK   11  A    between atoms: C_19  and  O_20
REMARK   12  A    between atoms: C_23  and  O_24
REMARK                            x       y       z     vdW  Elec       q    Type
REMARK                         _______ _______ _______ _____ _____    ______ ____
ROOT
ATOM      1  C   UNL     1       0.237   0.976  -6.235  0.00  0.00    +0.000 C 
ATOM      2  C   UNL     1      -0.002   2.280  -6.026  0.00  0.00    +0.000 C 
ATOM      3  C   UNL     1      -0.428   3.229  -7.059  0.00  0.00    +0.000 C 
ATOM      4  O   UNL     1      -0.686   4.391  -6.762  0.00  0.00    +0.000 OA
ATOM      5  C   UNL     1      -0.513   2.754  -8.436  0.00  0.00    +0.000 A 
ATOM      6  C   UNL     1      -0.887   3.658  -9.441  0.00  0.00    +0.000 A 
ATOM      7  C   UNL     1      -0.915   3.263 -10.770  0.00  0.00    +0.000 A 
ATOM      8  C   UNL     1      -0.554   1.959 -11.100  0.00  0.00    +0.000 A 
ATOM      9  C   UNL     1      -0.195   1.050 -10.095  0.00  0.00    +0.000 A 
ATOM     10  C   UNL     1      -0.186   1.428  -8.739  0.00  0.00    +0.000 A 
ATOM     11  C   UNL     1       0.161   0.465  -7.638  0.00  0.00    +0.000 C 
ATOM     12  O   UNL     1       0.389  -0.713  -7.875  0.00  0.00    +0.000 OA
ENDROOT
BRANCH   6  13
ATOM     13  O   UNL     1      -1.239   4.964  -9.197  0.00  0.00    +0.000 OA
ATOM     14  H   UNL     1      -1.240   5.293  -8.320  0.00  0.00    +0.000 HD
ENDBRANCH   6  13
BRANCH   9  15
ATOM     15  O   UNL     1       0.169  -0.209 -10.475  0.00  0.00    +0.000 OA
ATOM     16  H   UNL     1       0.158  -0.446 -11.382  0.00  0.00    +0.000 HD
ENDBRANCH   9  15
BRANCH   1  17
ATOM     17  C   UNL     1       0.598   0.028  -5.072  0.00  0.00    +0.000 C 
BRANCH  17  18
ATOM     18  O   UNL     1       0.307  -1.378  -5.287  0.00  0.00    +0.000 OA
BRANCH  18  19
ATOM     19  C   UNL     1      -0.983  -1.754  -5.500  0.00  0.00    +0.000 C 
ATOM     20  O   UNL     1      -1.948  -0.994  -5.504  0.00  0.00    +0.000 OA
BRANCH  19  21
ATOM     21  C   UNL     1      -1.090  -3.238  -5.787  0.00  0.00    +0.000 C 
BRANCH  21  22
ATOM     22  C   UNL     1      -0.620  -4.165  -4.665  0.00  0.00    +0.000 C 
BRANCH  22  24
ATOM     23  C   UNL     1      -2.345  -3.343  -2.961  0.00  0.00    +0.000 C 
ATOM     24  C   UNL     1      -1.325  -4.125  -3.335  0.00  0.00    +0.000 C 
ENDBRANCH  22  24
ENDBRANCH  21  22
ENDBRANCH  19  21
ENDBRANCH  18  19
ENDBRANCH  17  18
BRANCH  17  25
ATOM     25  C   UNL     1       0.021   0.497  -3.703  0.00  0.00    +0.000 C 
BRANCH  25  26
ATOM     26  C   UNL     1       0.481  -0.267  -2.491  0.00  0.00    +0.000 C 
ATOM     27  C   UNL     1       1.115   0.271  -1.431  0.00  0.00    +0.000 C 
ATOM     28  C   UNL     1       1.465  -0.560  -0.229  0.00  0.00    +0.000 C 
ATOM     29  C   UNL     1       1.499   1.727  -1.337  0.00  0.00    +0.000 C 
ENDBRANCH  25  26
ENDBRANCH  17  25
ENDBRANCH   1  17
TORSDOF 10
