REMARK  Name = 
REMARK  9 active torsions:
REMARK  status: ('A' for Active; 'I' for Inactive)
REMARK    1  A    between atoms: C_1  and  N_2
REMARK    2  A    between atoms: C_4  and  C_5
REMARK    3  A    between atoms: C_6  and  C_7
REMARK    4  A    between atoms: N_9  and  C_10
REMARK    5  A    between atoms: C_10  and  C_11
REMARK    6  A    between atoms: C_11  and  C_12
REMARK    7  A    between atoms: C_12  and  C_13
REMARK    8  A    between atoms: C_13  and  C_14
REMARK    9  A    between atoms: C_14  and  N_15
REMARK                            x       y       z     vdW  Elec       q    Type
REMARK                         _______ _______ _______ _____ _____    ______ ____
ROOT
ATOM      1  C   UNL     1       1.458  -3.316  -0.246  0.00  0.00    +0.000 C 
ATOM      2  C   UNL     1       1.497  -4.022   0.893  0.00  0.00    +0.000 C 
ATOM      3  C   UNL     1       0.733  -5.273   0.688  0.00  0.00    +0.000 C 
ATOM      4  O   UNL     1       0.563  -6.169   1.489  0.00  0.00    +0.000 OA
ATOM      5  N   UNL     1       0.270  -5.233  -0.586  0.00  0.00    +0.000 N 
ATOM      6  C   UNL     1       0.622  -4.091  -1.196  0.00  0.00    +0.000 C 
ATOM      7  O   UNL     1       0.284  -3.742  -2.311  0.00  0.00    +0.000 OA
ATOM      8  H   UNL     1      -0.257  -5.950  -1.008  0.00  0.00    +0.000 HD
ENDROOT
BRANCH   1  12
ATOM      9  C   UNL     1       1.956   1.572  -0.543  0.00  0.00    +0.000 C 
ATOM     10  N   UNL     1       2.234   0.159  -0.671  0.00  0.00    +0.000 N 
ATOM     11  C   UNL     1       1.394  -0.844  -0.264  0.00  0.00    +0.000 A 
ATOM     12  C   UNL     1       2.015  -2.045  -0.530  0.00  0.00    +0.000 A 
ATOM     13  C   UNL     1       3.283  -1.761  -1.121  0.00  0.00    +0.000 A 
ATOM     14  C   UNL     1       4.354  -2.548  -1.595  0.00  0.00    +0.000 A 
ATOM     15  C   UNL     1       5.478  -1.927  -2.155  0.00  0.00    +0.000 A 
ATOM     16  C   UNL     1       5.549  -0.541  -2.250  0.00  0.00    +0.000 A 
ATOM     17  C   UNL     1       4.505   0.262  -1.786  0.00  0.00    +0.000 A 
ATOM     18  C   UNL     1       3.386  -0.369  -1.218  0.00  0.00    +0.000 A 
ENDBRANCH   1  12
BRANCH   2  19
ATOM     19  C   UNL     1       2.064  -3.664   2.134  0.00  0.00    +0.000 A 
ATOM     20  C   UNL     1       3.365  -3.900   2.505  0.00  0.00    +0.000 A 
ATOM     21  N   UNL     1       3.542  -3.370   3.761  0.00  0.00    +0.000 N 
ATOM     22  C   UNL     1       2.333  -2.890   4.244  0.00  0.00    +0.000 A 
ATOM     23  C   UNL     1       1.953  -2.361   5.490  0.00  0.00    +0.000 A 
ATOM     24  C   UNL     1       0.701  -1.738   5.593  0.00  0.00    +0.000 A 
ATOM     25  C   UNL     1      -0.200  -1.750   4.535  0.00  0.00    +0.000 A 
ATOM     26  C   UNL     1       0.125  -2.413   3.350  0.00  0.00    +0.000 A 
ATOM     27  C   UNL     1       1.414  -2.970   3.191  0.00  0.00    +0.000 A 
BRANCH  21  28
ATOM     28  C   UNL     1       4.844  -3.287   4.408  0.00  0.00    +0.000 C 
BRANCH  28  29
ATOM     29  C   UNL     1       5.892  -2.440   3.658  0.00  0.00    +0.000 C 
BRANCH  29  30
ATOM     30  C   UNL     1       5.496  -0.973   3.471  0.00  0.00    +0.000 C 
BRANCH  30  31
ATOM     31  C   UNL     1       6.587  -0.193   2.716  0.00  0.00    +0.000 C 
BRANCH  31  32
ATOM     32  C   UNL     1       6.236   1.281   2.508  0.00  0.00    +0.000 C 
BRANCH  32  33
ATOM     33  N   UNL     1       5.033   1.404   1.701  0.00  0.00    +0.000 N 
ATOM     34  H   UNL     1       5.188   0.973   0.790  0.00  0.00    +0.000 HD
ATOM     35  H   UNL     1       4.807   2.391   1.576  0.00  0.00    +0.000 HD
ATOM     36  H   UNL     1       4.258   0.936   2.172  0.00  0.00    +0.000 HD
ENDBRANCH  32  33
ENDBRANCH  31  32
ENDBRANCH  30  31
ENDBRANCH  29  30
ENDBRANCH  28  29
ENDBRANCH  21  28
ENDBRANCH   2  19
TORSDOF 8
