REMARK  Name = 
REMARK  7 active torsions:
REMARK  status: ('A' for Active; 'I' for Inactive)
REMARK    1  A    between atoms: C_1  and  C_2
REMARK    2  A    between atoms: C_2  and  C_3
REMARK    3  A    between atoms: C_5  and  N_6
REMARK    4  A    between atoms: N_6  and  C_7
REMARK    5  A    between atoms: C_7  and  C_8
REMARK    6  A    between atoms: C_19  and  O_20
REMARK    7  A    between atoms: C_22  and  C_23
REMARK                            x       y       z     vdW  Elec       q    Type
REMARK                         _______ _______ _______ _____ _____    ______ ____
ROOT
ATOM      1  N   UNL     1       1.401  -2.181  -5.022  0.00  0.00    +0.000 N 
ATOM      2  H   UNL     1       1.821  -2.290  -5.906  0.00  0.00    +0.000 HD
ENDROOT
BRANCH   1   5
ATOM      3  C   UNL     1       0.932   0.630  -2.554  0.00  0.00    +0.000 A 
ATOM      4  C   UNL     1       0.955  -0.675  -3.094  0.00  0.00    +0.000 A 
ATOM      5  C   UNL     1       1.311  -0.908  -4.423  0.00  0.00    +0.000 A 
ATOM      6  C   UNL     1       1.707   0.235  -5.130  0.00  0.00    +0.000 A 
ATOM      7  N   UNL     1       1.696   1.498  -4.668  0.00  0.00    +0.000 NA
ATOM      8  C   UNL     1       1.305   1.693  -3.386  0.00  0.00    +0.000 A 
ATOM      9  C   UNL     1       1.357   3.127  -2.942  0.00  0.00    +0.000 C 
BRANCH   3  11
ATOM     10  C   UNL     1      -1.003   1.157  -1.037  0.00  0.00    +0.000 C 
ATOM     11  C   UNL     1       0.478   0.813  -1.125  0.00  0.00    +0.000 C 
ENDBRANCH   3  11
BRANCH   6  12
ATOM     12  O   UNL     1       2.211   0.097  -6.398  0.00  0.00    +0.000 OA
ATOM     13  H   UNL     1       2.254  -0.751  -6.795  0.00  0.00    +0.000 HD
ENDBRANCH   6  12
ENDBRANCH   1   5
BRANCH   1  14
ATOM     14  C   UNL     1       0.857  -3.344  -4.304  0.00  0.00    +0.000 C 
BRANCH  14  15
ATOM     15  C   UNL     1       0.760  -4.629  -5.083  0.00  0.00    +0.000 A 
ATOM     16  N   UNL     1       0.629  -4.821  -6.385  0.00  0.00    +0.000 NA
ATOM     17  C   UNL     1       0.459  -6.189  -6.505  0.00  0.00    +0.000 A 
ATOM     18  C   UNL     1       0.242  -7.044  -7.598  0.00  0.00    +0.000 A 
ATOM     19 CL   UNL     1       0.191  -6.324  -9.142  0.00  0.00    +0.000 Cl
ATOM     20  C   UNL     1       0.066  -8.420  -7.407  0.00  0.00    +0.000 A 
ATOM     21  C   UNL     1       0.118  -8.958  -6.117  0.00  0.00    +0.000 A 
ATOM     22  C   UNL     1       0.348  -8.137  -5.005  0.00  0.00    +0.000 A 
ATOM     23 CL   UNL     1       0.412  -8.798  -3.426  0.00  0.00    +0.000 Cl
ATOM     24  C   UNL     1       0.504  -6.772  -5.245  0.00  0.00    +0.000 A 
ATOM     25  O   UNL     1       0.703  -5.775  -4.331  0.00  0.00    +0.000 OA
ENDBRANCH  14  15
ENDBRANCH   1  14
TORSDOF 5
