REMARK  Name = 
REMARK  11 active torsions:
REMARK  status: ('A' for Active; 'I' for Inactive)
REMARK    1  A    between atoms: C_1  and  C_2
REMARK    2  A    between atoms: C_2  and  C_3
REMARK    3  A    between atoms: C_4  and  C_5
REMARK    4  A    between atoms: C_5  and  C_6
REMARK    5  A    between atoms: C_6  and  O_7
REMARK    6  A    between atoms: C_6  and  C_17
REMARK    7  A    between atoms: O_7  and  C_8
REMARK    8  A    between atoms: C_8  and  C_10
REMARK    9  A    between atoms: C_10  and  C_11
REMARK   10  A    between atoms: C_22  and  O_23
REMARK   11  A    between atoms: C_26  and  O_27
REMARK                            x       y       z     vdW  Elec       q    Type
REMARK                         _______ _______ _______ _____ _____    ______ ____
ROOT
ATOM      1  C   UNL     1       2.325  -2.578   2.295  0.00  0.00    +0.000 C 
ENDROOT
BRANCH   1   2
ATOM      2  C   UNL     1       3.354  -2.878   1.232  0.00  0.00    +0.000 C 
ATOM      3  C   UNL     1       3.156  -3.759   0.242  0.00  0.00    +0.000 C 
ATOM      4  C   UNL     1       3.889  -3.639  -1.029  0.00  0.00    +0.000 C 
ATOM      5  O   UNL     1       3.703  -4.452  -1.929  0.00  0.00    +0.000 OA
ATOM      6  C   UNL     1       4.688  -2.429  -1.246  0.00  0.00    +0.000 A 
ATOM      7  C   UNL     1       5.067  -2.070  -2.546  0.00  0.00    +0.000 A 
ATOM      8  C   UNL     1       5.800  -0.908  -2.770  0.00  0.00    +0.000 A 
ATOM      9  C   UNL     1       6.138  -0.080  -1.700  0.00  0.00    +0.000 A 
ATOM     10  C   UNL     1       5.728  -0.413  -0.408  0.00  0.00    +0.000 A 
ATOM     11  C   UNL     1       5.011  -1.595  -0.172  0.00  0.00    +0.000 A 
ATOM     12  C   UNL     1       4.513  -1.951   1.178  0.00  0.00    +0.000 C 
ATOM     13  O   UNL     1       4.982  -1.494   2.211  0.00  0.00    +0.000 OA
BRANCH   7  14
ATOM     14  O   UNL     1       4.710  -2.785  -3.656  0.00  0.00    +0.000 OA
ATOM     15  H   UNL     1       4.215  -3.576  -3.565  0.00  0.00    +0.000 HD
ENDBRANCH   7  14
BRANCH  10  16
ATOM     16  O   UNL     1       5.987   0.460   0.607  0.00  0.00    +0.000 OA
ATOM     17  H   UNL     1       6.467   1.247   0.438  0.00  0.00    +0.000 HD
ENDBRANCH  10  16
ENDBRANCH   1   2
BRANCH   1  18
ATOM     18  C   UNL     1       0.913  -2.474   1.665  0.00  0.00    +0.000 C 
BRANCH  18  22
ATOM     19  C   UNL     1       0.286   0.480   1.396  0.00  0.00    +0.000 C 
ATOM     20  C   UNL     1      -0.304  -0.411   2.456  0.00  0.00    +0.000 C 
ATOM     21  C   UNL     1      -1.197   0.221   3.481  0.00  0.00    +0.000 C 
ATOM     22  C   UNL     1      -0.029  -1.724   2.554  0.00  0.00    +0.000 C 
ENDBRANCH  18  22
ENDBRANCH   1  18
BRANCH   1  23
ATOM     23  O   UNL     1       2.495  -3.419   3.449  0.00  0.00    +0.000 OA
BRANCH  23  24
ATOM     24  C   UNL     1       2.004  -4.681   3.479  0.00  0.00    +0.000 C 
ATOM     25  O   UNL     1       1.254  -5.179   2.651  0.00  0.00    +0.000 OA
BRANCH  24  26
ATOM     26  C   UNL     1       2.598  -5.435   4.638  0.00  0.00    +0.000 C 
BRANCH  26  27
ATOM     27  C   UNL     1       1.720  -5.543   5.854  0.00  0.00    +0.000 A 
ATOM     28  C   UNL     1       0.725  -6.528   5.926  0.00  0.00    +0.000 A 
ATOM     29  C   UNL     1      -0.011  -6.705   7.098  0.00  0.00    +0.000 A 
ATOM     30  C   UNL     1       0.230  -5.891   8.204  0.00  0.00    +0.000 A 
ATOM     31  C   UNL     1       1.189  -4.883   8.129  0.00  0.00    +0.000 A 
ATOM     32  C   UNL     1       1.926  -4.704   6.958  0.00  0.00    +0.000 A 
ENDBRANCH  26  27
ENDBRANCH  24  26
ENDBRANCH  23  24
ENDBRANCH   1  23
TORSDOF 9
