REMARK  Name = 
REMARK  7 active torsions:
REMARK  status: ('A' for Active; 'I' for Inactive)
REMARK    1  A    between atoms: C_1  and  O_2
REMARK    2  A    between atoms: O_2  and  C_3
REMARK    3  A    between atoms: N_10  and  S_11
REMARK    4  A    between atoms: S_11  and  C_14
REMARK    5  A    between atoms: C_19  and  N_20
REMARK    6  A    between atoms: N_20  and  C_21
REMARK    7  A    between atoms: N_20  and  C_22
REMARK                            x       y       z     vdW  Elec       q    Type
REMARK                         _______ _______ _______ _____ _____    ______ ____
ROOT
ATOM      1  S   UNL     1      -2.412  -3.513  -2.708  0.00  0.00    +0.000 S 
ATOM      2  O   UNL     1      -3.806  -3.880  -2.577  0.00  0.00    +0.000 OA
ATOM      3  O   UNL     1      -2.026  -2.120  -2.753  0.00  0.00    +0.000 OA
ENDROOT
BRANCH   1   4
ATOM      4  C   UNL     1      -1.778  -4.316  -4.192  0.00  0.00    +0.000 A 
ATOM      5  C   UNL     1      -1.025  -3.510  -5.054  0.00  0.00    +0.000 A 
ATOM      6  C   UNL     1      -0.365  -4.083  -6.124  0.00  0.00    +0.000 A 
ATOM      7  C   UNL     1      -0.488  -5.452  -6.359  0.00  0.00    +0.000 A 
ATOM      8  C   UNL     1      -1.358  -6.290  -5.623  0.00  0.00    +0.000 A 
ATOM      9  C   UNL     1      -1.583  -7.679  -5.968  0.00  0.00    +0.000 A 
ATOM     10  C   UNL     1      -2.441  -8.415  -5.122  0.00  0.00    +0.000 A 
ATOM     11  C   UNL     1      -3.034  -7.868  -3.995  0.00  0.00    +0.000 A 
ATOM     12  C   UNL     1      -2.805  -6.537  -3.678  0.00  0.00    +0.000 A 
ATOM     13  C   UNL     1      -1.997  -5.699  -4.479  0.00  0.00    +0.000 A 
BRANCH   9  14
ATOM     14  N   UNL     1      -1.003  -8.337  -7.066  0.00  0.00    +0.000 N 
ATOM     15  C   UNL     1      -0.906  -7.731  -8.391  0.00  0.00    +0.000 C 
ATOM     16  C   UNL     1      -0.849  -9.793  -7.051  0.00  0.00    +0.000 C 
ENDBRANCH   9  14
ENDBRANCH   1   4
BRANCH   1  24
ATOM     17  C   UNL     1       0.319  -2.787  -0.728  0.00  0.00    +0.000 A 
ATOM     18  N   UNL     1       1.592  -2.353  -0.910  0.00  0.00    +0.000 NA
ATOM     19  C   UNL     1       2.319  -3.056  -1.805  0.00  0.00    +0.000 A 
ATOM     20 BR   UNL     1       4.062  -2.454  -2.224  0.00  0.00    +0.000 Br
ATOM     21  C   UNL     1       1.815  -4.182  -2.450  0.00  0.00    +0.000 A 
ATOM     22  N   UNL     1       0.553  -4.640  -2.260  0.00  0.00    +0.000 NA
ATOM     23  C   UNL     1      -0.189  -3.902  -1.414  0.00  0.00    +0.000 A 
ATOM     24  N   UNL     1      -1.560  -4.270  -1.437  0.00  0.00    +0.000 N 
ATOM     25  H   UNL     1      -1.972  -4.891  -0.794  0.00  0.00    +0.000 HD
BRANCH  17  27
ATOM     26  C   UNL     1       0.153  -1.085   0.878  0.00  0.00    +0.000 C 
ATOM     27  O   UNL     1      -0.481  -2.174   0.216  0.00  0.00    +0.000 OA
ENDBRANCH  17  27
ENDBRANCH   1  24
TORSDOF 4
