REMARK  Name = 
REMARK  8 active torsions:
REMARK  status: ('A' for Active; 'I' for Inactive)
REMARK    1  A    between atoms: C_1  and  N_2
REMARK    2  A    between atoms: N_2  and  C_3
REMARK    3  A    between atoms: C_3  and  C_4
REMARK    4  A    between atoms: C_4  and  C_5
REMARK    5  A    between atoms: C_5  and  N_6
REMARK    6  A    between atoms: C_8  and  C_9
REMARK    7  A    between atoms: C_10  and  C_11
REMARK    8  A    between atoms: N_13  and  C_14
REMARK                            x       y       z     vdW  Elec       q    Type
REMARK                         _______ _______ _______ _____ _____    ______ ____
ROOT
ATOM      1  C   UNL     1      -1.506  -6.955   2.510  0.00  0.00    +0.000 C 
ATOM      2  C   UNL     1      -2.321  -8.012   2.374  0.00  0.00    +0.000 C 
ATOM      3  C   UNL     1      -1.646  -9.161   3.013  0.00  0.00    +0.000 C 
ATOM      4  O   UNL     1      -2.061 -10.304   3.100  0.00  0.00    +0.000 OA
ATOM      5  N   UNL     1      -0.465  -8.719   3.499  0.00  0.00    +0.000 N 
ATOM      6  C   UNL     1      -0.306  -7.402   3.243  0.00  0.00    +0.000 C 
ATOM      7  O   UNL     1       0.656  -6.727   3.558  0.00  0.00    +0.000 OA
ATOM      8  H   UNL     1       0.190  -9.280   3.974  0.00  0.00    +0.000 HD
ENDROOT
BRANCH   2   9
ATOM      9  C   UNL     1      -3.580  -8.101   1.737  0.00  0.00    +0.000 A 
ATOM     10  C   UNL     1      -4.792  -7.865   2.347  0.00  0.00    +0.000 A 
ATOM     11  N   UNL     1      -5.777  -8.078   1.416  0.00  0.00    +0.000 N 
ATOM     12  C   UNL     1      -7.194  -7.953   1.674  0.00  0.00    +0.000 C 
ATOM     13  C   UNL     1      -5.222  -8.445   0.206  0.00  0.00    +0.000 A 
ATOM     14  C   UNL     1      -5.822  -8.774  -1.022  0.00  0.00    +0.000 A 
ATOM     15  C   UNL     1      -4.986  -9.124  -2.087  0.00  0.00    +0.000 A 
ATOM     16  C   UNL     1      -3.603  -9.139  -1.939  0.00  0.00    +0.000 A 
ATOM     17  C   UNL     1      -3.016  -8.807  -0.715  0.00  0.00    +0.000 A 
ATOM     18  C   UNL     1      -3.834  -8.459   0.380  0.00  0.00    +0.000 A 
ENDBRANCH   2   9
BRANCH   1  21
ATOM     19  N   UNL     1      -1.645  -3.794   0.820  0.00  0.00    +0.000 N 
ATOM     20  C   UNL     1      -1.324  -5.131   0.856  0.00  0.00    +0.000 A 
ATOM     21  C   UNL     1      -1.699  -5.623   2.082  0.00  0.00    +0.000 A 
ATOM     22  C   UNL     1      -2.239  -4.554   2.843  0.00  0.00    +0.000 A 
ATOM     23  C   UNL     1      -2.689  -4.440   4.176  0.00  0.00    +0.000 A 
ATOM     24  C   UNL     1      -3.155  -3.212   4.646  0.00  0.00    +0.000 A 
ATOM     25  C   UNL     1      -3.248  -2.125   3.784  0.00  0.00    +0.000 A 
ATOM     26  C   UNL     1      -2.836  -2.219   2.445  0.00  0.00    +0.000 A 
ATOM     27  C   UNL     1      -2.276  -3.431   2.003  0.00  0.00    +0.000 A 
BRANCH  19  28
ATOM     28  C   UNL     1      -1.147  -2.894  -0.213  0.00  0.00    +0.000 C 
BRANCH  28  29
ATOM     29  C   UNL     1      -1.513  -3.259  -1.661  0.00  0.00    +0.000 C 
BRANCH  29  30
ATOM     30  C   UNL     1      -3.021  -3.207  -1.910  0.00  0.00    +0.000 C 
BRANCH  30  32
ATOM     31  C   UNL     1      -4.797  -3.481  -3.503  0.00  0.00    +0.000 C 
ATOM     32  N   UNL     1      -3.348  -3.510  -3.308  0.00  0.00    +0.000 N 
ATOM     33  H   UNL     1      -2.912  -2.815  -3.914  0.00  0.00    +0.000 HD
ATOM     34  H   UNL     1      -2.999  -4.440  -3.538  0.00  0.00    +0.000 HD
ENDBRANCH  30  32
ENDBRANCH  29  30
ENDBRANCH  28  29
ENDBRANCH  19  28
ENDBRANCH   1  21
TORSDOF 6
