REMARK  Name = 
REMARK  9 active torsions:
REMARK  status: ('A' for Active; 'I' for Inactive)
REMARK    1  A    between atoms: C_2  and  C_3
REMARK    2  A    between atoms: C_3  and  N_4
REMARK    3  A    between atoms: N_4  and  C_5
REMARK    4  A    between atoms: N_4  and  C_18
REMARK    5  A    between atoms: C_5  and  C_6
REMARK    6  A    between atoms: C_11  and  C_12
REMARK    7  A    between atoms: C_14  and  O_15
REMARK    8  A    between atoms: C_21  and  C_22
REMARK    9  A    between atoms: N_24  and  C_25
REMARK                            x       y       z     vdW  Elec       q    Type
REMARK                         _______ _______ _______ _____ _____    ______ ____
ROOT
ATOM      1  N   UNL     1      -2.360   1.044  -0.983  0.00  0.00    +0.000 N 
ENDROOT
BRANCH   1   2
ATOM      2  C   UNL     1      -1.928   2.358  -0.904  0.00  0.00    +0.000 A 
ATOM      3  C   UNL     1      -1.188   2.860   0.178  0.00  0.00    +0.000 A 
ATOM      4  C   UNL     1      -0.838   4.217   0.278  0.00  0.00    +0.000 A 
ATOM      5  C   UNL     1      -1.188   5.120  -0.728  0.00  0.00    +0.000 A 
ATOM      6  C   UNL     1      -1.888   4.633  -1.831  0.00  0.00    +0.000 A 
ATOM      7  C   UNL     1      -2.263   3.290  -1.896  0.00  0.00    +0.000 A 
BRANCH   5   8
ATOM      8  C   UNL     1      -0.902   6.578  -0.532  0.00  0.00    +0.000 C 
ATOM      9  O   UNL     1      -0.488   6.947   0.562  0.00  0.00    +0.000 OA
ATOM     10  N   UNL     1      -1.169   7.392  -1.619  0.00  0.00    +0.000 N 
ATOM     11  H   UNL     1      -1.280   6.936  -2.485  0.00  0.00    +0.000 HD
BRANCH  10  12
ATOM     12  C   UNL     1      -1.302   8.791  -1.637  0.00  0.00    +0.000 A 
ATOM     13  C   UNL     1      -1.080   9.609  -0.531  0.00  0.00    +0.000 A 
ATOM     14  C   UNL     1      -1.334  10.980  -0.611  0.00  0.00    +0.000 A 
ATOM     15  C   UNL     1      -1.804  11.542  -1.797  0.00  0.00    +0.000 A 
ATOM     16  C   UNL     1      -2.003  10.735  -2.914  0.00  0.00    +0.000 A 
ATOM     17  C   UNL     1      -1.747   9.364  -2.838  0.00  0.00    +0.000 A 
ENDBRANCH  10  12
ENDBRANCH   5   8
ENDBRANCH   1   2
BRANCH   1  18
ATOM     18  C   UNL     1      -1.892   0.011  -0.072  0.00  0.00    +0.000 C 
BRANCH  18  20
ATOM     19  C   UNL     1       0.631  -0.948  -0.901  0.00  0.00    +0.000 C 
ATOM     20  C   UNL     1      -0.534  -0.505  -0.518  0.00  0.00    +0.000 C 
ENDBRANCH  18  20
ENDBRANCH   1  18
BRANCH   1  21
ATOM     21  C   UNL     1      -3.098   0.520  -2.124  0.00  0.00    +0.000 C 
BRANCH  21  22
ATOM     22  C   UNL     1      -4.592   0.504  -1.891  0.00  0.00    +0.000 A 
ATOM     23  C   UNL     1      -5.294   1.450  -1.134  0.00  0.00    +0.000 A 
ATOM     24  C   UNL     1      -6.694   1.461  -1.126  0.00  0.00    +0.000 A 
ATOM     25  C   UNL     1      -7.439   0.544  -1.870  0.00  0.00    +0.000 A 
ATOM     26  N   UNL     1      -8.781   0.601  -1.924  0.00  0.00    +0.000 NA
ATOM     27  C   UNL     1      -9.420  -0.315  -2.684  0.00  0.00    +0.000 A 
ATOM     28  C   UNL     1     -10.911  -0.218  -2.759  0.00  0.00    +0.000 C 
ATOM     29  N   UNL     1      -8.829  -1.308  -3.370  0.00  0.00    +0.000 NA
ATOM     30  C   UNL     1      -7.499  -1.335  -3.275  0.00  0.00    +0.000 A 
ATOM     31  C   UNL     1      -6.730  -0.436  -2.565  0.00  0.00    +0.000 A 
ATOM     32  C   UNL     1      -5.327  -0.464  -2.573  0.00  0.00    +0.000 A 
BRANCH  30  33
ATOM     33  O   UNL     1      -6.912  -2.332  -3.996  0.00  0.00    +0.000 OA
ATOM     34  H   UNL     1      -7.443  -2.938  -4.476  0.00  0.00    +0.000 HD
ENDBRANCH  30  33
ENDBRANCH  21  22
ENDBRANCH   1  21
TORSDOF 8
