REMARK  Name = 
REMARK  5 active torsions:
REMARK  status: ('A' for Active; 'I' for Inactive)
REMARK    1  A    between atoms: C_1  and  N_2
REMARK    2  A    between atoms: N_2  and  C_3
REMARK    3  A    between atoms: N_2  and  C_4
REMARK    4  A    between atoms: C_9  and  S_10
REMARK    5  A    between atoms: S_10  and  N_13
REMARK                            x       y       z     vdW  Elec       q    Type
REMARK                         _______ _______ _______ _____ _____    ______ ____
ROOT
ATOM      1  C   UNL     1       0.322  -2.231   0.479  0.00  0.00    +0.000 A 
ATOM      2  C   UNL     1       1.489  -2.469  -0.269  0.00  0.00    +0.000 A 
ATOM      3  C   UNL     1       1.843  -3.744  -0.690  0.00  0.00    +0.000 A 
ATOM      4  C   UNL     1       1.099  -4.842  -0.277  0.00  0.00    +0.000 A 
ATOM      5  C   UNL     1      -0.020  -4.703   0.564  0.00  0.00    +0.000 A 
ATOM      6  C   UNL     1      -0.750  -5.809   1.104  0.00  0.00    +0.000 A 
ATOM      7  C   UNL     1      -1.980  -5.616   1.740  0.00  0.00    +0.000 A 
ATOM      8  C   UNL     1      -2.492  -4.339   1.878  0.00  0.00    +0.000 A 
ATOM      9  C   UNL     1      -1.737  -3.246   1.457  0.00  0.00    +0.000 A 
ATOM     10  C   UNL     1      -0.469  -3.374   0.856  0.00  0.00    +0.000 A 
ENDROOT
BRANCH   1  12
ATOM     11  C   UNL     1       0.485   0.169  -0.053  0.00  0.00    +0.000 C 
ATOM     12  N   UNL     1      -0.065  -0.899   0.790  0.00  0.00    +0.000 N 
ATOM     13  C   UNL     1      -0.136  -0.555   2.216  0.00  0.00    +0.000 C 
ENDBRANCH   1  12
BRANCH   6  14
ATOM     14  S   UNL     1      -0.186  -7.510   0.997  0.00  0.00    +0.000 S 
ATOM     15  O   UNL     1      -1.071  -8.317   1.814  0.00  0.00    +0.000 OA
ATOM     16  O   UNL     1      -0.025  -7.819  -0.408  0.00  0.00    +0.000 OA
BRANCH  14  17
ATOM     17  N   UNL     1       1.340  -7.612   1.666  0.00  0.00    +0.000 N 
ATOM     18  C   UNL     1       1.621  -6.846   2.786  0.00  0.00    +0.000 A 
ATOM     19  N   UNL     1       1.219  -7.243   3.994  0.00  0.00    +0.000 NA
ATOM     20  C   UNL     1       1.667  -6.493   5.027  0.00  0.00    +0.000 A 
ATOM     21  C   UNL     1       2.436  -5.359   4.872  0.00  0.00    +0.000 A 
ATOM     22 BR   UNL     1       3.000  -4.307   6.317  0.00  0.00    +0.000 Br
ATOM     23  C   UNL     1       2.771  -5.048   3.577  0.00  0.00    +0.000 A 
ATOM     24  N   UNL     1       2.406  -5.795   2.517  0.00  0.00    +0.000 NA
ATOM     25  H   UNL     1       2.024  -8.202   1.274  0.00  0.00    +0.000 HD
ENDBRANCH  14  17
ENDBRANCH   6  14
TORSDOF 3
