REMARK  Name = 
REMARK  6 active torsions:
REMARK  status: ('A' for Active; 'I' for Inactive)
REMARK    1  A    between atoms: C_1  and  N_2
REMARK    2  A    between atoms: N_2  and  C_3
REMARK    3  A    between atoms: N_2  and  C_19
REMARK    4  A    between atoms: C_3  and  C_4
REMARK    5  A    between atoms: C_7  and  S_8
REMARK    6  A    between atoms: S_8  and  C_11
REMARK                            x       y       z     vdW  Elec       q    Type
REMARK                         _______ _______ _______ _____ _____    ______ ____
ROOT
ATOM      1  C   UNL     1       0.129   2.173   1.821  0.00  0.00    +0.000 C 
ATOM      2  N   UNL     1       0.174   1.326   0.638  0.00  0.00    +0.000 N 
ENDROOT
BRANCH   2   3
ATOM      3  C   UNL     1      -0.012  -0.062   0.762  0.00  0.00    +0.000 A 
ATOM      4  C   UNL     1      -0.864  -0.633   1.744  0.00  0.00    +0.000 A 
ATOM      5  C   UNL     1      -1.283  -1.984   1.709  0.00  0.00    +0.000 A 
ATOM      6  C   UNL     1      -0.887  -2.738   0.609  0.00  0.00    +0.000 A 
ATOM      7  C   UNL     1      -0.007  -2.170  -0.289  0.00  0.00    +0.000 A 
ATOM      8  C   UNL     1       0.208  -3.088  -1.283  0.00  0.00    +0.000 A 
ATOM      9  C   UNL     1       1.042  -2.790  -2.351  0.00  0.00    +0.000 A 
ATOM     10  C   UNL     1       1.815  -1.626  -2.208  0.00  0.00    +0.000 A 
ATOM     11  C   UNL     1       1.586  -0.717  -1.153  0.00  0.00    +0.000 A 
ATOM     12  C   UNL     1       0.546  -0.934  -0.218  0.00  0.00    +0.000 A 
ATOM     13  C   UNL     1      -0.570  -4.215  -0.872  0.00  0.00    +0.000 C 
ATOM     14  N   UNL     1      -0.461  -5.340  -1.622  0.00  0.00    +0.000 N 
ATOM     15  N   UNL     1      -1.226  -4.035   0.248  0.00  0.00    +0.000 N 
ATOM     16  H   UNL     1       0.070  -5.330  -2.451  0.00  0.00    +0.000 HD
ATOM     17  H   UNL     1      -0.914  -6.167  -1.338  0.00  0.00    +0.000 HD
ATOM     18  H   UNL     1      -1.815  -4.667   0.719  0.00  0.00    +0.000 HD
ENDBRANCH   2   3
BRANCH   2  19
ATOM     19  C   UNL     1      -0.391   1.901  -0.601  0.00  0.00    +0.000 C 
BRANCH  19  20
ATOM     20  C   UNL     1      -1.863   2.286  -0.536  0.00  0.00    +0.000 A 
ATOM     21  C   UNL     1      -2.249   3.566  -0.102  0.00  0.00    +0.000 A 
ATOM     22  C   UNL     1      -3.564   4.011  -0.262  0.00  0.00    +0.000 A 
ATOM     23  C   UNL     1      -4.508   3.173  -0.861  0.00  0.00    +0.000 A 
ATOM     24  C   UNL     1      -4.165   1.866  -1.219  0.00  0.00    +0.000 A 
ATOM     25  C   UNL     1      -2.849   1.422  -1.043  0.00  0.00    +0.000 A 
BRANCH  23  26
ATOM     26  S   UNL     1      -6.051   3.874  -1.424  0.00  0.00    +0.000 S 
ATOM     27  O   UNL     1      -5.784   5.265  -1.747  0.00  0.00    +0.000 OA
ATOM     28  O   UNL     1      -6.582   2.980  -2.452  0.00  0.00    +0.000 OA
BRANCH  26  29
ATOM     29  C   UNL     1      -7.206   3.863  -0.076  0.00  0.00    +0.000 A 
ATOM     30  C   UNL     1      -7.305   4.982   0.758  0.00  0.00    +0.000 A 
ATOM     31  C   UNL     1      -8.272   5.006   1.762  0.00  0.00    +0.000 A 
ATOM     32  C   UNL     1      -9.144   3.927   1.918  0.00  0.00    +0.000 A 
ATOM     33  C   UNL     1      -9.058   2.824   1.067  0.00  0.00    +0.000 A 
ATOM     34  C   UNL     1      -8.091   2.790   0.062  0.00  0.00    +0.000 A 
ENDBRANCH  26  29
ENDBRANCH  23  26
ENDBRANCH  19  20
ENDBRANCH   2  19
TORSDOF 5
