REMARK  Name = 
REMARK  5 active torsions:
REMARK  status: ('A' for Active; 'I' for Inactive)
REMARK    1  A    between atoms: C_1  and  C_20
REMARK    2  A    between atoms: N_5  and  C_6
REMARK    3  A    between atoms: C_6  and  C_7
REMARK    4  A    between atoms: C_10  and  C_11
REMARK    5  A    between atoms: C_23  and  C_24
REMARK                            x       y       z     vdW  Elec       q    Type
REMARK                         _______ _______ _______ _____ _____    ______ ____
ROOT
ATOM      1  C   UNL     1       0.981   0.431   0.104  0.00  0.00    +0.000 C 
ATOM      2  C   UNL     1       0.401  -0.624   0.704  0.00  0.00    +0.000 C 
ATOM      3  C   UNL     1      -1.082  -0.923   0.705  0.00  0.00    +0.000 C 
ATOM      4  C   UNL     1      -1.584  -1.329   2.101  0.00  0.00    +0.000 C 
ATOM      5  N   UNL     1      -0.834  -2.423   2.748  0.00  0.00    +0.000 N 
ATOM      6  C   UNL     1       0.600  -2.091   2.786  0.00  0.00    +0.000 C 
ATOM      7  C   UNL     1       1.232  -1.649   1.452  0.00  0.00    +0.000 C 
ATOM      8  H   UNL     1      -1.173  -2.499   3.707  0.00  0.00    +0.000 HD
ENDROOT
BRANCH   1   9
ATOM      9  C   UNL     1       0.269   1.445  -0.679  0.00  0.00    +0.000 A 
ATOM     10  C   UNL     1      -0.135   2.643  -0.077  0.00  0.00    +0.000 A 
ATOM     11  C   UNL     1      -0.817   3.604  -0.828  0.00  0.00    +0.000 A 
ATOM     12  C   UNL     1      -1.108   3.365  -2.172  0.00  0.00    +0.000 A 
ATOM     13  C   UNL     1      -0.696   2.172  -2.778  0.00  0.00    +0.000 A 
ATOM     14  C   UNL     1      -0.010   1.214  -2.029  0.00  0.00    +0.000 A 
BRANCH  12  15
ATOM     15  C   UNL     1      -1.850   4.372  -2.966  0.00  0.00    +0.000 C 
ATOM     16  N   UNL     1      -1.890   5.632  -2.617  0.00  0.00    +0.000 N 
ATOM     17  C   UNL     1      -2.761   6.284  -3.631  0.00  0.00    +0.000 C 
ATOM     18  C   UNL     1      -3.223   5.195  -4.602  0.00  0.00    +0.000 C 
ATOM     19  N   UNL     1      -2.543   4.025  -4.101  0.00  0.00    +0.000 N 
ATOM     20  H   UNL     1      -1.441   6.056  -1.850  0.00  0.00    +0.000 HD
ATOM     21  H   UNL     1      -2.571   3.127  -4.505  0.00  0.00    +0.000 HD
ENDBRANCH  12  15
ENDBRANCH   1   9
BRANCH   5  22
ATOM     22  C   UNL     1      -1.101  -3.754   2.172  0.00  0.00    +0.000 C 
BRANCH  22  23
ATOM     23  C   UNL     1      -2.549  -4.179   2.354  0.00  0.00    +0.000 A 
ATOM     24  C   UNL     1      -3.349  -4.477   1.243  0.00  0.00    +0.000 A 
ATOM     25  C   UNL     1      -4.726  -4.670   1.394  0.00  0.00    +0.000 A 
ATOM     26  C   UNL     1      -5.318  -4.588   2.659  0.00  0.00    +0.000 A 
ATOM     27  C   UNL     1      -4.508  -4.407   3.785  0.00  0.00    +0.000 A 
ATOM     28  C   UNL     1      -3.131  -4.203   3.631  0.00  0.00    +0.000 A 
BRANCH  26  29
ATOM     29  C   UNL     1      -6.804  -4.613   2.778  0.00  0.00    +0.000 C 
ATOM     30  N   UNL     1      -7.568  -4.703   1.718  0.00  0.00    +0.000 N 
ATOM     31  C   UNL     1      -8.958  -4.555   2.221  0.00  0.00    +0.000 C 
ATOM     32  C   UNL     1      -8.876  -4.405   3.740  0.00  0.00    +0.000 C 
ATOM     33  N   UNL     1      -7.454  -4.494   3.983  0.00  0.00    +0.000 N 
ATOM     34  H   UNL     1      -7.282  -4.840   0.786  0.00  0.00    +0.000 HD
ATOM     35  H   UNL     1      -7.021  -4.472   4.867  0.00  0.00    +0.000 HD
ENDBRANCH  26  29
ENDBRANCH  22  23
ENDBRANCH   5  22
TORSDOF 5
