REMARK  Name = 
REMARK  6 active torsions:
REMARK  status: ('A' for Active; 'I' for Inactive)
REMARK    1  A    between atoms: C_1  and  N_2
REMARK    2  A    between atoms: N_2  and  C_3
REMARK    3  A    between atoms: C_8  and  S_9
REMARK    4  A    between atoms: S_9  and  N_12
REMARK    5  A    between atoms: C_19  and  O_20
REMARK    6  A    between atoms: O_20  and  C_21
REMARK                            x       y       z     vdW  Elec       q    Type
REMARK                         _______ _______ _______ _____ _____    ______ ____
ROOT
ATOM      1  S   UNL     1      -1.767   3.671  -6.050  0.00  0.00    +0.000 S 
ATOM      2  O   UNL     1      -2.862   2.781  -5.699  0.00  0.00    +0.000 OA
ATOM      3  O   UNL     1      -2.025   5.093  -6.163  0.00  0.00    +0.000 OA
ENDROOT
BRANCH   1   9
ATOM      4  C   UNL     1       0.189   1.226  -1.813  0.00  0.00    +0.000 A 
ATOM      5  C   UNL     1      -0.509   0.086  -2.235  0.00  0.00    +0.000 A 
ATOM      6  C   UNL     1      -0.972  -0.046  -3.534  0.00  0.00    +0.000 A 
ATOM      7  C   UNL     1      -0.890   1.026  -4.412  0.00  0.00    +0.000 A 
ATOM      8  C   UNL     1      -0.366   2.270  -4.012  0.00  0.00    +0.000 A 
ATOM      9  C   UNL     1      -0.438   3.435  -4.837  0.00  0.00    +0.000 A 
ATOM     10  C   UNL     1       0.263   4.594  -4.483  0.00  0.00    +0.000 A 
ATOM     11  C   UNL     1       0.984   4.636  -3.297  0.00  0.00    +0.000 A 
ATOM     12  C   UNL     1       0.951   3.544  -2.420  0.00  0.00    +0.000 A 
ATOM     13  C   UNL     1       0.268   2.339  -2.731  0.00  0.00    +0.000 A 
BRANCH   4  15
ATOM     14  C   UNL     1       1.019   0.138   0.280  0.00  0.00    +0.000 C 
ATOM     15  N   UNL     1       0.623   1.322  -0.477  0.00  0.00    +0.000 N 
ATOM     16  H   UNL     1       0.660   2.206  -0.044  0.00  0.00    +0.000 HD
ENDBRANCH   4  15
ENDBRANCH   1   9
BRANCH   1  17
ATOM     17  N   UNL     1      -1.214   3.112  -7.538  0.00  0.00    +0.000 N 
ATOM     18  C   UNL     1      -0.579   4.075  -8.369  0.00  0.00    +0.000 A 
ATOM     19  N   UNL     1       0.747   4.178  -8.141  0.00  0.00    +0.000 NA
ATOM     20  C   UNL     1       1.409   5.023  -8.977  0.00  0.00    +0.000 A 
ATOM     21  C   UNL     1       0.779   5.754  -9.975  0.00  0.00    +0.000 A 
ATOM     22 BR   UNL     1       1.791   6.892 -11.097  0.00  0.00    +0.000 Br
ATOM     23  N   UNL     1      -0.550   5.674 -10.188  0.00  0.00    +0.000 NA
ATOM     24  C   UNL     1      -1.229   4.833  -9.368  0.00  0.00    +0.000 A 
ATOM     25  H   UNL     1      -1.324   2.174  -7.816  0.00  0.00    +0.000 HD
BRANCH  24  26
ATOM     26  O   UNL     1      -2.590   4.688  -9.571  0.00  0.00    +0.000 OA
ATOM     27  C   UNL     1      -3.080   5.524 -10.631  0.00  0.00    +0.000 C 
ENDBRANCH  24  26
ENDBRANCH   1  17
TORSDOF 4
