REMARK  Name = 
REMARK  12 active torsions:
REMARK  status: ('A' for Active; 'I' for Inactive)
REMARK    1  A    between atoms: C_1  and  C_2
REMARK    2  A    between atoms: C_2  and  C_3
REMARK    3  A    between atoms: C_3  and  C_4
REMARK    4  A    between atoms: C_4  and  O_6
REMARK    5  A    between atoms: O_6  and  C_7
REMARK    6  A    between atoms: C_7  and  C_8
REMARK    7  A    between atoms: C_7  and  C_13
REMARK    8  A    between atoms: C_8  and  C_9
REMARK    9  A    between atoms: C_10  and  C_11
REMARK   10  A    between atoms: C_10  and  C_12
REMARK   11  A    between atoms: C_18  and  O_19
REMARK   12  A    between atoms: C_22  and  O_23
REMARK                            x       y       z     vdW  Elec       q    Type
REMARK                         _______ _______ _______ _____ _____    ______ ____
ROOT
ATOM      1  C   UNL     1       0.421   1.516   5.281  0.00  0.00    +0.000 C 
ATOM      2  C   UNL     1       1.606   1.240   5.844  0.00  0.00    +0.000 C 
ATOM      3  C   UNL     1       1.886   1.337   7.277  0.00  0.00    +0.000 C 
ATOM      4  O   UNL     1       3.029   1.190   7.699  0.00  0.00    +0.000 OA
ATOM      5  C   UNL     1       0.776   1.622   8.179  0.00  0.00    +0.000 A 
ATOM      6  C   UNL     1       1.011   1.672   9.560  0.00  0.00    +0.000 A 
ATOM      7  C   UNL     1      -0.036   1.889  10.441  0.00  0.00    +0.000 A 
ATOM      8  C   UNL     1      -1.331   2.042   9.943  0.00  0.00    +0.000 A 
ATOM      9  C   UNL     1      -1.561   2.011   8.563  0.00  0.00    +0.000 A 
ATOM     10  C   UNL     1      -0.506   1.829   7.657  0.00  0.00    +0.000 A 
ATOM     11  C   UNL     1      -0.707   1.915   6.178  0.00  0.00    +0.000 C 
ATOM     12  O   UNL     1      -1.742   2.359   5.701  0.00  0.00    +0.000 OA
ENDROOT
BRANCH   6  13
ATOM     13  O   UNL     1       2.250   1.526  10.123  0.00  0.00    +0.000 OA
ATOM     14  H   UNL     1       2.997   1.377   9.578  0.00  0.00    +0.000 HD
ENDBRANCH   6  13
BRANCH   9  15
ATOM     15  O   UNL     1      -2.846   2.137   8.118  0.00  0.00    +0.000 OA
ATOM     16  H   UNL     1      -3.544   2.259   8.731  0.00  0.00    +0.000 HD
ENDBRANCH   9  15
BRANCH   1  17
ATOM     17  C   UNL     1       0.233   1.567   3.753  0.00  0.00    +0.000 C 
BRANCH  17  18
ATOM     18  O   UNL     1      -1.127   1.464   3.263  0.00  0.00    +0.000 OA
BRANCH  18  19
ATOM     19  C   UNL     1      -1.854   0.343   3.445  0.00  0.00    +0.000 C 
ATOM     20  O   UNL     1      -1.425  -0.687   3.951  0.00  0.00    +0.000 OA
BRANCH  19  21
ATOM     21  C   UNL     1      -3.304   0.520   3.009  0.00  0.00    +0.000 C 
BRANCH  21  23
ATOM     22  C   UNL     1      -2.930   1.355   0.609  0.00  0.00    +0.000 C 
ATOM     23  C   UNL     1      -3.600   1.593   1.954  0.00  0.00    +0.000 C 
ENDBRANCH  21  23
ENDBRANCH  19  21
ENDBRANCH  18  19
ENDBRANCH  17  18
BRANCH  17  24
ATOM     24  C   UNL     1       1.213   0.637   2.994  0.00  0.00    +0.000 C 
BRANCH  24  25
ATOM     25  C   UNL     1       1.430   0.813   1.517  0.00  0.00    +0.000 C 
ATOM     26  C   UNL     1       2.270   1.719   0.975  0.00  0.00    +0.000 C 
ATOM     27  C   UNL     1       2.786   1.542  -0.426  0.00  0.00    +0.000 C 
ATOM     28  C   UNL     1       2.836   2.899   1.719  0.00  0.00    +0.000 C 
ENDBRANCH  24  25
ENDBRANCH  17  24
ENDBRANCH   1  17
TORSDOF 9
