REMARK  Name = 
REMARK  3 active torsions:
REMARK  status: ('A' for Active; 'I' for Inactive)
REMARK    1  A    between atoms: C_4  and  S_5
REMARK    2  A    between atoms: C_8  and  S_9
REMARK    3  A    between atoms: S_9  and  C_12
REMARK                            x       y       z     vdW  Elec       q    Type
REMARK                         _______ _______ _______ _____ _____    ______ ____
ROOT
ATOM      1  N   UNL     1       0.613   1.582  -1.009  0.00  0.00    +0.000 N 
ATOM      2  C   UNL     1       0.215   0.706  -1.994  0.00  0.00    +0.000 A 
ATOM      3  N   UNL     1       0.958   0.651  -3.094  0.00  0.00    +0.000 NA
ATOM      4  C   UNL     1       0.538  -0.185  -4.060  0.00  0.00    +0.000 A 
ATOM      5  C   UNL     1      -0.620  -0.965  -3.964  0.00  0.00    +0.000 A 
ATOM      6  C   UNL     1      -1.136  -1.822  -4.971  0.00  0.00    +0.000 A 
ATOM      7  C   UNL     1      -2.334  -2.505  -4.764  0.00  0.00    +0.000 A 
ATOM      8  C   UNL     1      -2.997  -2.399  -3.547  0.00  0.00    +0.000 A 
ATOM      9  C   UNL     1      -2.466  -1.569  -2.554  0.00  0.00    +0.000 A 
ATOM     10  C   UNL     1      -1.297  -0.836  -2.747  0.00  0.00    +0.000 A 
ATOM     11  N   UNL     1      -0.874  -0.029  -1.769  0.00  0.00    +0.000 NA
ATOM     12  H   UNL     1       1.413   2.141  -1.142  0.00  0.00    +0.000 HD
ATOM     13  H   UNL     1       0.099   1.650  -0.173  0.00  0.00    +0.000 HD
ENDROOT
BRANCH   7  14
ATOM     14  S   UNL     1      -2.981  -3.539  -6.057  0.00  0.00    +0.000 S 
ATOM     15  O   UNL     1      -1.844  -4.077  -6.781  0.00  0.00    +0.000 OA
ATOM     16  O   UNL     1      -3.945  -4.437  -5.446  0.00  0.00    +0.000 OA
BRANCH  14  17
ATOM     17  C   UNL     1      -3.868  -2.466  -7.162  0.00  0.00    +0.000 A 
ATOM     18  C   UNL     1      -3.189  -1.840  -8.208  0.00  0.00    +0.000 A 
ATOM     19  C   UNL     1      -3.903  -1.063  -9.122  0.00  0.00    +0.000 A 
ATOM     20  C   UNL     1      -5.297  -0.927  -9.015  0.00  0.00    +0.000 A 
ATOM     21  C   UNL     1      -6.034  -0.194  -9.959  0.00  0.00    +0.000 A 
ATOM     22  C   UNL     1      -7.423  -0.096  -9.860  0.00  0.00    +0.000 A 
ATOM     23  C   UNL     1      -8.091  -0.713  -8.807  0.00  0.00    +0.000 A 
ATOM     24  C   UNL     1      -7.373  -1.435  -7.852  0.00  0.00    +0.000 A 
ATOM     25  C   UNL     1      -5.978  -1.560  -7.948  0.00  0.00    +0.000 A 
ATOM     26  C   UNL     1      -5.252  -2.324  -7.021  0.00  0.00    +0.000 A 
ENDBRANCH  14  17
ENDBRANCH   7  14
BRANCH   4  27
ATOM     27  S   UNL     1       1.586  -0.186  -5.503  0.00  0.00    +0.000 S 
ATOM     28  H   UNL     1       2.628   0.665  -5.307  0.00  0.00    +0.000 HD
ENDBRANCH   4  27
TORSDOF 3
