REMARK  Name = 
REMARK  11 active torsions:
REMARK  status: ('A' for Active; 'I' for Inactive)
REMARK    1  A    between atoms: C_1  and  C_2
REMARK    2  A    between atoms: C_2  and  C_3
REMARK    3  A    between atoms: C_2  and  N_4
REMARK    4  A    between atoms: N_4  and  C_5
REMARK    5  A    between atoms: N_4  and  C_26
REMARK    6  A    between atoms: C_5  and  C_6
REMARK    7  A    between atoms: C_6  and  N_7
REMARK    8  A    between atoms: N_7  and  C_8
REMARK    9  A    between atoms: C_18  and  O_19
REMARK   10  A    between atoms: C_26  and  C_27
REMARK   11  A    between atoms: C_26  and  C_28
REMARK                            x       y       z     vdW  Elec       q    Type
REMARK                         _______ _______ _______ _____ _____    ______ ____
ROOT
ATOM      1  C   UNL     1      -3.339  -0.571   4.238  0.00  0.00    +0.000 A 
ATOM      2  C   UNL     1      -4.429  -1.451   4.232  0.00  0.00    +0.000 A 
ATOM      3  C   UNL     1      -5.770  -1.019   4.476  0.00  0.00    +0.000 A 
ATOM      4  C   UNL     1      -6.008   0.334   4.785  0.00  0.00    +0.000 A 
ATOM      5  N   UNL     1      -7.141   1.064   5.074  0.00  0.00    +0.000 NA
ATOM      6  C   UNL     1      -6.716   2.311   5.267  0.00  0.00    +0.000 A 
ATOM      7  N   UNL     1      -5.354   2.400   5.151  0.00  0.00    +0.000 N 
ATOM      8  C   UNL     1      -4.437   3.475   5.210  0.00  0.00    +0.000 A 
ATOM      9  C   UNL     1      -4.734   4.708   5.758  0.00  0.00    +0.000 A 
ATOM     10  C   UNL     1      -3.827   5.724   5.500  0.00  0.00    +0.000 A 
ATOM     11  C   UNL     1      -2.918   5.562   4.460  0.00  0.00    +0.000 A 
ATOM     12  C   UNL     1      -2.386   4.312   4.247  0.00  0.00    +0.000 A 
ATOM     13  C   UNL     1      -3.157   3.238   4.654  0.00  0.00    +0.000 A 
ATOM     14  C   UNL     1      -2.647   1.890   4.446  0.00  0.00    +0.000 A 
ATOM     15  O   UNL     1      -1.454   1.693   4.266  0.00  0.00    +0.000 OA
ATOM     16  C   UNL     1      -3.618   0.767   4.504  0.00  0.00    +0.000 A 
ATOM     17  C   UNL     1      -4.918   1.160   4.795  0.00  0.00    +0.000 A 
ENDROOT
BRANCH   1  18
ATOM     18  N   UNL     1      -2.016  -0.918   4.053  0.00  0.00    +0.000 N 
ATOM     19  H   UNL     1      -1.366  -0.263   4.396  0.00  0.00    +0.000 HD
BRANCH  18  20
ATOM     20  C   UNL     1      -1.433  -2.088   3.437  0.00  0.00    +0.000 C 
BRANCH  20  21
ATOM     21  C   UNL     1      -1.260  -2.014   1.894  0.00  0.00    +0.000 C 
BRANCH  21  22
ATOM     22  N   UNL     1      -0.724  -0.847   1.158  0.00  0.00    +0.000 N 
ATOM     23  H   UNL     1      -0.659  -1.291   0.241  0.00  0.00    +0.000 HD
BRANCH  22  25
ATOM     24  C   UNL     1       1.027   0.019   2.843  0.00  0.00    +0.000 C 
ATOM     25  C   UNL     1       0.680  -0.446   1.429  0.00  0.00    +0.000 C 
ATOM     26  C   UNL     1       1.691  -1.507   0.982  0.00  0.00    +0.000 C 
ENDBRANCH  22  25
BRANCH  22  27
ATOM     27  C   UNL     1      -1.641   0.292   0.914  0.00  0.00    +0.000 C 
ATOM     28  C   UNL     1      -1.296   1.027  -0.405  0.00  0.00    +0.000 C 
ATOM     29  C   UNL     1      -3.140  -0.044   0.777  0.00  0.00    +0.000 C 
ENDBRANCH  22  27
ENDBRANCH  21  22
ENDBRANCH  20  21
ENDBRANCH  18  20
ENDBRANCH   1  18
BRANCH  11  30
ATOM     30  O   UNL     1      -3.322   6.148   3.242  0.00  0.00    +0.000 OA
ATOM     31  H   UNL     1      -3.704   7.004   3.238  0.00  0.00    +0.000 HD
ENDBRANCH  11  30
TORSDOF 7
