REMARK  Name = 
REMARK  12 active torsions:
REMARK  status: ('A' for Active; 'I' for Inactive)
REMARK    1  A    between atoms: C_1  and  C_2
REMARK    2  A    between atoms: C_2  and  C_3
REMARK    3  A    between atoms: C_4  and  C_5
REMARK    4  A    between atoms: C_5  and  C_6
REMARK    5  A    between atoms: C_6  and  O_7
REMARK    6  A    between atoms: C_6  and  C_13
REMARK    7  A    between atoms: O_7  and  C_8
REMARK    8  A    between atoms: C_8  and  C_10
REMARK    9  A    between atoms: C_10  and  C_11
REMARK   10  A    between atoms: C_10  and  C_12
REMARK   11  A    between atoms: C_18  and  O_19
REMARK   12  A    between atoms: C_22  and  O_23
REMARK                            x       y       z     vdW  Elec       q    Type
REMARK                         _______ _______ _______ _____ _____    ______ ____
ROOT
ATOM      1  C   UNL     1       3.564  -2.178   3.419  0.00  0.00    +0.000 C 
ATOM      2  C   UNL     1       3.558  -3.083   4.406  0.00  0.00    +0.000 C 
ATOM      3  C   UNL     1       4.443  -4.230   4.473  0.00  0.00    +0.000 C 
ATOM      4  O   UNL     1       4.373  -5.002   5.429  0.00  0.00    +0.000 OA
ATOM      5  C   UNL     1       5.390  -4.435   3.394  0.00  0.00    +0.000 A 
ATOM      6  C   UNL     1       6.213  -5.569   3.434  0.00  0.00    +0.000 A 
ATOM      7  C   UNL     1       7.143  -5.795   2.433  0.00  0.00    +0.000 A 
ATOM      8  C   UNL     1       7.259  -4.881   1.387  0.00  0.00    +0.000 A 
ATOM      9  C   UNL     1       6.437  -3.747   1.345  0.00  0.00    +0.000 A 
ATOM     10  C   UNL     1       5.478  -3.511   2.344  0.00  0.00    +0.000 A 
ATOM     11  C   UNL     1       4.562  -2.327   2.318  0.00  0.00    +0.000 C 
ATOM     12  O   UNL     1       4.586  -1.487   1.429  0.00  0.00    +0.000 OA
ENDROOT
BRANCH   6  13
ATOM     13  O   UNL     1       6.160  -6.511   4.426  0.00  0.00    +0.000 OA
ATOM     14  H   UNL     1       5.550  -6.415   5.132  0.00  0.00    +0.000 HD
ENDBRANCH   6  13
BRANCH   9  15
ATOM     15  O   UNL     1       6.590  -2.879   0.302  0.00  0.00    +0.000 OA
ATOM     16  H   UNL     1       7.234  -3.048  -0.357  0.00  0.00    +0.000 HD
ENDBRANCH   9  15
BRANCH   1  17
ATOM     17  C   UNL     1       2.640  -0.964   3.370  0.00  0.00    +0.000 C 
BRANCH  17  18
ATOM     18  C   UNL     1       1.423  -1.182   2.439  0.00  0.00    +0.000 C 
BRANCH  18  22
ATOM     19  C   UNL     1       0.450   0.114  -0.151  0.00  0.00    +0.000 C 
ATOM     20  C   UNL     1       0.079   0.610   1.219  0.00  0.00    +0.000 C 
ATOM     21  C   UNL     1      -0.823   1.812   1.292  0.00  0.00    +0.000 C 
ATOM     22  C   UNL     1       0.508   0.017   2.351  0.00  0.00    +0.000 C 
ENDBRANCH  18  22
ENDBRANCH  17  18
BRANCH  17  23
ATOM     23  O   UNL     1       2.321  -0.541   4.730  0.00  0.00    +0.000 OA
BRANCH  23  24
ATOM     24  C   UNL     1       1.437  -1.239   5.483  0.00  0.00    +0.000 C 
ATOM     25  O   UNL     1       0.589  -2.009   5.052  0.00  0.00    +0.000 OA
BRANCH  24  26
ATOM     26  C   UNL     1       1.714  -1.101   6.968  0.00  0.00    +0.000 C 
ATOM     27  C   UNL     1       3.108  -0.569   7.303  0.00  0.00    +0.000 C 
ATOM     28  C   UNL     1       0.609  -0.270   7.588  0.00  0.00    +0.000 C 
ENDBRANCH  24  26
ENDBRANCH  23  24
ENDBRANCH  17  23
ENDBRANCH   1  17
TORSDOF 8
