REMARK  Name = 
REMARK  5 active torsions:
REMARK  status: ('A' for Active; 'I' for Inactive)
REMARK    1  A    between atoms: C_1  and  N_2
REMARK    2  A    between atoms: C_5  and  C_6
REMARK    3  A    between atoms: C_7  and  O_8
REMARK    4  A    between atoms: C_10  and  O_11
REMARK    5  A    between atoms: C_16  and  C_17
REMARK                            x       y       z     vdW  Elec       q    Type
REMARK                         _______ _______ _______ _____ _____    ______ ____
ROOT
ATOM      1  C   UNL     1       1.185  -5.484   0.173  0.00  0.00    +0.000 A 
ATOM      2  C   UNL     1       0.093  -6.314   0.483  0.00  0.00    +0.000 A 
ATOM      3  C   UNL     1       0.270  -7.672   0.744  0.00  0.00    +0.000 A 
ATOM      4  C   UNL     1       1.552  -8.221   0.695  0.00  0.00    +0.000 A 
ATOM      5  C   UNL     1       2.661  -7.425   0.370  0.00  0.00    +0.000 A 
ATOM      6  C   UNL     1       4.040  -7.968   0.298  0.00  0.00    +0.000 A 
ATOM      7  O   UNL     1       4.341  -9.129   0.542  0.00  0.00    +0.000 OA
ATOM      8  C   UNL     1       5.100  -7.019  -0.091  0.00  0.00    +0.000 A 
ATOM      9  C   UNL     1       4.780  -5.746  -0.324  0.00  0.00    +0.000 A 
ATOM     10  O   UNL     1       3.509  -5.218  -0.219  0.00  0.00    +0.000 OA
ATOM     11  C   UNL     1       2.473  -6.057   0.112  0.00  0.00    +0.000 A 
ENDROOT
BRANCH   1  16
ATOM     12  C   UNL     1      -0.333  -0.047  -0.470  0.00  0.00    +0.000 C 
ATOM     13  N   UNL     1       0.613  -1.169  -0.493  0.00  0.00    +0.000 N 
ATOM     14  C   UNL     1       0.778  -1.715   0.853  0.00  0.00    +0.000 C 
ATOM     15  C   UNL     1       1.054  -3.178   0.975  0.00  0.00    +0.000 C 
ATOM     16  C   UNL     1       0.983  -4.042  -0.047  0.00  0.00    +0.000 C 
ATOM     17  C   UNL     1       0.643  -3.593  -1.432  0.00  0.00    +0.000 C 
ATOM     18  C   UNL     1       0.255  -2.109  -1.561  0.00  0.00    +0.000 C 
ATOM     19  H   UNL     1       1.554  -0.865  -0.746  0.00  0.00    +0.000 HD
ENDBRANCH   1  16
BRANCH   9  20
ATOM     20  C   UNL     1       5.804  -4.767  -0.707  0.00  0.00    +0.000 A 
ATOM     21  C   UNL     1       6.458  -4.062   0.315  0.00  0.00    +0.000 A 
ATOM     22  C   UNL     1       7.445  -3.122   0.012  0.00  0.00    +0.000 A 
ATOM     23  C   UNL     1       7.789  -2.875  -1.315  0.00  0.00    +0.000 A 
ATOM     24  C   UNL     1       7.147  -3.567  -2.341  0.00  0.00    +0.000 A 
ATOM     25  C   UNL     1       6.156  -4.509  -2.042  0.00  0.00    +0.000 A 
ATOM     26 BR   UNL     1       5.329  -5.409  -3.498  0.00  0.00    +0.000 Br
ENDBRANCH   9  20
BRANCH   2  27
ATOM     27  O   UNL     1      -1.168  -5.778   0.526  0.00  0.00    +0.000 OA
ATOM     28  H   UNL     1      -1.296  -4.867   0.352  0.00  0.00    +0.000 HD
ENDBRANCH   2  27
BRANCH   4  29
ATOM     29  O   UNL     1       1.703  -9.552   0.967  0.00  0.00    +0.000 OA
ATOM     30  H   UNL     1       0.956 -10.074   1.183  0.00  0.00    +0.000 HD
ENDBRANCH   4  29
TORSDOF 4
