REMARK  Name = 
REMARK  7 active torsions:
REMARK  status: ('A' for Active; 'I' for Inactive)
REMARK    1  A    between atoms: C_1  and  C_2
REMARK    2  A    between atoms: C_2  and  N_3
REMARK    3  A    between atoms: N_3  and  C_4
REMARK    4  A    between atoms: C_4  and  C_5
REMARK    5  A    between atoms: N_8  and  C_9
REMARK    6  A    between atoms: C_16  and  C_17
REMARK    7  A    between atoms: N_21  and  C_22
REMARK                            x       y       z     vdW  Elec       q    Type
REMARK                         _______ _______ _______ _____ _____    ______ ____
ROOT
ATOM      1  C   UNL     1      -0.540  -7.091  -2.530  0.00  0.00    +0.000 A 
ATOM      2  C   UNL     1      -0.743  -7.205  -3.911  0.00  0.00    +0.000 A 
ATOM      3  F   UNL     1      -0.659  -6.129  -4.709  0.00  0.00    +0.000 F 
ATOM      4  C   UNL     1      -0.935  -8.434  -4.530  0.00  0.00    +0.000 A 
ATOM      5  C   UNL     1      -1.025  -9.596  -3.755  0.00  0.00    +0.000 A 
ATOM      6  C   UNL     1      -1.204 -10.892  -4.462  0.00  0.00    +0.000 A 
ATOM      7  O   UNL     1      -1.190 -10.916  -5.686  0.00  0.00    +0.000 OA
ATOM      8  C   UNL     1      -1.343 -12.099  -3.629  0.00  0.00    +0.000 A 
ATOM      9  C   UNL     1      -1.302 -11.938  -2.296  0.00  0.00    +0.000 A 
ATOM     10  N   UNL     1      -1.110 -10.755  -1.575  0.00  0.00    +0.000 N 
ATOM     11  C   UNL     1      -0.894  -9.559  -2.362  0.00  0.00    +0.000 A 
ATOM     12  C   UNL     1      -0.523  -8.311  -1.815  0.00  0.00    +0.000 A 
ATOM     13  F   UNL     1      -0.106  -8.264  -0.540  0.00  0.00    +0.000 F 
ENDROOT
BRANCH  10  14
ATOM     14  C   UNL     1      -1.219 -10.795  -0.131  0.00  0.00    +0.000 A 
ATOM     15  C   UNL     1      -0.736 -11.892   0.612  0.00  0.00    +0.000 A 
ATOM     16  C   UNL     1      -0.764 -11.899   2.013  0.00  0.00    +0.000 A 
ATOM     17  C   UNL     1      -1.243 -10.795   2.709  0.00  0.00    +0.000 A 
ATOM     18  C   UNL     1      -1.763  -9.718   2.005  0.00  0.00    +0.000 A 
ATOM     19  C   UNL     1      -1.799  -9.747   0.605  0.00  0.00    +0.000 A 
ENDBRANCH  10  14
BRANCH   1  23
ATOM     20  C   UNL     1       0.840  -4.210  -0.687  0.00  0.00    +0.000 C 
ATOM     21  C   UNL     1       0.235  -3.648  -1.981  0.00  0.00    +0.000 C 
ATOM     22  C   UNL     1      -0.903  -4.603  -2.308  0.00  0.00    +0.000 C 
ATOM     23  N   UNL     1      -0.368  -5.885  -1.883  0.00  0.00    +0.000 N 
ATOM     24  C   UNL     1       0.605  -5.727  -0.796  0.00  0.00    +0.000 C 
BRANCH  20  25
ATOM     25  C   UNL     1       0.199  -3.598   0.567  0.00  0.00    +0.000 C 
BRANCH  25  26
ATOM     26  N   UNL     1       0.844  -4.094   1.789  0.00  0.00    +0.000 N 
ATOM     27  H   UNL     1       0.722  -5.105   1.844  0.00  0.00    +0.000 HD
ATOM     28  H   UNL     1       1.836  -3.856   1.753  0.00  0.00    +0.000 HD
BRANCH  26  30
ATOM     29  C   UNL     1       0.910  -4.019   4.241  0.00  0.00    +0.000 C 
ATOM     30  C   UNL     1       0.258  -3.475   2.978  0.00  0.00    +0.000 C 
ENDBRANCH  26  30
ENDBRANCH  25  26
ENDBRANCH  20  25
ENDBRANCH   1  23
BRANCH   8  31
ATOM     31  C   UNL     1      -1.519 -13.467  -4.136  0.00  0.00    +0.000 C 
ATOM     32  O   UNL     1      -1.310 -14.490  -3.502  0.00  0.00    +0.000 OA
ATOM     33  O   UNL     1      -1.982 -13.530  -5.392  0.00  0.00    +0.000 OA
ENDBRANCH   8  31
TORSDOF 6
