REMARK  Name = 
REMARK  8 active torsions:
REMARK  status: ('A' for Active; 'I' for Inactive)
REMARK    1  A    between atoms: C_1  and  C_2
REMARK    2  A    between atoms: C_5  and  S_6
REMARK    3  A    between atoms: S_6  and  C_7
REMARK    4  A    between atoms: C_13  and  C_14
REMARK    5  A    between atoms: N_16  and  C_17
REMARK    6  A    between atoms: C_17  and  C_18
REMARK    7  A    between atoms: C_18  and  C_19
REMARK    8  A    between atoms: C_19  and  N_20
REMARK                            x       y       z     vdW  Elec       q    Type
REMARK                         _______ _______ _______ _____ _____    ______ ____
ROOT
ATOM      1  C   UNL     1      -4.146   1.548  -0.244  0.00  0.00    +0.000 A 
ATOM      2  C   UNL     1      -3.877   2.421  -1.290  0.00  0.00    +0.000 A 
ATOM      3  N   UNL     1      -4.211   3.728  -1.294  0.00  0.00    +0.000 NA
ATOM      4  C   UNL     1      -4.859   4.239  -0.221  0.00  0.00    +0.000 A 
ATOM      5  C   UNL     1      -5.212   3.411   0.851  0.00  0.00    +0.000 A 
ATOM      6  S   UNL     1      -6.059   3.859   2.288  0.00  0.00    +0.000 S 
ATOM      7  C   UNL     1      -6.122   2.257   2.862  0.00  0.00    +0.000 A 
ATOM      8  C   UNL     1      -5.406   1.413   2.033  0.00  0.00    +0.000 A 
ATOM      9  C   UNL     1      -4.885   2.052   0.857  0.00  0.00    +0.000 A 
ENDROOT
BRANCH   7  10
ATOM     10  C   UNL     1      -6.855   1.846   4.054  0.00  0.00    +0.000 C 
ATOM     11  O   UNL     1      -6.963   0.660   4.368  0.00  0.00    +0.000 OA
ATOM     12  N   UNL     1      -7.446   2.845   4.803  0.00  0.00    +0.000 N 
ATOM     13  H   UNL     1      -7.198   3.782   4.628  0.00  0.00    +0.000 HD
BRANCH  12  14
ATOM     14  C   UNL     1      -8.424   2.559   5.842  0.00  0.00    +0.000 C 
BRANCH  14  15
ATOM     15  C   UNL     1      -7.942   1.710   7.027  0.00  0.00    +0.000 C 
BRANCH  15  16
ATOM     16  C   UNL     1      -6.756   2.314   7.792  0.00  0.00    +0.000 C 
BRANCH  16  17
ATOM     17  N   UNL     1      -6.424   1.602   9.042  0.00  0.00    +0.000 N 
ATOM     18  C   UNL     1      -5.309   2.263   9.765  0.00  0.00    +0.000 C 
ATOM     19  C   UNL     1      -3.916   1.980   9.173  0.00  0.00    +0.000 C 
ATOM     20  O   UNL     1      -3.657   0.574   9.101  0.00  0.00    +0.000 OA
ATOM     21  C   UNL     1      -4.660  -0.079   8.312  0.00  0.00    +0.000 C 
ATOM     22  C   UNL     1      -6.068   0.174   8.876  0.00  0.00    +0.000 C 
ATOM     23  H   UNL     1      -7.292   1.642   9.577  0.00  0.00    +0.000 HD
ENDBRANCH  16  17
ENDBRANCH  15  16
ENDBRANCH  14  15
ENDBRANCH  12  14
ENDBRANCH   7  10
BRANCH   1  24
ATOM     24  S   UNL     1      -3.596  -0.129  -0.245  0.00  0.00    +0.000 S 
BRANCH  24  29
ATOM     25  C   UNL     1       2.107  -0.128   1.967  0.00  0.00    +0.000 C 
ATOM     26  C   UNL     1       0.692  -0.096   1.470  0.00  0.00    +0.000 A 
ATOM     27  C   UNL     1      -0.015   1.105   1.384  0.00  0.00    +0.000 A 
ATOM     28  C   UNL     1      -1.323   1.128   0.886  0.00  0.00    +0.000 A 
ATOM     29  C   UNL     1      -1.950  -0.050   0.460  0.00  0.00    +0.000 A 
ATOM     30  C   UNL     1      -1.245  -1.254   0.574  0.00  0.00    +0.000 A 
ATOM     31  C   UNL     1       0.062  -1.279   1.072  0.00  0.00    +0.000 A 
ENDBRANCH  24  29
ENDBRANCH   1  24
TORSDOF 7
