REMARK  Name = 
REMARK  4 active torsions:
REMARK  status: ('A' for Active; 'I' for Inactive)
REMARK    1  A    between atoms: C_1  and  C_2
REMARK    2  A    between atoms: C_2  and  N_3
REMARK    3  A    between atoms: N_3  and  C_4
REMARK    4  A    between atoms: C_14  and  C_16
REMARK                            x       y       z     vdW  Elec       q    Type
REMARK                         _______ _______ _______ _____ _____    ______ ____
ROOT
ATOM      1  C   UNL     1       0.696   0.845   4.925  0.00  0.00    +0.000 A 
ATOM      2  C   UNL     1      -0.453   0.160   5.336  0.00  0.00    +0.000 A 
ATOM      3  C   UNL     1      -1.684   0.433   4.752  0.00  0.00    +0.000 A 
ATOM      4  C   UNL     1      -1.739   1.400   3.772  0.00  0.00    +0.000 A 
ATOM      5  N   UNL     1      -0.662   2.084   3.333  0.00  0.00    +0.000 NA
ATOM      6  C   UNL     1       0.541   1.843   3.915  0.00  0.00    +0.000 A 
ATOM      7  N   UNL     1       1.630   2.513   3.390  0.00  0.00    +0.000 N 
ATOM      8  C   UNL     1       1.591   2.957   2.000  0.00  0.00    +0.000 C 
ATOM      9  C   UNL     1       2.931   2.564   1.349  0.00  0.00    +0.000 C 
ATOM     10  N   UNL     1       4.106   3.020   2.127  0.00  0.00    +0.000 N 
ATOM     11  C   UNL     1       5.286   3.568   1.609  0.00  0.00    +0.000 C 
ATOM     12  O   UNL     1       6.129   4.037   2.377  0.00  0.00    +0.000 OA
ATOM     13  C   UNL     1       4.036   2.739   3.573  0.00  0.00    +0.000 C 
ATOM     14  C   UNL     1       2.680   3.165   4.177  0.00  0.00    +0.000 C 
ENDROOT
BRANCH  11  15
ATOM     15  C   UNL     1       5.491   3.557   0.156  0.00  0.00    +0.000 A 
ATOM     16  C   UNL     1       5.083   2.649  -0.783  0.00  0.00    +0.000 A 
ATOM     17  C   UNL     1       5.415   3.009  -2.121  0.00  0.00    +0.000 A 
ATOM     18  C   UNL     1       5.087   2.372  -3.340  0.00  0.00    +0.000 A 
ATOM     19  C   UNL     1       5.554   2.887  -4.547  0.00  0.00    +0.000 A 
ATOM     20  C   UNL     1       6.355   4.025  -4.557  0.00  0.00    +0.000 A 
ATOM     21  C   UNL     1       6.687   4.680  -3.365  0.00  0.00    +0.000 A 
ATOM     22  C   UNL     1       6.196   4.164  -2.150  0.00  0.00    +0.000 A 
ATOM     23  S   UNL     1       6.442   4.786  -0.564  0.00  0.00    +0.000 S 
ENDBRANCH  11  15
BRANCH   1  24
ATOM     24  N   UNL     1       1.943   0.627   5.542  0.00  0.00    +0.000 N 
ATOM     25  H   UNL     1       2.593   1.366   5.582  0.00  0.00    +0.000 HD
BRANCH  24  27
ATOM     26  C   UNL     1       3.713  -0.546   6.674  0.00  0.00    +0.000 C 
ATOM     27  C   UNL     1       2.297  -0.656   6.121  0.00  0.00    +0.000 C 
ENDBRANCH  24  27
ENDBRANCH   1  24
TORSDOF 3
