REMARK  Name = 
REMARK  9 active torsions:
REMARK  status: ('A' for Active; 'I' for Inactive)
REMARK    1  A    between atoms: C_1  and  C_2
REMARK    2  A    between atoms: C_2  and  C_3
REMARK    3  A    between atoms: C_3  and  C_4
REMARK    4  A    between atoms: C_16  and  C_17
REMARK    5  A    between atoms: C_16  and  C_18
REMARK    6  A    between atoms: C_22  and  C_23
REMARK    7  A    between atoms: C_23  and  C_24
REMARK    8  A    between atoms: C_25  and  C_26
REMARK    9  A    between atoms: C_27  and  O_28
REMARK                            x       y       z     vdW  Elec       q    Type
REMARK                         _______ _______ _______ _____ _____    ______ ____
ROOT
ATOM      1  C   UNL     1       0.412   1.050  -1.402  0.00  0.00    +0.000 A 
ATOM      2  C   UNL     1      -0.159   0.546  -0.284  0.00  0.00    +0.000 A 
ATOM      3  C   UNL     1      -1.183  -0.500  -0.321  0.00  0.00    +0.000 A 
ATOM      4  O   UNL     1      -1.955  -0.684   0.602  0.00  0.00    +0.000 OA
ATOM      5  O   UNL     1      -1.241  -1.223  -1.478  0.00  0.00    +0.000 OA
ATOM      6  C   UNL     1      -0.128  -1.068  -2.289  0.00  0.00    +0.000 A 
ATOM      7  C   UNL     1       0.517  -2.218  -2.653  0.00  0.00    +0.000 A 
ATOM      8  C   UNL     1       1.178  -2.217  -3.859  0.00  0.00    +0.000 A 
ATOM      9  C   UNL     1       1.378  -0.988  -4.520  0.00  0.00    +0.000 A 
ATOM     10  C   UNL     1       1.103   0.234  -3.842  0.00  0.00    +0.000 A 
ATOM     11  C   UNL     1       0.389   0.177  -2.624  0.00  0.00    +0.000 A 
ATOM     12  O   UNL     1       1.487   1.448  -4.370  0.00  0.00    +0.000 OA
ATOM     13  C   UNL     1       2.282   1.469  -5.594  0.00  0.00    +0.000 C 
ATOM     14  C   UNL     1       1.747   2.588  -6.503  0.00  0.00    +0.000 C 
ATOM     15  C   UNL     1       3.737   1.784  -5.220  0.00  0.00    +0.000 C 
ATOM     16  C   UNL     1       2.285   0.189  -6.392  0.00  0.00    +0.000 C 
ATOM     17  C   UNL     1       1.894  -0.975  -5.879  0.00  0.00    +0.000 C 
ATOM     18  O   UNL     1       1.591  -3.394  -4.424  0.00  0.00    +0.000 OA
ATOM     19  C   UNL     1       1.609  -4.578  -3.591  0.00  0.00    +0.000 C 
ATOM     20  C   UNL     1       0.551  -4.634  -2.468  0.00  0.00    +0.000 C 
ATOM     21  C   UNL     1      -0.900  -4.826  -2.931  0.00  0.00    +0.000 C 
ATOM     22  C   UNL     1       0.699  -3.360  -1.694  0.00  0.00    +0.000 C 
ENDROOT
BRANCH  19  23
ATOM     23  C   UNL     1       1.474  -5.805  -4.497  0.00  0.00    +0.000 C 
ATOM     24  C   UNL     1       2.677  -5.992  -5.403  0.00  0.00    +0.000 C 
ENDBRANCH  19  23
BRANCH  22  25
ATOM     25  O   UNL     1      -0.114  -3.369  -0.533  0.00  0.00    +0.000 OA
ATOM     26  H   UNL     1      -1.043  -3.473  -0.789  0.00  0.00    +0.000 HD
ENDBRANCH  22  25
BRANCH   1  27
ATOM     27  C   UNL     1       1.279   2.250  -1.210  0.00  0.00    +0.000 C 
BRANCH  27  29
ATOM     28  C   UNL     1       1.193   4.724  -0.659  0.00  0.00    +0.000 C 
ATOM     29  C   UNL     1       0.456   3.542  -1.280  0.00  0.00    +0.000 C 
ENDBRANCH  27  29
ENDBRANCH   1  27
TORSDOF 4
