REMARK  Name = 
REMARK  10 active torsions:
REMARK  status: ('A' for Active; 'I' for Inactive)
REMARK    1  A    between atoms: C_1  and  O_2
REMARK    2  A    between atoms: O_2  and  C_3
REMARK    3  A    between atoms: C_3  and  C_5
REMARK    4  A    between atoms: C_8  and  O_9
REMARK    5  A    between atoms: O_9  and  C_10
REMARK    6  A    between atoms: C_10  and  C_11
REMARK    7  A    between atoms: C_11  and  C_12
REMARK    8  A    between atoms: C_12  and  O_13
REMARK    9  A    between atoms: O_13  and  C_14
REMARK   10  A    between atoms: C_19  and  O_20
REMARK                            x       y       z     vdW  Elec       q    Type
REMARK                         _______ _______ _______ _____ _____    ______ ____
ROOT
ATOM      1  C   UNL     1      -2.580   6.766   3.123  0.00  0.00    +0.000 C 
ENDROOT
BRANCH   1   2
ATOM      2  C   UNL     1      -1.878   6.433   4.448  0.00  0.00    +0.000 C 
BRANCH   2   3
ATOM      3  O   UNL     1      -0.615   5.769   4.301  0.00  0.00    +0.000 OA
BRANCH   3   7
ATOM      4  C   UNL     1       1.413   4.551   7.793  0.00  0.00    +0.000 A 
ATOM      5  C   UNL     1       0.262   5.342   7.906  0.00  0.00    +0.000 A 
ATOM      6  C   UNL     1      -0.413   5.790   6.764  0.00  0.00    +0.000 A 
ATOM      7  C   UNL     1       0.029   5.448   5.482  0.00  0.00    +0.000 A 
ATOM      8  C   UNL     1       1.210   4.706   5.369  0.00  0.00    +0.000 A 
ATOM      9  C   UNL     1       1.901   4.253   6.517  0.00  0.00    +0.000 A 
BRANCH   4  10
ATOM     10  C   UNL     1       2.027   4.038   9.055  0.00  0.00    +0.000 C 
ATOM     11  O   UNL     1       1.580   4.290  10.164  0.00  0.00    +0.000 OA
BRANCH  10  13
ATOM     12  C   UNL     1       3.700   2.679   9.964  0.00  0.00    +0.000 C 
ATOM     13  O   UNL     1       3.105   3.253   8.797  0.00  0.00    +0.000 OA
ENDBRANCH  10  13
ENDBRANCH   4  10
ENDBRANCH   3   7
ENDBRANCH   2   3
ENDBRANCH   1   2
BRANCH   1  14
ATOM     14  C   UNL     1      -3.043   5.575   2.285  0.00  0.00    +0.000 C 
BRANCH  14  15
ATOM     15  O   UNL     1      -3.825   6.036   1.159  0.00  0.00    +0.000 OA
BRANCH  15  16
ATOM     16  C   UNL     1      -5.198   5.975   1.231  0.00  0.00    +0.000 A 
ATOM     17  C   UNL     1      -5.939   5.806   2.400  0.00  0.00    +0.000 A 
ATOM     18  C   UNL     1      -7.320   5.785   2.295  0.00  0.00    +0.000 A 
ATOM     19  C   UNL     1      -7.988   5.870   1.081  0.00  0.00    +0.000 A 
ATOM     20  C   UNL     1      -7.285   6.060  -0.092  0.00  0.00    +0.000 A 
ATOM     21  C   UNL     1      -5.893   6.138   0.006  0.00  0.00    +0.000 A 
ATOM     22  C   UNL     1      -9.440   5.706   1.326  0.00  0.00    +0.000 C 
ATOM     23  C   UNL     1      -9.435   6.136   2.791  0.00  0.00    +0.000 C 
ATOM     24  O   UNL     1      -8.177   5.705   3.370  0.00  0.00    +0.000 OA
BRANCH  21  25
ATOM     25  O   UNL     1      -5.204   6.397  -1.152  0.00  0.00    +0.000 OA
ATOM     26  H   UNL     1      -5.668   6.504  -1.959  0.00  0.00    +0.000 HD
ENDBRANCH  21  25
ENDBRANCH  15  16
ENDBRANCH  14  15
ENDBRANCH   1  14
TORSDOF 9
