REMARK  Name = 
REMARK  10 active torsions:
REMARK  status: ('A' for Active; 'I' for Inactive)
REMARK    1  A    between atoms: C_1  and  C_2
REMARK    2  A    between atoms: C_2  and  C_3
REMARK    3  A    between atoms: C_3  and  C_4
REMARK    4  A    between atoms: C_4  and  C_5
REMARK    5  A    between atoms: C_5  and  C_15
REMARK    6  A    between atoms: C_6  and  C_7
REMARK    7  A    between atoms: C_7  and  N_8
REMARK    8  A    between atoms: C_19  and  O_20
REMARK    9  A    between atoms: O_20  and  C_21
REMARK   10  A    between atoms: C_24  and  C_25
REMARK                            x       y       z     vdW  Elec       q    Type
REMARK                         _______ _______ _______ _____ _____    ______ ____
ROOT
ATOM      1  C   UNL     1      -1.054  -2.048  -1.777  0.00  0.00    +0.000 C 
ATOM      2  C   UNL     1      -1.726  -2.995  -2.471  0.00  0.00    +0.000 C 
ENDROOT
BRANCH   1   3
ATOM      3  C   UNL     1      -1.864  -1.007  -1.052  0.00  0.00    +0.000 A 
ATOM      4  C   UNL     1      -1.491  -0.542   0.223  0.00  0.00    +0.000 A 
ATOM      5  C   UNL     1      -2.320   0.308   0.966  0.00  0.00    +0.000 A 
ATOM      6  C   UNL     1      -3.528   0.744   0.436  0.00  0.00    +0.000 A 
ATOM      7  C   UNL     1      -3.845   0.432  -0.885  0.00  0.00    +0.000 A 
ATOM      8  C   UNL     1      -3.055  -0.481  -1.597  0.00  0.00    +0.000 A 
BRANCH   7   9
ATOM      9  O   UNL     1      -4.919   0.995  -1.548  0.00  0.00    +0.000 OA
BRANCH   9  10
ATOM     10  C   UNL     1      -5.210   2.326  -1.309  0.00  0.00    +0.000 A 
ATOM     11  C   UNL     1      -4.259   3.283  -0.935  0.00  0.00    +0.000 A 
ATOM     12  C   UNL     1      -4.655   4.569  -0.568  0.00  0.00    +0.000 A 
ATOM     13  C   UNL     1      -5.998   4.942  -0.647  0.00  0.00    +0.000 A 
ATOM     14  C   UNL     1      -6.437   6.314  -0.231  0.00  0.00    +0.000 C 
ATOM     15  C   UNL     1      -6.933   4.017  -1.133  0.00  0.00    +0.000 A 
ATOM     16  C   UNL     1      -6.542   2.713  -1.458  0.00  0.00    +0.000 A 
ENDBRANCH   9  10
ENDBRANCH   7   9
ENDBRANCH   1   3
BRANCH   1  17
ATOM     17  C   UNL     1       0.450  -2.125  -1.539  0.00  0.00    +0.000 C 
BRANCH  17  18
ATOM     18  C   UNL     1       1.377  -2.090  -2.769  0.00  0.00    +0.000 C 
BRANCH  18  20
ATOM     19  C   UNL     1       2.199  -0.882  -4.812  0.00  0.00    +0.000 C 
ATOM     20  C   UNL     1       1.272  -0.817  -3.603  0.00  0.00    +0.000 C 
ENDBRANCH  18  20
ENDBRANCH  17  18
ENDBRANCH   1  17
BRANCH   2  21
ATOM     21  C   UNL     1      -1.199  -4.243  -3.120  0.00  0.00    +0.000 C 
BRANCH  21  22
ATOM     22  N   UNL     1      -1.765  -5.372  -2.417  0.00  0.00    +0.000 N 
ATOM     23  O   UNL     1      -3.179  -5.544  -2.585  0.00  0.00    +0.000 OA
ATOM     24  C   UNL     1      -3.418  -6.893  -2.455  0.00  0.00    +0.000 A 
ATOM     25  O   UNL     1      -4.511  -7.415  -2.553  0.00  0.00    +0.000 OA
ATOM     26  N   UNL     1      -2.250  -7.533  -2.264  0.00  0.00    +0.000 N 
ATOM     27  C   UNL     1      -1.237  -6.655  -2.455  0.00  0.00    +0.000 A 
ATOM     28  O   UNL     1      -0.080  -6.968  -2.679  0.00  0.00    +0.000 OA
ATOM     29  H   UNL     1      -2.148  -8.482  -2.026  0.00  0.00    +0.000 HD
ENDBRANCH  21  22
ENDBRANCH   2  21
TORSDOF 8
