REMARK  Name = 
REMARK  7 active torsions:
REMARK  status: ('A' for Active; 'I' for Inactive)
REMARK    1  A    between atoms: C_1  and  C_2
REMARK    2  A    between atoms: C_2  and  C_3
REMARK    3  A    between atoms: C_3  and  C_4
REMARK    4  A    between atoms: C_16  and  C_17
REMARK    5  A    between atoms: C_16  and  C_18
REMARK    6  A    between atoms: C_23  and  C_24
REMARK    7  A    between atoms: C_25  and  O_26
REMARK                            x       y       z     vdW  Elec       q    Type
REMARK                         _______ _______ _______ _____ _____    ______ ____
ROOT
ATOM      1  C   UNL     1       0.333  -0.121   1.722  0.00  0.00    +0.000 A 
ATOM      2  C   UNL     1      -0.325  -0.115   0.542  0.00  0.00    +0.000 A 
ATOM      3  C   UNL     1      -1.237   0.947   0.140  0.00  0.00    +0.000 A 
ATOM      4  O   UNL     1      -2.017   0.810  -0.798  0.00  0.00    +0.000 OA
ATOM      5  O   UNL     1      -1.174   2.089   0.878  0.00  0.00    +0.000 OA
ATOM      6  C   UNL     1      -0.059   2.212   1.709  0.00  0.00    +0.000 A 
ATOM      7  C   UNL     1       0.630   3.399   1.638  0.00  0.00    +0.000 A 
ATOM      8  C   UNL     1       1.390   3.772   2.733  0.00  0.00    +0.000 A 
ATOM      9  C   UNL     1       1.562   2.862   3.791  0.00  0.00    +0.000 A 
ATOM     10  C   UNL     1       1.174   1.509   3.624  0.00  0.00    +0.000 A 
ATOM     11  C   UNL     1       0.412   1.157   2.486  0.00  0.00    +0.000 A 
ATOM     12  O   UNL     1       1.495   0.548   4.560  0.00  0.00    +0.000 OA
ATOM     13  C   UNL     1       2.383   0.905   5.661  0.00  0.00    +0.000 C 
ATOM     14  C   UNL     1       1.846   0.268   6.953  0.00  0.00    +0.000 C 
ATOM     15  C   UNL     1       3.773   0.332   5.357  0.00  0.00    +0.000 C 
ATOM     16  C   UNL     1       2.547   2.376   5.914  0.00  0.00    +0.000 C 
ATOM     17  C   UNL     1       2.184   3.302   5.030  0.00  0.00    +0.000 C 
ATOM     18  O   UNL     1       1.944   5.024   2.817  0.00  0.00    +0.000 OA
ATOM     19  C   UNL     1       2.103   5.738   1.581  0.00  0.00    +0.000 C 
ATOM     20  C   UNL     1       0.957   5.587   0.582  0.00  0.00    +0.000 C 
ATOM     21  C   UNL     1      -0.365   6.196   1.062  0.00  0.00    +0.000 C 
ATOM     22  C   UNL     1       0.803   4.107   0.323  0.00  0.00    +0.000 C 
ENDROOT
BRANCH  22  23
ATOM     23  O   UNL     1      -0.191   3.893  -0.672  0.00  0.00    +0.000 OA
ATOM     24  H   UNL     1      -1.034   4.266  -0.371  0.00  0.00    +0.000 HD
ENDBRANCH  22  23
BRANCH   1  25
ATOM     25  C   UNL     1       1.197  -1.315   1.995  0.00  0.00    +0.000 C 
BRANCH  25  27
ATOM     26  C   UNL     1       1.208  -3.719   2.748  0.00  0.00    +0.000 C 
ATOM     27  C   UNL     1       0.440  -2.403   2.755  0.00  0.00    +0.000 C 
ENDBRANCH  25  27
ENDBRANCH   1  25
TORSDOF 3
