REMARK  Name = 
REMARK  3 active torsions:
REMARK  status: ('A' for Active; 'I' for Inactive)
REMARK    1  A    between atoms: C_4  and  N_5
REMARK    2  A    between atoms: C_8  and  S_9
REMARK    3  A    between atoms: S_9  and  C_12
REMARK                            x       y       z     vdW  Elec       q    Type
REMARK                         _______ _______ _______ _____ _____    ______ ____
ROOT
ATOM      1  N   UNL     1       1.038   0.081  -0.106  0.00  0.00    +0.000 N 
ATOM      2  C   UNL     1       0.384  -0.781  -0.962  0.00  0.00    +0.000 A 
ATOM      3  N   UNL     1       0.789  -2.049  -0.965  0.00  0.00    +0.000 NA
ATOM      4  C   UNL     1       0.190  -2.870  -1.836  0.00  0.00    +0.000 A 
ATOM      5  C   UNL     1      -0.803  -2.443  -2.720  0.00  0.00    +0.000 A 
ATOM      6  C   UNL     1      -1.407  -3.260  -3.702  0.00  0.00    +0.000 A 
ATOM      7  C   UNL     1      -2.340  -2.719  -4.584  0.00  0.00    +0.000 A 
ATOM      8  C   UNL     1      -2.708  -1.380  -4.479  0.00  0.00    +0.000 A 
ATOM      9  C   UNL     1      -2.133  -0.596  -3.473  0.00  0.00    +0.000 A 
ATOM     10  C   UNL     1      -1.169  -1.099  -2.602  0.00  0.00    +0.000 A 
ATOM     11  N   UNL     1      -0.598  -0.280  -1.710  0.00  0.00    +0.000 NA
ATOM     12  H   UNL     1       1.769  -0.250   0.464  0.00  0.00    +0.000 HD
ATOM     13  H   UNL     1       0.772   1.029  -0.064  0.00  0.00    +0.000 HD
ENDROOT
BRANCH   4  14
ATOM     14  N   UNL     1       0.591  -4.208  -1.778  0.00  0.00    +0.000 N 
ATOM     15  H   UNL     1       1.293  -4.484  -1.146  0.00  0.00    +0.000 HD
ATOM     16  H   UNL     1       0.171  -4.874  -2.369  0.00  0.00    +0.000 HD
ENDBRANCH   4  14
BRANCH   7  17
ATOM     17  S   UNL     1      -2.934  -3.726  -5.918  0.00  0.00    +0.000 S 
ATOM     18  O   UNL     1      -3.225  -2.843  -7.031  0.00  0.00    +0.000 OA
ATOM     19  O   UNL     1      -1.995  -4.821  -6.084  0.00  0.00    +0.000 OA
BRANCH  17  20
ATOM     20  C   UNL     1      -4.472  -4.443  -5.389  0.00  0.00    +0.000 A 
ATOM     21  C   UNL     1      -4.467  -5.677  -4.732  0.00  0.00    +0.000 A 
ATOM     22  C   UNL     1      -5.679  -6.313  -4.462  0.00  0.00    +0.000 A 
ATOM     23  C   UNL     1      -6.888  -5.723  -4.850  0.00  0.00    +0.000 A 
ATOM     24 CL   UNL     1      -8.343  -6.604  -4.551  0.00  0.00    +0.000 Cl
ATOM     25  C   UNL     1      -6.884  -4.472  -5.482  0.00  0.00    +0.000 A 
ATOM     26 CL   UNL     1      -8.337  -3.680  -5.977  0.00  0.00    +0.000 Cl
ATOM     27  C   UNL     1      -5.673  -3.828  -5.752  0.00  0.00    +0.000 A 
ENDBRANCH  17  20
ENDBRANCH   7  17
TORSDOF 3
