REMARK  Name = 
REMARK  17 active torsions:
REMARK  status: ('A' for Active; 'I' for Inactive)
REMARK    1  A    between atoms: C_1  and  O_2
REMARK    2  A    between atoms: O_2  and  C_3
REMARK    3  A    between atoms: C_3  and  C_5
REMARK    4  A    between atoms: C_5  and  C_6
REMARK    5  A    between atoms: C_6  and  C_7
REMARK    6  A    between atoms: C_8  and  C_9
REMARK    7  A    between atoms: C_9  and  C_10
REMARK    8  A    between atoms: C_10  and  C_11
REMARK    9  A    between atoms: C_15  and  O_16
REMARK   10  A    between atoms: C_17  and  C_18
REMARK   11  A    between atoms: C_19  and  C_20
REMARK   12  A    between atoms: C_20  and  C_21
REMARK   13  A    between atoms: C_21  and  C_22
REMARK   14  A    between atoms: C_21  and  O_23
REMARK   15  A    between atoms: C_21  and  C_24
REMARK   16  A    between atoms: C_24  and  C_25
REMARK   17  A    between atoms: C_25  and  C_26
REMARK                            x       y       z     vdW  Elec       q    Type
REMARK                         _______ _______ _______ _____ _____    ______ ____
ROOT
ATOM      1  C   UNL     1       2.425  -8.890   0.942  0.00  0.00    +0.000 C 
ATOM      2  C   UNL     1       2.043 -10.236   1.514  0.00  0.00    +0.000 C 
ATOM      3  O   UNL     1       2.817 -11.183   1.594  0.00  0.00    +0.000 OA
ATOM      4  C   UNL     1       0.604 -10.320   1.949  0.00  0.00    +0.000 C 
ATOM      5  C   UNL     1       0.104  -8.900   1.709  0.00  0.00    +0.000 C 
ATOM      6  C   UNL     1       1.026  -8.315   0.617  0.00  0.00    +0.000 C 
ENDROOT
BRANCH   5   7
ATOM      7  O   UNL     1       0.199  -8.129   2.903  0.00  0.00    +0.000 OA
ATOM      8  H   UNL     1       1.120  -8.115   3.206  0.00  0.00    +0.000 HD
ENDBRANCH   5   7
BRANCH   6   9
ATOM      9  C   UNL     1       0.510  -8.746  -0.746  0.00  0.00    +0.000 C 
ATOM     10  C   UNL     1       0.072  -7.887  -1.678  0.00  0.00    +0.000 C 
BRANCH  10  11
ATOM     11  C   UNL     1      -0.678  -8.303  -2.923  0.00  0.00    +0.000 C 
BRANCH  11  12
ATOM     12  C   UNL     1      -2.105  -7.675  -3.018  0.00  0.00    +0.000 C 
ATOM     13  C   UNL     1      -2.797  -8.156  -4.307  0.00  0.00    +0.000 C 
BRANCH  12  14
ATOM     14  O   UNL     1      -1.966  -6.248  -3.106  0.00  0.00    +0.000 OA
ATOM     15  H   UNL     1      -2.844  -5.841  -3.166  0.00  0.00    +0.000 HD
ENDBRANCH  12  14
BRANCH  12  16
ATOM     16  C   UNL     1      -2.936  -7.999  -1.745  0.00  0.00    +0.000 C 
BRANCH  16  17
ATOM     17  C   UNL     1      -4.299  -7.295  -1.643  0.00  0.00    +0.000 C 
BRANCH  17  18
ATOM     18  C   UNL     1      -5.074  -7.615  -0.333  0.00  0.00    +0.000 C 
ATOM     19  C   UNL     1      -6.419  -6.865  -0.357  0.00  0.00    +0.000 C 
ATOM     20  C   UNL     1      -7.142  -6.893   0.983  0.00  0.00    +0.000 C 
ATOM     21  C   UNL     1      -6.262  -6.287   2.063  0.00  0.00    +0.000 C 
ATOM     22  C   UNL     1      -4.993  -7.108   2.229  0.00  0.00    +0.000 C 
ATOM     23  C   UNL     1      -4.227  -7.310   0.922  0.00  0.00    +0.000 C 
ENDBRANCH  17  18
ENDBRANCH  16  17
ENDBRANCH  12  16
ENDBRANCH  11  12
ENDBRANCH  10  11
ENDBRANCH   6   9
BRANCH   1  24
ATOM     24  C   UNL     1       3.188  -8.045   1.978  0.00  0.00    +0.000 C 
BRANCH  24  25
ATOM     25  C   UNL     1       4.552  -8.628   2.382  0.00  0.00    +0.000 C 
BRANCH  25  27
ATOM     26  C   UNL     1       6.091  -8.169   4.362  0.00  0.00    +0.000 C 
ATOM     27  C   UNL     1       5.224  -7.764   3.418  0.00  0.00    +0.000 C 
BRANCH  26  28
ATOM     28  C   UNL     1       6.634  -9.558   4.567  0.00  0.00    +0.000 C 
BRANCH  28  29
ATOM     29  C   UNL     1       7.553  -9.992   3.429  0.00  0.00    +0.000 C 
BRANCH  29  30
ATOM     30  C   UNL     1       8.209 -11.329   3.698  0.00  0.00    +0.000 C 
ATOM     31  O   UNL     1       8.050 -12.010   4.702  0.00  0.00    +0.000 OA
BRANCH  30  33
ATOM     32  C   UNL     1       9.673 -12.903   2.769  0.00  0.00    +0.000 C 
ATOM     33  O   UNL     1       9.009 -11.645   2.646  0.00  0.00    +0.000 OA
ENDBRANCH  30  33
ENDBRANCH  29  30
ENDBRANCH  28  29
ENDBRANCH  26  28
ENDBRANCH  25  27
ENDBRANCH  24  25
ENDBRANCH   1  24
TORSDOF 15
