REMARK  Name = 
REMARK  6 active torsions:
REMARK  status: ('A' for Active; 'I' for Inactive)
REMARK    1  A    between atoms: C_1  and  C_2
REMARK    2  A    between atoms: C_2  and  C_3
REMARK    3  A    between atoms: N_10  and  C_11
REMARK    4  A    between atoms: C_15  and  O_16
REMARK    5  A    between atoms: O_16  and  C_17
REMARK    6  A    between atoms: C_17  and  C_18
REMARK                            x       y       z     vdW  Elec       q    Type
REMARK                         _______ _______ _______ _____ _____    ______ ____
ROOT
ATOM      1  C   UNL     1       0.115   0.366  -0.889  0.00  0.00    +0.000 C 
ATOM      2  C   UNL     1       0.051  -0.955  -1.688  0.00  0.00    +0.000 C 
ATOM      3  C   UNL     1      -1.051  -0.885  -2.771  0.00  0.00    +0.000 C 
ATOM      4  N   UNL     1       1.259  -0.934  -2.519  0.00  0.00    +0.000 N 
ATOM      5  C   UNL     1       2.108  -1.880  -2.417  0.00  0.00    +0.000 C 
ATOM      6  N   UNL     1       3.183  -1.882  -3.245  0.00  0.00    +0.000 N 
ATOM      7  N   UNL     1       2.003  -2.923  -1.568  0.00  0.00    +0.000 N 
ATOM      8  C   UNL     1       0.968  -3.000  -0.804  0.00  0.00    +0.000 C 
ATOM      9  N   UNL     1       0.957  -4.104  -0.009  0.00  0.00    +0.000 N 
ATOM     10  N   UNL     1      -0.100  -2.119  -0.765  0.00  0.00    +0.000 N 
ATOM     11  H   UNL     1       1.413  -0.196  -3.152  0.00  0.00    +0.000 HD
ATOM     12  H   UNL     1       3.312  -1.146  -3.886  0.00  0.00    +0.000 HD
ATOM     13  H   UNL     1       3.834  -2.620  -3.204  0.00  0.00    +0.000 HD
ATOM     14  H   UNL     1       2.705  -3.613  -1.533  0.00  0.00    +0.000 HD
ATOM     15  H   UNL     1       1.713  -4.735  -0.032  0.00  0.00    +0.000 HD
ATOM     16  H   UNL     1       0.194  -4.273   0.589  0.00  0.00    +0.000 HD
ENDROOT
BRANCH  10  17
ATOM     17  C   UNL     1      -1.201  -2.216   0.145  0.00  0.00    +0.000 A 
ATOM     18  C   UNL     1      -2.506  -1.829  -0.187  0.00  0.00    +0.000 A 
ATOM     19  C   UNL     1      -3.606  -2.044   0.654  0.00  0.00    +0.000 A 
ATOM     20  C   UNL     1      -3.447  -2.706   1.861  0.00  0.00    +0.000 A 
ATOM     21  C   UNL     1      -2.175  -3.097   2.254  0.00  0.00    +0.000 A 
ATOM     22  C   UNL     1      -1.071  -2.791   1.435  0.00  0.00    +0.000 A 
BRANCH  21  23
ATOM     23  O   UNL     1      -1.896  -3.765   3.421  0.00  0.00    +0.000 OA
BRANCH  23  24
ATOM     24  C   UNL     1      -2.939  -4.625   3.897  0.00  0.00    +0.000 C 
BRANCH  24  25
ATOM     25  C   UNL     1      -2.541  -5.323   5.181  0.00  0.00    +0.000 A 
ATOM     26  C   UNL     1      -3.123  -6.557   5.510  0.00  0.00    +0.000 A 
ATOM     27  C   UNL     1      -2.837  -7.177   6.730  0.00  0.00    +0.000 A 
ATOM     28  C   UNL     1      -1.974  -6.568   7.644  0.00  0.00    +0.000 A 
ATOM     29 CL   UNL     1      -1.676  -7.386   9.136  0.00  0.00    +0.000 Cl
ATOM     30  C   UNL     1      -1.398  -5.332   7.335  0.00  0.00    +0.000 A 
ATOM     31 CL   UNL     1      -0.342  -4.505   8.425  0.00  0.00    +0.000 Cl
ATOM     32  C   UNL     1      -1.684  -4.714   6.111  0.00  0.00    +0.000 A 
ENDBRANCH  24  25
ENDBRANCH  23  24
ENDBRANCH  21  23
ENDBRANCH  10  17
TORSDOF 4
