REMARK  Name = 
REMARK  7 active torsions:
REMARK  status: ('A' for Active; 'I' for Inactive)
REMARK    1  A    between atoms: C_1  and  C_2
REMARK    2  A    between atoms: C_2  and  C_12
REMARK    3  A    between atoms: C_3  and  C_4
REMARK    4  A    between atoms: C_4  and  N_5
REMARK    5  A    between atoms: C_16  and  O_17
REMARK    6  A    between atoms: O_17  and  C_18
REMARK    7  A    between atoms: C_18  and  C_19
REMARK                            x       y       z     vdW  Elec       q    Type
REMARK                         _______ _______ _______ _____ _____    ______ ____
ROOT
ATOM      1  C   UNL     1       0.980  -1.560   2.039  0.00  0.00    +0.000 A 
ATOM      2  C   UNL     1       2.328  -1.928   1.992  0.00  0.00    +0.000 A 
ATOM      3  C   UNL     1       2.790  -2.972   2.794  0.00  0.00    +0.000 A 
ATOM      4  C   UNL     1       1.909  -3.669   3.626  0.00  0.00    +0.000 A 
ATOM      5  C   UNL     1       0.552  -3.348   3.628  0.00  0.00    +0.000 A 
ATOM      6  C   UNL     1       0.091  -2.295   2.833  0.00  0.00    +0.000 A 
ENDROOT
BRANCH   1   8
ATOM      7  C   UNL     1       0.500   0.893   2.101  0.00  0.00    +0.000 C 
ATOM      8  C   UNL     1       0.509  -0.379   1.297  0.00  0.00    +0.000 C 
ATOM      9  C   UNL     1       0.092  -0.519   0.027  0.00  0.00    +0.000 C 
BRANCH   9  10
ATOM     10  C   UNL     1      -0.495   0.545  -0.848  0.00  0.00    +0.000 C 
BRANCH  10  11
ATOM     11  N   UNL     1      -1.921   0.539  -0.639  0.00  0.00    +0.000 N 
ATOM     12  O   UNL     1      -2.368   1.411   0.419  0.00  0.00    +0.000 OA
ATOM     13  C   UNL     1      -3.616   1.884   0.054  0.00  0.00    +0.000 A 
ATOM     14  O   UNL     1      -4.245   2.694   0.638  0.00  0.00    +0.000 OA
ATOM     15  N   UNL     1      -3.942   1.319  -1.145  0.00  0.00    +0.000 N 
ATOM     16  C   UNL     1      -2.853   0.711  -1.659  0.00  0.00    +0.000 A 
ATOM     17  O   UNL     1      -2.702   0.431  -2.836  0.00  0.00    +0.000 OA
ATOM     18  H   UNL     1      -4.831   1.351  -1.567  0.00  0.00    +0.000 HD
ENDBRANCH  10  11
ENDBRANCH   9  10
ENDBRANCH   1   8
BRANCH   5  19
ATOM     19  O   UNL     1      -0.414  -4.043   4.305  0.00  0.00    +0.000 OA
BRANCH  19  20
ATOM     20  C   UNL     1      -0.059  -4.577   5.583  0.00  0.00    +0.000 C 
BRANCH  20  21
ATOM     21  C   UNL     1       0.505  -5.979   5.561  0.00  0.00    +0.000 A 
ATOM     22  C   UNL     1       1.174  -6.457   6.701  0.00  0.00    +0.000 A 
ATOM     23  C   UNL     1       1.797  -7.700   6.683  0.00  0.00    +0.000 A 
ATOM     24  C   UNL     1       1.589  -8.576   5.609  0.00  0.00    +0.000 A 
ATOM     25  C   UNL     1       2.046  -9.882   5.626  0.00  0.00    +0.000 A 
ATOM     26 CL   UNL     1       3.723 -10.201   5.278  0.00  0.00    +0.000 Cl
ATOM     27  C   UNL     1       1.146 -10.892   5.332  0.00  0.00    +0.000 A 
ATOM     28  C   UNL     1      -0.015 -10.560   4.654  0.00  0.00    +0.000 A 
ATOM     29  C   UNL     1      -0.186  -9.252   4.171  0.00  0.00    +0.000 A 
ATOM     30  C   UNL     1       0.597  -8.217   4.684  0.00  0.00    +0.000 A 
ATOM     31  C   UNL     1       0.247  -6.875   4.522  0.00  0.00    +0.000 A 
ENDBRANCH  20  21
ENDBRANCH  19  20
ENDBRANCH   5  19
TORSDOF 6
