REMARK  Name = 
REMARK  13 active torsions:
REMARK  status: ('A' for Active; 'I' for Inactive)
REMARK    1  A    between atoms: C_1  and  C_2
REMARK    2  A    between atoms: C_2  and  C_3
REMARK    3  A    between atoms: C_3  and  C_4
REMARK    4  A    between atoms: C_4  and  C_5
REMARK    5  A    between atoms: C_5  and  C_6
REMARK    6  A    between atoms: C_6  and  O_7
REMARK    7  A    between atoms: C_6  and  C_8
REMARK    8  A    between atoms: C_12  and  O_13
REMARK    9  A    between atoms: O_13  and  C_14
REMARK   10  A    between atoms: C_14  and  C_15
REMARK   11  A    between atoms: C_19  and  C_20
REMARK   12  A    between atoms: C_20  and  O_22
REMARK   13  A    between atoms: O_22  and  C_23
REMARK                            x       y       z     vdW  Elec       q    Type
REMARK                         _______ _______ _______ _____ _____    ______ ____
ROOT
ATOM      1  C   UNL     1      -2.989  -1.576   3.177  0.00  0.00    +0.000 A 
ATOM      2  C   UNL     1      -3.578  -2.841   3.212  0.00  0.00    +0.000 A 
ATOM      3  C   UNL     1      -4.902  -2.973   3.623  0.00  0.00    +0.000 A 
ATOM      4  C   UNL     1      -5.656  -1.838   3.946  0.00  0.00    +0.000 A 
ATOM      5  C   UNL     1      -5.130  -0.562   3.739  0.00  0.00    +0.000 A 
ATOM      6  C   UNL     1      -3.806  -0.439   3.334  0.00  0.00    +0.000 A 
ENDROOT
BRANCH   1   7
ATOM      7  C   UNL     1      -1.481  -1.456   3.207  0.00  0.00    +0.000 C 
BRANCH   7   8
ATOM      8  O   UNL     1      -1.046  -0.720   2.068  0.00  0.00    +0.000 OA
ATOM      9  H   UNL     1      -1.436   0.168   2.088  0.00  0.00    +0.000 HD
ENDBRANCH   7   8
BRANCH   7  10
ATOM     10  C   UNL     1      -1.022  -0.747   4.501  0.00  0.00    +0.000 C 
BRANCH  10  11
ATOM     11  C   UNL     1      -1.493  -1.390   5.817  0.00  0.00    +0.000 C 
BRANCH  11  12
ATOM     12  C   UNL     1      -0.962  -2.809   6.024  0.00  0.00    +0.000 C 
BRANCH  12  14
ATOM     13  C   UNL     1      -0.903  -4.815   7.548  0.00  0.00    +0.000 C 
ATOM     14  C   UNL     1      -1.438  -3.405   7.351  0.00  0.00    +0.000 C 
ENDBRANCH  12  14
ENDBRANCH  11  12
ENDBRANCH  10  11
ENDBRANCH   7  10
ENDBRANCH   1   7
BRANCH   5  15
ATOM     15  O   UNL     1      -5.815   0.619   3.882  0.00  0.00    +0.000 OA
BRANCH  15  16
ATOM     16  C   UNL     1      -6.855   0.643   4.863  0.00  0.00    +0.000 C 
BRANCH  16  17
ATOM     17  C   UNL     1      -7.581   1.979   4.909  0.00  0.00    +0.000 A 
ATOM     18  C   UNL     1      -6.923   3.175   4.636  0.00  0.00    +0.000 A 
ATOM     19  C   UNL     1      -7.573   4.385   4.891  0.00  0.00    +0.000 A 
ATOM     20  C   UNL     1      -8.882   4.377   5.361  0.00  0.00    +0.000 A 
ATOM     21  C   UNL     1      -9.508   3.149   5.527  0.00  0.00    +0.000 A 
ATOM     22  N   UNL     1      -8.869   1.958   5.343  0.00  0.00    +0.000 NA
BRANCH  21  23
ATOM     23  C   UNL     1     -10.962   3.125   5.896  0.00  0.00    +0.000 C 
ATOM     24  O   UNL     1     -11.649   4.115   6.049  0.00  0.00    +0.000 OA
BRANCH  23  25
ATOM     25  O   UNL     1     -11.380   1.835   6.015  0.00  0.00    +0.000 OA
ATOM     26  C   UNL     1     -12.757   1.681   6.346  0.00  0.00    +0.000 C 
ENDBRANCH  23  25
ENDBRANCH  21  23
ENDBRANCH  16  17
ENDBRANCH  15  16
ENDBRANCH   5  15
TORSDOF 11
