REMARK  Name = 
REMARK  10 active torsions:
REMARK  status: ('A' for Active; 'I' for Inactive)
REMARK    1  A    between atoms: C_1  and  C_2
REMARK    2  A    between atoms: C_2  and  C_3
REMARK    3  A    between atoms: C_4  and  C_5
REMARK    4  A    between atoms: C_5  and  C_6
REMARK    5  A    between atoms: C_6  and  O_7
REMARK    6  A    between atoms: C_6  and  C_14
REMARK    7  A    between atoms: O_7  and  C_8
REMARK    8  A    between atoms: C_8  and  C_10
REMARK    9  A    between atoms: C_19  and  O_20
REMARK   10  A    between atoms: C_23  and  O_24
REMARK                            x       y       z     vdW  Elec       q    Type
REMARK                         _______ _______ _______ _____ _____    ______ ____
ROOT
ATOM      1  C   UNL     1       3.704   0.896  -3.934  0.00  0.00    +0.000 C 
ATOM      2  C   UNL     1       3.614   1.431  -5.159  0.00  0.00    +0.000 C 
ATOM      3  C   UNL     1       4.458   2.551  -5.598  0.00  0.00    +0.000 C 
ATOM      4  O   UNL     1       4.316   3.032  -6.718  0.00  0.00    +0.000 OA
ATOM      5  C   UNL     1       5.473   3.075  -4.673  0.00  0.00    +0.000 A 
ATOM      6  C   UNL     1       6.296   4.141  -5.077  0.00  0.00    +0.000 A 
ATOM      7  C   UNL     1       7.270   4.650  -4.226  0.00  0.00    +0.000 A 
ATOM      8  C   UNL     1       7.440   4.090  -2.964  0.00  0.00    +0.000 A 
ATOM      9  C   UNL     1       6.625   3.029  -2.556  0.00  0.00    +0.000 A 
ATOM     10  C   UNL     1       5.622   2.516  -3.400  0.00  0.00    +0.000 A 
ATOM     11  C   UNL     1       4.719   1.410  -2.968  0.00  0.00    +0.000 C 
ATOM     12  O   UNL     1       4.772   0.910  -1.852  0.00  0.00    +0.000 OA
ENDROOT
BRANCH   6  13
ATOM     13  O   UNL     1       6.202   4.745  -6.303  0.00  0.00    +0.000 OA
ATOM     14  H   UNL     1       5.566   4.449  -6.923  0.00  0.00    +0.000 HD
ENDBRANCH   6  13
BRANCH   9  15
ATOM     15  O   UNL     1       6.834   2.502  -1.313  0.00  0.00    +0.000 OA
ATOM     16  H   UNL     1       7.505   2.854  -0.762  0.00  0.00    +0.000 HD
ENDBRANCH   9  15
BRANCH   1  17
ATOM     17  C   UNL     1       2.860  -0.274  -3.448  0.00  0.00    +0.000 C 
BRANCH  17  18
ATOM     18  C   UNL     1       1.585   0.158  -2.679  0.00  0.00    +0.000 C 
BRANCH  18  22
ATOM     19  C   UNL     1      -1.324  -0.695  -3.240  0.00  0.00    +0.000 C 
ATOM     20  C   UNL     1      -0.702   0.571  -3.759  0.00  0.00    +0.000 C 
ATOM     21  C   UNL     1      -1.584   1.470  -4.587  0.00  0.00    +0.000 C 
ATOM     22  C   UNL     1       0.572   0.932  -3.499  0.00  0.00    +0.000 C 
ENDBRANCH  18  22
ENDBRANCH  17  18
BRANCH  17  23
ATOM     23  O   UNL     1       2.511  -1.093  -4.591  0.00  0.00    +0.000 OA
BRANCH  23  24
ATOM     24  C   UNL     1       2.202  -2.402  -4.346  0.00  0.00    +0.000 C 
ATOM     25  O   UNL     1       2.169  -2.875  -3.213  0.00  0.00    +0.000 OA
BRANCH  24  26
ATOM     26  C   UNL     1       1.922  -3.203  -5.626  0.00  0.00    +0.000 C 
ATOM     27 CL   UNL     1       2.098  -2.230  -7.114  0.00  0.00    +0.000 Cl
ATOM     28 CL   UNL     1       3.081  -4.563  -5.691  0.00  0.00    +0.000 Cl
ATOM     29 CL   UNL     1       0.255  -3.837  -5.540  0.00  0.00    +0.000 Cl
ENDBRANCH  24  26
ENDBRANCH  23  24
ENDBRANCH  17  23
ENDBRANCH   1  17
TORSDOF 8
