REMARK  Name = 
REMARK  11 active torsions:
REMARK  status: ('A' for Active; 'I' for Inactive)
REMARK    1  A    between atoms: C_1  and  C_2
REMARK    2  A    between atoms: C_2  and  O_4
REMARK    3  A    between atoms: O_4  and  C_5
REMARK    4  A    between atoms: C_5  and  C_6
REMARK    5  A    between atoms: C_6  and  C_7
REMARK    6  A    between atoms: C_11  and  C_12
REMARK    7  A    between atoms: C_14  and  O_15
REMARK    8  A    between atoms: C_19  and  O_20
REMARK    9  A    between atoms: O_20  and  C_21
REMARK   10  A    between atoms: C_21  and  C_22
REMARK   11  A    between atoms: C_24  and  C_25
REMARK                            x       y       z     vdW  Elec       q    Type
REMARK                         _______ _______ _______ _____ _____    ______ ____
ROOT
ATOM      1  C   UNL     1       1.108   0.837   1.396  0.00  0.00    +0.000 C 
ATOM      2  C   UNL     1       2.070   0.457   2.297  0.00  0.00    +0.000 C 
ATOM      3  C   UNL     1      -2.024  -1.138  -2.013  0.00  0.00    +0.000 C 
ATOM      4  C   UNL     1      -0.160   0.401  -2.236  0.00  0.00    +0.000 C 
ATOM      5  C   UNL     1       0.795  -0.152  -1.152  0.00  0.00    +0.000 C 
ATOM      6  C   UNL     1       0.205  -0.886  -0.361  0.00  0.00    +0.000 C 
ATOM      7  C   UNL     1       1.424  -1.176   0.419  0.00  0.00    +0.000 C 
ATOM      8  C   UNL     1       0.057   0.332   0.596  0.00  0.00    +0.000 C 
ATOM      9  C   UNL     1      -1.286   0.834   0.406  0.00  0.00    +0.000 C 
ATOM     10  C   UNL     1      -2.247  -0.382   0.940  0.00  0.00    +0.000 C 
ATOM     11  C   UNL     1      -1.082  -1.250   1.588  0.00  0.00    +0.000 C 
ATOM     12  C   UNL     1       0.342  -3.606  -2.470  0.00  0.00    +0.000 C 
ATOM     13  C   UNL     1      -1.078  -3.666  -1.815  0.00  0.00    +0.000 C 
ATOM     14  C   UNL     1      -0.569  -3.993  -0.493  0.00  0.00    +0.000 C 
ATOM     15  C   UNL     1      -1.523  -4.599   0.789  0.00  0.00    +0.000 C 
ATOM     16  C   UNL     1      -0.178  -4.208   0.089  0.00  0.00    +0.000 C 
ATOM     17  C   UNL     1      -1.215  -2.817   0.235  0.00  0.00    +0.000 C 
ATOM     18  C   UNL     1      -0.398  -1.971   0.668  0.00  0.00    +0.000 C 
ATOM     19  C   UNL     1       0.296  -2.655   0.087  0.00  0.00    +0.000 C 
ENDROOT
BRANCH   9  20
ATOM     20  O   UNL     1      -1.388   1.799   1.458  0.00  0.00    +0.000 OA
ATOM     21  H   UNL     1      -1.164   1.381   2.304  0.00  0.00    +0.000 HD
ENDBRANCH   9  20
BRANCH   1  22
ATOM     22  C   UNL     1       2.560   1.146   1.445  0.00  0.00    +0.000 C 
BRANCH  22  23
ATOM     23  O   UNL     1       2.613   2.495   1.104  0.00  0.00    +0.000 OA
BRANCH  23  25
ATOM     24  C   UNL     1       0.000   0.000   0.000  0.00  0.00    +0.000 C 
ATOM     25  C   UNL     1       0.000   3.032  -0.089  0.00  0.00    +0.000 C 
ATOM     26  O   UNL     1       3.452   2.284  -1.121  0.00  0.00    +0.000 OA
ENDBRANCH  23  25
ENDBRANCH  22  23
ENDBRANCH   1  22
BRANCH  13  27
ATOM     27  O   UNL     1      -1.765  -4.613  -0.876  0.00  0.00    +0.000 OA
BRANCH  27  28
ATOM     28  C   UNL     1      -3.039  -4.421  -1.625  0.00  0.00    +0.000 C 
ATOM     29  C   UNL     1      -4.014  -3.713  -1.238  0.00  0.00    +0.000 C 
ATOM     30  O   UNL     1      -3.045  -5.607  -2.121  0.00  0.00    +0.000 OA
ENDBRANCH  27  28
ENDBRANCH  13  27
TORSDOF 6
