REMARK  Name = 
REMARK  6 active torsions:
REMARK  status: ('A' for Active; 'I' for Inactive)
REMARK    1  A    between atoms: C_1  and  C_2
REMARK    2  A    between atoms: C_2  and  C_3
REMARK    3  A    between atoms: N_10  and  C_11
REMARK    4  A    between atoms: C_14  and  O_15
REMARK    5  A    between atoms: O_15  and  C_16
REMARK    6  A    between atoms: C_16  and  C_17
REMARK                            x       y       z     vdW  Elec       q    Type
REMARK                         _______ _______ _______ _____ _____    ______ ____
ROOT
ATOM      1  C   UNL     1      -3.150  -0.510   1.712  0.00  0.00    +0.000 C 
ATOM      2  C   UNL     1      -1.868   0.027   1.036  0.00  0.00    +0.000 C 
ATOM      3  C   UNL     1      -1.987  -0.053  -0.506  0.00  0.00    +0.000 C 
ATOM      4  N   UNL     1      -1.935   1.478   1.251  0.00  0.00    +0.000 N 
ATOM      5  C   UNL     1      -0.966   2.066   1.835  0.00  0.00    +0.000 C 
ATOM      6  N   UNL     1      -1.004   3.417   1.945  0.00  0.00    +0.000 N 
ATOM      7  N   UNL     1       0.139   1.458   2.307  0.00  0.00    +0.000 N 
ATOM      8  C   UNL     1       0.249   0.175   2.173  0.00  0.00    +0.000 C 
ATOM      9  N   UNL     1       1.413  -0.338   2.659  0.00  0.00    +0.000 N 
ATOM     10  N   UNL     1      -0.660  -0.669   1.568  0.00  0.00    +0.000 N 
ATOM     11  H   UNL     1      -2.718   1.991   0.947  0.00  0.00    +0.000 HD
ATOM     12  H   UNL     1      -1.787   3.916   1.617  0.00  0.00    +0.000 HD
ATOM     13  H   UNL     1      -0.249   3.899   2.353  0.00  0.00    +0.000 HD
ATOM     14  H   UNL     1       0.849   1.979   2.746  0.00  0.00    +0.000 HD
ATOM     15  H   UNL     1       2.069   0.254   3.093  0.00  0.00    +0.000 HD
ATOM     16  H   UNL     1       1.598  -1.301   2.576  0.00  0.00    +0.000 HD
ENDROOT
BRANCH  10  17
ATOM     17  C   UNL     1      -0.550  -2.088   1.531  0.00  0.00    +0.000 A 
ATOM     18  C   UNL     1       0.069  -2.835   2.556  0.00  0.00    +0.000 A 
ATOM     19  C   UNL     1       0.286  -4.224   2.462  0.00  0.00    +0.000 A 
ATOM     20  C   UNL     1      -0.176  -4.936   1.362  0.00  0.00    +0.000 A 
ATOM     21  C   UNL     1      -0.831  -4.238   0.360  0.00  0.00    +0.000 A 
ATOM     22  C   UNL     1      -1.002  -2.852   0.449  0.00  0.00    +0.000 A 
BRANCH  20  23
ATOM     23  O   UNL     1       0.056  -6.286   1.350  0.00  0.00    +0.000 OA
BRANCH  23  24
ATOM     24  C   UNL     1      -0.720  -7.014   0.393  0.00  0.00    +0.000 C 
BRANCH  24  25
ATOM     25  C   UNL     1      -0.702  -8.506   0.633  0.00  0.00    +0.000 A 
ATOM     26  C   UNL     1      -0.300  -9.060   1.850  0.00  0.00    +0.000 A 
ATOM     27  C   UNL     1      -0.424 -10.433   2.078  0.00  0.00    +0.000 A 
ATOM     28  C   UNL     1      -0.952 -11.269   1.086  0.00  0.00    +0.000 A 
ATOM     29 CL   UNL     1      -1.132 -12.945   1.458  0.00  0.00    +0.000 Cl
ATOM     30  C   UNL     1      -1.337 -10.730  -0.143  0.00  0.00    +0.000 A 
ATOM     31 CL   UNL     1      -1.996 -11.689  -1.419  0.00  0.00    +0.000 Cl
ATOM     32  C   UNL     1      -1.211  -9.355  -0.366  0.00  0.00    +0.000 A 
ENDBRANCH  24  25
ENDBRANCH  23  24
ENDBRANCH  20  23
ENDBRANCH  10  17
TORSDOF 4
