REMARK  Name = 
REMARK  3 active torsions:
REMARK  status: ('A' for Active; 'I' for Inactive)
REMARK    1  A    between atoms: C_2  and  C_5
REMARK    2  A    between atoms: C_17  and  S_18
REMARK    3  A    between atoms: S_18  and  C_19
REMARK                            x       y       z     vdW  Elec       q    Type
REMARK                         _______ _______ _______ _____ _____    ______ ____
ROOT
ATOM      1  C   UNL     1       2.778  -1.128  -1.156  0.00  0.00    +0.000 A 
ATOM      2  C   UNL     1       2.513  -2.486  -0.955  0.00  0.00    +0.000 A 
ATOM      3  C   UNL     1       2.832  -3.420  -1.951  0.00  0.00    +0.000 A 
ATOM      4  C   UNL     1       3.408  -3.037  -3.158  0.00  0.00    +0.000 A 
ATOM      5  N   UNL     1       3.700  -3.958  -4.104  0.00  0.00    +0.000 NA
ATOM      6  C   UNL     1       4.273  -3.547  -5.269  0.00  0.00    +0.000 A 
ATOM      7  N   UNL     1       4.582  -4.531  -6.198  0.00  0.00    +0.000 N 
ATOM      8  C   UNL     1       3.821  -5.788  -6.211  0.00  0.00    +0.000 C 
ATOM      9  C   UNL     1       4.715  -7.026  -5.974  0.00  0.00    +0.000 C 
ATOM     10  N   UNL     1       5.915  -7.070  -6.833  0.00  0.00    +0.000 N 
ATOM     11  C   UNL     1       6.681  -5.833  -6.602  0.00  0.00    +0.000 C 
ATOM     12  C   UNL     1       5.881  -4.545  -6.886  0.00  0.00    +0.000 C 
ATOM     13  C   UNL     1       4.497  -2.160  -5.460  0.00  0.00    +0.000 A 
ATOM     14  N   UNL     1       4.214  -1.232  -4.502  0.00  0.00    +0.000 NA
ATOM     15  C   UNL     1       3.678  -1.671  -3.362  0.00  0.00    +0.000 A 
ATOM     16  C   UNL     1       3.367  -0.746  -2.370  0.00  0.00    +0.000 A 
ATOM     17  H   UNL     1       5.638  -7.128  -7.813  0.00  0.00    +0.000 HD
ATOM     18  H   UNL     1       6.483  -7.887  -6.610  0.00  0.00    +0.000 HD
ENDROOT
BRANCH   1  20
ATOM     19  F   UNL     1       1.838  -0.599   0.989  0.00  0.00    +0.000 F 
ATOM     20  C   UNL     1       2.444  -0.087  -0.117  0.00  0.00    +0.000 C 
ATOM     21  F   UNL     1       1.602   0.870  -0.595  0.00  0.00    +0.000 F 
ATOM     22  F   UNL     1       3.547   0.574   0.331  0.00  0.00    +0.000 F 
ENDBRANCH   1  20
BRANCH  13  23
ATOM     23  S   UNL     1       5.155  -1.422  -6.947  0.00  0.00    +0.000 S 
BRANCH  23  24
ATOM     24  C   UNL     1       3.724  -1.072  -7.949  0.00  0.00    +0.000 A 
ATOM     25  C   UNL     1       2.495  -0.662  -7.425  0.00  0.00    +0.000 A 
ATOM     26  C   UNL     1       1.458  -0.265  -8.276  0.00  0.00    +0.000 A 
ATOM     27  C   UNL     1       1.643  -0.271  -9.658  0.00  0.00    +0.000 A 
ATOM     28  C   UNL     1       2.855  -0.699 -10.192  0.00  0.00    +0.000 A 
ATOM     29  C   UNL     1       3.888  -1.100  -9.342  0.00  0.00    +0.000 A 
ENDBRANCH  23  24
ENDBRANCH  13  23
TORSDOF 3
