REMARK  Name = 
REMARK  8 active torsions:
REMARK  status: ('A' for Active; 'I' for Inactive)
REMARK    1  A    between atoms: C_1  and  C_2
REMARK    2  A    between atoms: C_2  and  N_3
REMARK    3  A    between atoms: N_3  and  C_4
REMARK    4  A    between atoms: C_4  and  C_5
REMARK    5  A    between atoms: N_8  and  C_9
REMARK    6  A    between atoms: C_16  and  C_17
REMARK    7  A    between atoms: N_21  and  C_22
REMARK    8  A    between atoms: C_24  and  C_25
REMARK                            x       y       z     vdW  Elec       q    Type
REMARK                         _______ _______ _______ _____ _____    ______ ____
ROOT
ATOM      1  C   UNL     1       5.506   8.409  -5.038  0.00  0.00    +0.000 A 
ATOM      2  C   UNL     1       4.108   8.463  -5.104  0.00  0.00    +0.000 A 
ATOM      3  F   UNL     1       3.484   9.118  -6.095  0.00  0.00    +0.000 F 
ATOM      4  C   UNL     1       3.297   7.803  -4.186  0.00  0.00    +0.000 A 
ATOM      5  C   UNL     1       3.874   7.038  -3.168  0.00  0.00    +0.000 A 
ATOM      6  C   UNL     1       2.981   6.359  -2.200  0.00  0.00    +0.000 A 
ATOM      7  O   UNL     1       1.767   6.402  -2.368  0.00  0.00    +0.000 OA
ATOM      8  C   UNL     1       3.615   5.639  -1.071  0.00  0.00    +0.000 A 
ATOM      9  C   UNL     1       4.953   5.555  -1.071  0.00  0.00    +0.000 A 
ATOM     10  N   UNL     1       5.814   6.092  -2.021  0.00  0.00    +0.000 N 
ATOM     11  C   UNL     1       5.266   6.922  -3.047  0.00  0.00    +0.000 A 
ATOM     12  C   UNL     1       6.041   7.646  -3.973  0.00  0.00    +0.000 A 
ATOM     13  F   UNL     1       7.374   7.678  -3.823  0.00  0.00    +0.000 F 
ENDROOT
BRANCH   1  17
ATOM     14  C   UNL     1       7.877   9.091  -7.761  0.00  0.00    +0.000 C 
ATOM     15  C   UNL     1       6.614   9.884  -8.101  0.00  0.00    +0.000 C 
ATOM     16  C   UNL     1       6.027  10.209  -6.735  0.00  0.00    +0.000 C 
ATOM     17  N   UNL     1       6.360   9.045  -5.925  0.00  0.00    +0.000 N 
ATOM     18  C   UNL     1       7.466   8.283  -6.522  0.00  0.00    +0.000 C 
BRANCH  14  19
ATOM     19  C   UNL     1       8.363   8.191  -8.898  0.00  0.00    +0.000 C 
BRANCH  19  20
ATOM     20  N   UNL     1       8.712   8.983 -10.078  0.00  0.00    +0.000 N 
ATOM     21  H   UNL     1       7.889   9.498 -10.389  0.00  0.00    +0.000 HD
ATOM     22  H   UNL     1       9.463   9.626  -9.826  0.00  0.00    +0.000 HD
BRANCH  20  24
ATOM     23  C   UNL     1       9.523   8.978 -12.382  0.00  0.00    +0.000 C 
ATOM     24  C   UNL     1       9.180   8.128 -11.168  0.00  0.00    +0.000 C 
ENDBRANCH  20  24
ENDBRANCH  19  20
ENDBRANCH  14  19
ENDBRANCH   1  17
BRANCH  10  25
ATOM     25  C   UNL     1       7.260   6.070  -1.705  0.00  0.00    +0.000 C 
ATOM     26  C   UNL     1       7.990   4.768  -1.447  0.00  0.00    +0.000 C 
ATOM     27  C   UNL     1       8.331   5.577  -2.658  0.00  0.00    +0.000 C 
ATOM     28  C   UNL     1       9.638   6.300  -2.738  0.00  0.00    +0.000 C 
ENDBRANCH  10  25
BRANCH   8  29
ATOM     29  C   UNL     1       2.887   5.027   0.049  0.00  0.00    +0.000 C 
ATOM     30  O   UNL     1       3.324   4.162   0.791  0.00  0.00    +0.000 OA
ATOM     31  O   UNL     1       1.667   5.546   0.249  0.00  0.00    +0.000 OA
ENDBRANCH   8  29
TORSDOF 6
