REMARK  Name = 
REMARK  5 active torsions:
REMARK  status: ('A' for Active; 'I' for Inactive)
REMARK    1  A    between atoms: C_1  and  C_2
REMARK    2  A    between atoms: C_2  and  C_3
REMARK    3  A    between atoms: C_2  and  C_4
REMARK    4  A    between atoms: C_2  and  N_5
REMARK    5  A    between atoms: C_17  and  C_18
REMARK                            x       y       z     vdW  Elec       q    Type
REMARK                         _______ _______ _______ _____ _____    ______ ____
ROOT
ATOM      1  N   UNL     1       0.952  -1.318  -1.897  0.00  0.00    +0.000 N 
ATOM      2  C   UNL     1       1.897  -0.485  -2.467  0.00  0.00    +0.000 A 
ATOM      3  N   UNL     1       2.947  -0.043  -1.824  0.00  0.00    +0.000 NA
ATOM      4  C   UNL     1       3.791   0.921  -2.417  0.00  0.00    +0.000 A 
ATOM      5  C   UNL     1       4.802   1.475  -1.632  0.00  0.00    +0.000 A 
ATOM      6  C   UNL     1       5.587   2.515  -2.132  0.00  0.00    +0.000 A 
ATOM      7  C   UNL     1       5.368   2.992  -3.425  0.00  0.00    +0.000 A 
ATOM      8 CL   UNL     1       6.311   4.307  -4.010  0.00  0.00    +0.000 Cl
ATOM      9  C   UNL     1       4.379   2.435  -4.237  0.00  0.00    +0.000 A 
ATOM     10  C   UNL     1       3.590   1.402  -3.730  0.00  0.00    +0.000 A 
ATOM     11  C   UNL     1       2.485   0.817  -4.458  0.00  0.00    +0.000 A 
ATOM     12  N   UNL     1       2.029   0.992  -5.680  0.00  0.00    +0.000 NA
ATOM     13  C   UNL     1       0.891   0.202  -5.701  0.00  0.00    +0.000 A 
ATOM     14  N   UNL     1       0.631  -0.450  -4.555  0.00  0.00    +0.000 NA
ATOM     15  N   UNL     1       1.683  -0.070  -3.799  0.00  0.00    +0.000 N 
ATOM     16  H   UNL     1       0.415  -1.880  -2.501  0.00  0.00    +0.000 HD
ENDROOT
BRANCH  13  17
ATOM     17  C   UNL     1       0.010   0.103  -6.907  0.00  0.00    +0.000 A 
ATOM     18  C   UNL     1       0.265   0.669  -8.142  0.00  0.00    +0.000 A 
ATOM     19  C   UNL     1      -0.827   0.335  -8.982  0.00  0.00    +0.000 A 
ATOM     20  C   UNL     1      -1.687  -0.407  -8.208  0.00  0.00    +0.000 A 
ATOM     21  O   UNL     1      -1.186  -0.563  -6.956  0.00  0.00    +0.000 OA
ENDBRANCH  13  17
BRANCH   1  23
ATOM     22  C   UNL     1       0.844  -0.073   0.263  0.00  0.00    +0.000 C 
ATOM     23  C   UNL     1       0.694  -1.425  -0.458  0.00  0.00    +0.000 C 
ATOM     24  C   UNL     1       1.642  -2.462   0.155  0.00  0.00    +0.000 C 
ATOM     25  C   UNL     1      -0.760  -1.894  -0.277  0.00  0.00    +0.000 C 
ENDBRANCH   1  23
TORSDOF 2
