REMARK  Name = 
REMARK  7 active torsions:
REMARK  status: ('A' for Active; 'I' for Inactive)
REMARK    1  A    between atoms: C_1  and  C_2
REMARK    2  A    between atoms: C_5  and  S_6
REMARK    3  A    between atoms: S_6  and  C_7
REMARK    4  A    between atoms: C_13  and  C_14
REMARK    5  A    between atoms: N_15  and  O_16
REMARK    6  A    between atoms: O_16  and  C_17
REMARK    7  A    between atoms: C_17  and  C_18
REMARK                            x       y       z     vdW  Elec       q    Type
REMARK                         _______ _______ _______ _____ _____    ______ ____
ROOT
ATOM      1  C   UNL     1      -4.220   1.664  -0.098  0.00  0.00    +0.000 A 
ATOM      2  C   UNL     1      -3.894   2.531  -1.135  0.00  0.00    +0.000 A 
ATOM      3  N   UNL     1      -4.296   3.816  -1.215  0.00  0.00    +0.000 NA
ATOM      4  C   UNL     1      -5.059   4.318  -0.220  0.00  0.00    +0.000 A 
ATOM      5  C   UNL     1      -5.431   3.509   0.857  0.00  0.00    +0.000 A 
ATOM      6  S   UNL     1      -6.388   3.978   2.204  0.00  0.00    +0.000 S 
ATOM      7  C   UNL     1      -6.321   2.427   2.904  0.00  0.00    +0.000 A 
ATOM      8  C   UNL     1      -5.569   1.561   2.139  0.00  0.00    +0.000 A 
ATOM      9  C   UNL     1      -5.031   2.171   0.945  0.00  0.00    +0.000 A 
ENDROOT
BRANCH   7  10
ATOM     10  C   UNL     1      -7.000   2.152   4.147  0.00  0.00    +0.000 C 
ATOM     11  N   UNL     1      -7.281   3.104   4.978  0.00  0.00    +0.000 NA
BRANCH  11  12
ATOM     12  O   UNL     1      -7.903   2.578   6.120  0.00  0.00    +0.000 OA
BRANCH  12  13
ATOM     13  C   UNL     1      -8.097   3.652   7.036  0.00  0.00    +0.000 C 
BRANCH  13  14
ATOM     14  C   UNL     1      -8.765   3.179   8.304  0.00  0.00    +0.000 C 
ATOM     15  O   UNL     1      -9.137   2.050   8.582  0.00  0.00    +0.000 OA
ATOM     16  O   UNL     1      -8.942   4.184   9.193  0.00  0.00    +0.000 OA
ENDBRANCH  13  14
ENDBRANCH  12  13
ENDBRANCH  11  12
ENDBRANCH   7  10
BRANCH   1  17
ATOM     17  S   UNL     1      -3.622   0.004  -0.047  0.00  0.00    +0.000 S 
BRANCH  17  22
ATOM     18  C   UNL     1      -7.872  -3.597  -2.554  0.00  0.00    +0.000 C 
ATOM     19  C   UNL     1      -6.845  -2.683  -1.956  0.00  0.00    +0.000 A 
ATOM     20  C   UNL     1      -7.059  -1.303  -1.893  0.00  0.00    +0.000 A 
ATOM     21  C   UNL     1      -6.099  -0.457  -1.328  0.00  0.00    +0.000 A 
ATOM     22  C   UNL     1      -4.908  -0.975  -0.808  0.00  0.00    +0.000 A 
ATOM     23  C   UNL     1      -4.696  -2.358  -0.880  0.00  0.00    +0.000 A 
ATOM     24  C   UNL     1      -5.652  -3.204  -1.449  0.00  0.00    +0.000 A 
ENDBRANCH  17  22
ENDBRANCH   1  17
TORSDOF 6
