REMARK  Name = 
REMARK  10 active torsions:
REMARK  status: ('A' for Active; 'I' for Inactive)
REMARK    1  A    between atoms: C_2  and  C_3
REMARK    2  A    between atoms: C_3  and  N_4
REMARK    3  A    between atoms: N_4  and  C_5
REMARK    4  A    between atoms: N_4  and  C_18
REMARK    5  A    between atoms: C_5  and  C_6
REMARK    6  A    between atoms: C_11  and  C_12
REMARK    7  A    between atoms: C_14  and  O_15
REMARK    8  A    between atoms: C_21  and  C_22
REMARK    9  A    between atoms: N_24  and  C_25
REMARK   10  A    between atoms: C_25  and  C_26
REMARK                            x       y       z     vdW  Elec       q    Type
REMARK                         _______ _______ _______ _____ _____    ______ ____
ROOT
ATOM      1  N   UNL     1      -2.153   1.351   0.249  0.00  0.00    +0.000 N 
ENDROOT
BRANCH   1   2
ATOM      2  C   UNL     1      -1.704   2.119   1.319  0.00  0.00    +0.000 A 
ATOM      3  C   UNL     1      -0.922   1.592   2.360  0.00  0.00    +0.000 A 
ATOM      4  C   UNL     1      -0.558   2.347   3.490  0.00  0.00    +0.000 A 
ATOM      5  C   UNL     1      -0.936   3.687   3.610  0.00  0.00    +0.000 A 
ATOM      6  C   UNL     1      -1.658   4.252   2.562  0.00  0.00    +0.000 A 
ATOM      7  C   UNL     1      -2.046   3.475   1.458  0.00  0.00    +0.000 A 
BRANCH   5   8
ATOM      8  C   UNL     1      -0.579   4.434   4.862  0.00  0.00    +0.000 C 
ATOM      9  O   UNL     1       0.037   3.869   5.760  0.00  0.00    +0.000 OA
ATOM     10  N   UNL     1      -0.991   5.744   4.949  0.00  0.00    +0.000 N 
ATOM     11  H   UNL     1      -1.448   6.142   4.173  0.00  0.00    +0.000 HD
BRANCH  10  12
ATOM     12  C   UNL     1      -0.786   6.566   6.122  0.00  0.00    +0.000 C 
BRANCH  12  13
ATOM     13  C   UNL     1      -2.107   7.115   6.601  0.00  0.00    +0.000 A 
ATOM     14  C   UNL     1      -2.832   6.448   7.598  0.00  0.00    +0.000 A 
ATOM     15  C   UNL     1      -4.078   6.928   8.010  0.00  0.00    +0.000 A 
ATOM     16  C   UNL     1      -4.612   8.076   7.427  0.00  0.00    +0.000 A 
ATOM     17  C   UNL     1      -3.902   8.746   6.432  0.00  0.00    +0.000 A 
ATOM     18  C   UNL     1      -2.659   8.265   6.017  0.00  0.00    +0.000 A 
ENDBRANCH  12  13
ENDBRANCH  10  12
ENDBRANCH   5   8
ENDBRANCH   1   2
BRANCH   1  19
ATOM     19  C   UNL     1      -1.681  -0.020   0.019  0.00  0.00    +0.000 C 
BRANCH  19  21
ATOM     20  C   UNL     1       0.680   0.005  -1.238  0.00  0.00    +0.000 C 
ATOM     21  C   UNL     1      -0.376  -0.014  -0.669  0.00  0.00    +0.000 C 
ENDBRANCH  19  21
ENDBRANCH   1  19
BRANCH   1  22
ATOM     22  C   UNL     1      -2.964   1.913  -0.842  0.00  0.00    +0.000 C 
BRANCH  22  23
ATOM     23  C   UNL     1      -4.461   1.791  -0.615  0.00  0.00    +0.000 A 
ATOM     24  C   UNL     1      -5.052   1.747   0.652  0.00  0.00    +0.000 A 
ATOM     25  C   UNL     1      -6.447   1.744   0.797  0.00  0.00    +0.000 A 
ATOM     26  C   UNL     1      -7.298   1.745  -0.299  0.00  0.00    +0.000 A 
ATOM     27  N   UNL     1      -8.627   1.713  -0.114  0.00  0.00    +0.000 NA
ATOM     28  C   UNL     1      -9.412   1.661  -1.207  0.00  0.00    +0.000 A 
ATOM     29  C   UNL     1     -10.887   1.553  -0.977  0.00  0.00    +0.000 C 
ATOM     30  N   UNL     1      -8.969   1.659  -2.475  0.00  0.00    +0.000 NA
ATOM     31  C   UNL     1      -7.639   1.713  -2.604  0.00  0.00    +0.000 A 
ATOM     32  C   UNL     1      -6.721   1.759  -1.566  0.00  0.00    +0.000 A 
ATOM     33  C   UNL     1      -5.316   1.803  -1.726  0.00  0.00    +0.000 A 
BRANCH  31  34
ATOM     34  O   UNL     1      -7.228   1.677  -3.902  0.00  0.00    +0.000 OA
ATOM     35  H   UNL     1      -7.859   1.647  -4.593  0.00  0.00    +0.000 HD
ENDBRANCH  31  34
ENDBRANCH  22  23
ENDBRANCH   1  22
TORSDOF 9
