REMARK  Name = 
REMARK  8 active torsions:
REMARK  status: ('A' for Active; 'I' for Inactive)
REMARK    1  A    between atoms: C_1  and  C_2
REMARK    2  A    between atoms: C_2  and  C_3
REMARK    3  A    between atoms: C_3  and  C_4
REMARK    4  A    between atoms: C_16  and  C_17
REMARK    5  A    between atoms: C_16  and  C_18
REMARK    6  A    between atoms: C_22  and  C_23
REMARK    7  A    between atoms: C_24  and  C_25
REMARK    8  A    between atoms: C_26  and  O_27
REMARK                            x       y       z     vdW  Elec       q    Type
REMARK                         _______ _______ _______ _____ _____    ______ ____
ROOT
ATOM      1  C   UNL     1       0.115  -1.128  -1.301  0.00  0.00    +0.000 A 
ATOM      2  C   UNL     1      -0.755  -0.353  -0.611  0.00  0.00    +0.000 A 
ATOM      3  C   UNL     1      -1.550  -0.834   0.520  0.00  0.00    +0.000 A 
ATOM      4  O   UNL     1      -2.398  -0.142   1.073  0.00  0.00    +0.000 OA
ATOM      5  O   UNL     1      -1.209  -2.073   0.975  0.00  0.00    +0.000 OA
ATOM      6  C   UNL     1      -0.038  -2.650   0.481  0.00  0.00    +0.000 A 
ATOM      7  C   UNL     1       0.776  -3.239   1.413  0.00  0.00    +0.000 A 
ATOM      8  C   UNL     1       1.655  -4.220   0.992  0.00  0.00    +0.000 A 
ATOM      9  C   UNL     1       1.808  -4.444  -0.386  0.00  0.00    +0.000 A 
ATOM     10  C   UNL     1       1.268  -3.505  -1.311  0.00  0.00    +0.000 A 
ATOM     11  C   UNL     1       0.388  -2.508  -0.826  0.00  0.00    +0.000 A 
ATOM     12  O   UNL     1       1.553  -3.589  -2.654  0.00  0.00    +0.000 OA
ATOM     13  C   UNL     1       2.543  -4.559  -3.113  0.00  0.00    +0.000 C 
ATOM     14  C   UNL     1       2.032  -5.223  -4.402  0.00  0.00    +0.000 C 
ATOM     15  C   UNL     1       3.831  -3.793  -3.435  0.00  0.00    +0.000 C 
ATOM     16  C   UNL     1       2.886  -5.655  -2.136  0.00  0.00    +0.000 C 
ATOM     17  C   UNL     1       2.559  -5.596  -0.849  0.00  0.00    +0.000 C 
ATOM     18  O   UNL     1       2.331  -5.006   1.887  0.00  0.00    +0.000 OA
ATOM     19  C   UNL     1       2.481  -4.476   3.220  0.00  0.00    +0.000 C 
ATOM     20  C   UNL     1       3.774  -3.648   3.267  0.00  0.00    +0.000 C 
ATOM     21  C   UNL     1       1.240  -3.729   3.757  0.00  0.00    +0.000 C 
ATOM     22  C   UNL     1       0.040  -4.676   3.973  0.00  0.00    +0.000 C 
ATOM     23  C   UNL     1       0.816  -2.649   2.786  0.00  0.00    +0.000 C 
ENDROOT
BRANCH  23  24
ATOM     24  O   UNL     1       1.713  -1.541   2.784  0.00  0.00    +0.000 OA
ATOM     25  H   UNL     1       2.595  -1.839   2.512  0.00  0.00    +0.000 HD
ENDBRANCH  23  24
BRANCH   1  26
ATOM     26  C   UNL     1       1.058  -0.428  -2.236  0.00  0.00    +0.000 C 
BRANCH  26  28
ATOM     27  C   UNL     1       1.392   0.558  -4.511  0.00  0.00    +0.000 C 
ATOM     28  C   UNL     1       0.528  -0.367  -3.660  0.00  0.00    +0.000 C 
ENDBRANCH  26  28
ENDBRANCH   1  26
TORSDOF 3
