REMARK  Name = 
REMARK  9 active torsions:
REMARK  status: ('A' for Active; 'I' for Inactive)
REMARK    1  A    between atoms: C_1  and  C_2
REMARK    2  A    between atoms: C_2  and  N_3
REMARK    3  A    between atoms: N_3  and  C_4
REMARK    4  A    between atoms: C_4  and  C_5
REMARK    5  A    between atoms: N_8  and  C_9
REMARK    6  A    between atoms: C_16  and  C_17
REMARK    7  A    between atoms: N_21  and  C_22
REMARK    8  A    between atoms: C_22  and  C_23
REMARK    9  A    between atoms: C_22  and  C_24
REMARK                            x       y       z     vdW  Elec       q    Type
REMARK                         _______ _______ _______ _____ _____    ______ ____
ROOT
ATOM      1  C   UNL     1       0.682  -7.516   2.654  0.00  0.00    +0.000 A 
ATOM      2  C   UNL     1       0.878  -8.523   1.700  0.00  0.00    +0.000 A 
ATOM      3  F   UNL     1       0.944  -8.223   0.393  0.00  0.00    +0.000 F 
ATOM      4  C   UNL     1       0.924  -9.864   2.044  0.00  0.00    +0.000 A 
ATOM      5  C   UNL     1       0.815 -10.243   3.387  0.00  0.00    +0.000 A 
ATOM      6  C   UNL     1       0.824 -11.698   3.685  0.00  0.00    +0.000 A 
ATOM      7  O   UNL     1       0.876 -12.501   2.760  0.00  0.00    +0.000 OA
ATOM      8  C   UNL     1       0.712 -12.106   5.094  0.00  0.00    +0.000 A 
ATOM      9  C   UNL     1       0.577 -11.124   5.998  0.00  0.00    +0.000 A 
ATOM     10  N   UNL     1       0.589  -9.748   5.771  0.00  0.00    +0.000 N 
ATOM     11  C   UNL     1       0.658  -9.294   4.420  0.00  0.00    +0.000 A 
ATOM     12  C   UNL     1       0.566  -7.944   4.000  0.00  0.00    +0.000 A 
ATOM     13  F   UNL     1       0.351  -6.979   4.910  0.00  0.00    +0.000 F 
ENDROOT
BRANCH   1  17
ATOM     14  C   UNL     1       0.818  -4.115   1.176  0.00  0.00    +0.000 C 
ATOM     15  C   UNL     1      -0.478  -4.150   1.999  0.00  0.00    +0.000 C 
ATOM     16  C   UNL     1      -0.202  -5.210   3.054  0.00  0.00    +0.000 C 
ATOM     17  N   UNL     1       0.542  -6.194   2.286  0.00  0.00    +0.000 N 
ATOM     18  C   UNL     1       1.422  -5.530   1.330  0.00  0.00    +0.000 C 
BRANCH  14  19
ATOM     19  C   UNL     1       0.601  -3.782  -0.303  0.00  0.00    +0.000 C 
BRANCH  19  20
ATOM     20  N   UNL     1      -0.027  -2.473  -0.500  0.00  0.00    +0.000 N 
ATOM     21  H   UNL     1      -0.956  -2.477  -0.080  0.00  0.00    +0.000 HD
ATOM     22  H   UNL     1       0.549  -1.756  -0.058  0.00  0.00    +0.000 HD
BRANCH  20  24
ATOM     23  C   UNL     1      -0.807  -0.831  -2.151  0.00  0.00    +0.000 C 
ATOM     24  C   UNL     1      -0.143  -2.180  -1.931  0.00  0.00    +0.000 C 
ENDBRANCH  20  24
ENDBRANCH  19  20
ENDBRANCH  14  19
ENDBRANCH   1  17
BRANCH   8  25
ATOM     25  C   UNL     1       0.736 -13.491   5.579  0.00  0.00    +0.000 C 
ATOM     26  O   UNL     1       0.321 -13.876   6.661  0.00  0.00    +0.000 OA
ATOM     27  O   UNL     1       1.342 -14.345   4.740  0.00  0.00    +0.000 OA
ENDBRANCH   8  25
BRANCH  10  28
ATOM     28  C   UNL     1       0.430  -8.761   6.880  0.00  0.00    +0.000 C 
ATOM     29  C   UNL     1      -1.053  -8.554   7.193  0.00  0.00    +0.000 C 
ATOM     30  C   UNL     1       1.224  -9.134   8.139  0.00  0.00    +0.000 C 
ENDBRANCH  10  28
TORSDOF 6
