REMARK  Name = 
REMARK  8 active torsions:
REMARK  status: ('A' for Active; 'I' for Inactive)
REMARK    1  A    between atoms: C_1  and  C_2
REMARK    2  A    between atoms: C_2  and  C_3
REMARK    3  A    between atoms: C_3  and  C_4
REMARK    4  A    between atoms: C_16  and  C_17
REMARK    5  A    between atoms: C_16  and  C_18
REMARK    6  A    between atoms: C_22  and  C_23
REMARK    7  A    between atoms: C_24  and  C_25
REMARK    8  A    between atoms: C_26  and  O_27
REMARK                            x       y       z     vdW  Elec       q    Type
REMARK                         _______ _______ _______ _____ _____    ______ ____
ROOT
ATOM      1  C   UNL     1       0.374   1.669  -0.559  0.00  0.00    +0.000 A 
ATOM      2  C   UNL     1      -0.078   0.490  -0.069  0.00  0.00    +0.000 A 
ATOM      3  C   UNL     1      -0.916  -0.433  -0.839  0.00  0.00    +0.000 A 
ATOM      4  O   UNL     1      -1.373  -1.464  -0.336  0.00  0.00    +0.000 OA
ATOM      5  O   UNL     1      -1.206  -0.050  -2.101  0.00  0.00    +0.000 OA
ATOM      6  C   UNL     1      -0.213   0.759  -2.657  0.00  0.00    +0.000 A 
ATOM      7  C   UNL     1       0.424   0.228  -3.755  0.00  0.00    +0.000 A 
ATOM      8  C   UNL     1       1.053   1.079  -4.630  0.00  0.00    +0.000 A 
ATOM      9  C   UNL     1       1.232   2.414  -4.242  0.00  0.00    +0.000 A 
ATOM     10  C   UNL     1       0.987   2.791  -2.890  0.00  0.00    +0.000 A 
ATOM     11  C   UNL     1       0.306   1.872  -2.038  0.00  0.00    +0.000 A 
ATOM     12  O   UNL     1       1.352   4.027  -2.411  0.00  0.00    +0.000 OA
ATOM     13  C   UNL     1       2.155   4.908  -3.260  0.00  0.00    +0.000 C 
ATOM     14  C   UNL     1       1.621   6.340  -3.112  0.00  0.00    +0.000 C 
ATOM     15  C   UNL     1       3.606   4.864  -2.760  0.00  0.00    +0.000 C 
ATOM     16  C   UNL     1       2.160   4.570  -4.727  0.00  0.00    +0.000 C 
ATOM     17  C   UNL     1       1.754   3.381  -5.187  0.00  0.00    +0.000 C 
ATOM     18  O   UNL     1       1.478   0.614  -5.847  0.00  0.00    +0.000 OA
ATOM     19  C   UNL     1       1.673  -0.817  -5.995  0.00  0.00    +0.000 C 
ATOM     20  C   UNL     1       1.412  -1.137  -7.465  0.00  0.00    +0.000 C 
ATOM     21  C   UNL     1       0.782  -1.734  -5.129  0.00  0.00    +0.000 C 
ATOM     22  C   UNL     1       1.209  -3.207  -5.137  0.00  0.00    +0.000 C 
ATOM     23  C   UNL     1       0.769  -1.219  -3.720  0.00  0.00    +0.000 C 
ENDROOT
BRANCH  23  24
ATOM     24  O   UNL     1       2.058  -1.298  -3.103  0.00  0.00    +0.000 OA
ATOM     25  H   UNL     1       2.691  -0.759  -3.604  0.00  0.00    +0.000 HD
ENDBRANCH  23  24
BRANCH   1  26
ATOM     26  C   UNL     1       1.143   2.526   0.401  0.00  0.00    +0.000 C 
BRANCH  26  28
ATOM     27  C   UNL     1       0.872   4.072   2.374  0.00  0.00    +0.000 C 
ATOM     28  C   UNL     1       0.203   3.477   1.144  0.00  0.00    +0.000 C 
ENDBRANCH  26  28
ENDBRANCH   1  26
TORSDOF 3
