REMARK  Name = 
REMARK  8 active torsions:
REMARK  status: ('A' for Active; 'I' for Inactive)
REMARK    1  A    between atoms: C_1  and  C_2
REMARK    2  A    between atoms: C_2  and  N_3
REMARK    3  A    between atoms: N_3  and  C_4
REMARK    4  A    between atoms: C_4  and  C_5
REMARK    5  A    between atoms: N_8  and  C_9
REMARK    6  A    between atoms: C_16  and  C_17
REMARK    7  A    between atoms: N_21  and  C_22
REMARK    8  A    between atoms: C_22  and  C_23
REMARK                            x       y       z     vdW  Elec       q    Type
REMARK                         _______ _______ _______ _____ _____    ______ ____
ROOT
ATOM      1  C   UNL     1       1.252   5.007  -2.956  0.00  0.00    +0.000 A 
ATOM      2  C   UNL     1       2.493   5.564  -2.613  0.00  0.00    +0.000 A 
ATOM      3  F   UNL     1       3.543   4.781  -2.323  0.00  0.00    +0.000 F 
ATOM      4  C   UNL     1       2.704   6.937  -2.576  0.00  0.00    +0.000 A 
ATOM      5  C   UNL     1       1.666   7.812  -2.905  0.00  0.00    +0.000 A 
ATOM      6  C   UNL     1       1.911   9.272  -2.759  0.00  0.00    +0.000 A 
ATOM      7  O   UNL     1       2.971   9.658  -2.277  0.00  0.00    +0.000 OA
ATOM      8  C   UNL     1       0.828  10.194  -3.163  0.00  0.00    +0.000 A 
ATOM      9  C   UNL     1      -0.315   9.632  -3.582  0.00  0.00    +0.000 A 
ATOM     10  N   UNL     1      -0.595   8.274  -3.679  0.00  0.00    +0.000 N 
ATOM     11  C   UNL     1       0.413   7.334  -3.340  0.00  0.00    +0.000 A 
ATOM     12  C   UNL     1       0.252   5.925  -3.364  0.00  0.00    +0.000 A 
ATOM     13  F   UNL     1      -0.930   5.408  -3.739  0.00  0.00    +0.000 F 
ENDROOT
BRANCH   1  17
ATOM     14  C   UNL     1       1.262   1.517  -3.935  0.00  0.00    +0.000 C 
ATOM     15  C   UNL     1       2.321   1.742  -2.848  0.00  0.00    +0.000 C 
ATOM     16  C   UNL     1       1.678   2.771  -1.935  0.00  0.00    +0.000 C 
ATOM     17  N   UNL     1       0.951   3.645  -2.852  0.00  0.00    +0.000 N 
ATOM     18  C   UNL     1       0.620   2.915  -4.095  0.00  0.00    +0.000 C 
BRANCH  14  19
ATOM     19  C   UNL     1       0.280   0.404  -3.523  0.00  0.00    +0.000 C 
BRANCH  19  20
ATOM     20  N   UNL     1      -0.672   0.053  -4.584  0.00  0.00    +0.000 N 
ATOM     21  H   UNL     1      -1.298   0.841  -4.750  0.00  0.00    +0.000 HD
ATOM     22  H   UNL     1      -0.155  -0.165  -5.437  0.00  0.00    +0.000 HD
BRANCH  20  24
ATOM     23  C   UNL     1      -2.494  -1.472  -5.248  0.00  0.00    +0.000 C 
ATOM     24  C   UNL     1      -1.461  -1.120  -4.187  0.00  0.00    +0.000 C 
ENDBRANCH  20  24
ENDBRANCH  19  20
ENDBRANCH  14  19
ENDBRANCH   1  17
BRANCH   8  25
ATOM     25  C   UNL     1       0.896  11.662  -3.130  0.00  0.00    +0.000 C 
ATOM     26  O   UNL     1      -0.068  12.413  -3.175  0.00  0.00    +0.000 OA
ATOM     27  O   UNL     1       2.141  12.154  -3.094  0.00  0.00    +0.000 OA
ENDBRANCH   8  25
BRANCH  10  28
ATOM     28  C   UNL     1      -1.880   7.816  -4.280  0.00  0.00    +0.000 C 
BRANCH  28  29
ATOM     29  C   UNL     1      -1.806   7.482  -5.778  0.00  0.00    +0.000 C 
ATOM     30  F   UNL     1      -0.610   7.794  -6.329  0.00  0.00    +0.000 F 
ATOM     31  F   UNL     1      -2.035   6.172  -6.016  0.00  0.00    +0.000 F 
ATOM     32  F   UNL     1      -2.747   8.181  -6.461  0.00  0.00    +0.000 F 
ENDBRANCH  28  29
ENDBRANCH  10  28
TORSDOF 7
