REMARK  Name = 
REMARK  12 active torsions:
REMARK  status: ('A' for Active; 'I' for Inactive)
REMARK    1  A    between atoms: C_1  and  C_2
REMARK    2  A    between atoms: C_2  and  N_3
REMARK    3  A    between atoms: N_3  and  C_4
REMARK    4  A    between atoms: N_3  and  C_6
REMARK    5  A    between atoms: C_4  and  C_5
REMARK    6  A    between atoms: C_6  and  C_7
REMARK    7  A    between atoms: C_7  and  N_8
REMARK    8  A    between atoms: N_8  and  C_9
REMARK    9  A    between atoms: C_19  and  C_20
REMARK   10  A    between atoms: C_20  and  C_21
REMARK   11  A    between atoms: C_20  and  C_22
REMARK   12  A    between atoms: C_20  and  C_23
REMARK                            x       y       z     vdW  Elec       q    Type
REMARK                         _______ _______ _______ _____ _____    ______ ____
ROOT
ATOM      1  C   UNL     1       3.403  -1.523   2.393  0.00  0.00    +0.000 A 
ATOM      2  C   UNL     1       4.660  -1.875   2.956  0.00  0.00    +0.000 A 
ATOM      3  C   UNL     1       5.528  -2.815   2.361  0.00  0.00    +0.000 A 
ATOM      4  C   UNL     1       5.155  -3.313   1.109  0.00  0.00    +0.000 A 
ATOM      5  N   UNL     1       5.775  -4.129   0.193  0.00  0.00    +0.000 NA
ATOM      6  C   UNL     1       4.933  -4.202  -0.831  0.00  0.00    +0.000 A 
ATOM      7  N   UNL     1       3.838  -3.413  -0.624  0.00  0.00    +0.000 N 
ATOM      8  C   UNL     1       2.655  -3.207  -1.324  0.00  0.00    +0.000 A 
ATOM      9  C   UNL     1       2.509  -3.183  -2.698  0.00  0.00    +0.000 A 
ATOM     10  C   UNL     1       1.312  -3.706  -3.160  0.00  0.00    +0.000 A 
ATOM     11  C   UNL     1       0.742  -4.670  -2.340  0.00  0.00    +0.000 A 
ATOM     12  C   UNL     1       0.510  -4.134  -1.047  0.00  0.00    +0.000 A 
ATOM     13  C   UNL     1       1.507  -3.299  -0.523  0.00  0.00    +0.000 A 
ATOM     14  C   UNL     1       1.539  -2.531   0.773  0.00  0.00    +0.000 A 
ATOM     15  O   UNL     1       0.517  -2.169   1.340  0.00  0.00    +0.000 OA
ATOM     16  C   UNL     1       2.923  -2.321   1.344  0.00  0.00    +0.000 A 
ATOM     17  C   UNL     1       3.905  -2.995   0.660  0.00  0.00    +0.000 A 
ENDROOT
BRANCH  11  18
ATOM     18  C   UNL     1       1.547  -6.103  -2.458  0.00  0.00    +0.000 C 
ATOM     19  C   UNL     1       2.787  -6.056  -3.431  0.00  0.00    +0.000 C 
ATOM     20  C   UNL     1       2.048  -6.657  -1.101  0.00  0.00    +0.000 C 
ATOM     21  C   UNL     1       0.647  -7.178  -3.092  0.00  0.00    +0.000 C 
ENDBRANCH  11  18
BRANCH   1  22
ATOM     22  N   UNL     1       2.684  -0.410   2.874  0.00  0.00    +0.000 N 
ATOM     23  H   UNL     1       1.701  -0.430   2.917  0.00  0.00    +0.000 HD
BRANCH  22  24
ATOM     24  C   UNL     1       3.430   0.785   3.314  0.00  0.00    +0.000 C 
BRANCH  24  25
ATOM     25  C   UNL     1       4.403   1.421   2.269  0.00  0.00    +0.000 C 
BRANCH  25  26
ATOM     26  N   UNL     1       3.814   1.866   0.986  0.00  0.00    +0.000 N 
ATOM     27  H   UNL     1       3.216   1.112   0.647  0.00  0.00    +0.000 HD
BRANCH  26  29
ATOM     28  C   UNL     1       2.108   3.329  -0.091  0.00  0.00    +0.000 C 
ATOM     29  C   UNL     1       2.928   3.027   1.159  0.00  0.00    +0.000 C 
ENDBRANCH  26  29
BRANCH  26  30
ATOM     30  C   UNL     1       4.847   2.064  -0.053  0.00  0.00    +0.000 C 
ATOM     31  C   UNL     1       5.772   3.276   0.077  0.00  0.00    +0.000 C 
ENDBRANCH  26  30
ENDBRANCH  25  26
ENDBRANCH  24  25
ENDBRANCH  22  24
ENDBRANCH   1  22
TORSDOF 7
