REMARK  Name = 
REMARK  7 active torsions:
REMARK  status: ('A' for Active; 'I' for Inactive)
REMARK    1  A    between atoms: C_1  and  O_2
REMARK    2  A    between atoms: O_2  and  C_3
REMARK    3  A    between atoms: C_7  and  N_8
REMARK    4  A    between atoms: N_14  and  C_15
REMARK    5  A    between atoms: C_24  and  N_25
REMARK    6  A    between atoms: C_28  and  O_29
REMARK    7  A    between atoms: O_29  and  C_30
REMARK                            x       y       z     vdW  Elec       q    Type
REMARK                         _______ _______ _______ _____ _____    ______ ____
ROOT
ATOM      1  C   UNL     1       3.863  -3.802   4.130  0.00  0.00    +0.000 A 
ATOM      2  C   UNL     1       2.813  -4.667   4.457  0.00  0.00    +0.000 A 
ATOM      3  C   UNL     1       1.525  -4.479   3.972  0.00  0.00    +0.000 A 
ATOM      4  N   UNL     1       0.575  -5.349   4.355  0.00  0.00    +0.000 NA
ATOM      5  C   UNL     1      -0.692  -5.207   3.919  0.00  0.00    +0.000 A 
ATOM      6  C   UNL     1      -1.019  -4.154   3.074  0.00  0.00    +0.000 A 
ATOM      7  C   UNL     1      -0.040  -3.272   2.611  0.00  0.00    +0.000 A 
ATOM      8  C   UNL     1       1.273  -3.400   3.107  0.00  0.00    +0.000 A 
ATOM      9  C   UNL     1       2.331  -2.517   2.787  0.00  0.00    +0.000 A 
ATOM     10  C   UNL     1       3.612  -2.695   3.313  0.00  0.00    +0.000 A 
ENDROOT
BRANCH   5  11
ATOM     11  N   UNL     1      -1.613  -6.157   4.302  0.00  0.00    +0.000 N 
ATOM     12  C   UNL     1      -1.465  -6.808   5.611  0.00  0.00    +0.000 C 
ATOM     13  C   UNL     1      -1.760  -8.315   5.478  0.00  0.00    +0.000 C 
ATOM     14  N   UNL     1      -3.089  -8.534   4.878  0.00  0.00    +0.000 N 
ATOM     15  C   UNL     1      -4.183  -9.207   5.401  0.00  0.00    +0.000 C 
ATOM     16  O   UNL     1      -5.255  -9.192   4.798  0.00  0.00    +0.000 OA
ATOM     17  N   UNL     1      -3.988  -9.845   6.603  0.00  0.00    +0.000 N 
ATOM     18  C   UNL     1      -3.247  -7.866   3.577  0.00  0.00    +0.000 C 
ATOM     19  C   UNL     1      -2.902  -6.363   3.632  0.00  0.00    +0.000 C 
ATOM     20  H   UNL     1      -3.072  -9.831   6.964  0.00  0.00    +0.000 HD
BRANCH  17  21
ATOM     21  C   UNL     1      -4.962 -10.522   7.378  0.00  0.00    +0.000 A 
ATOM     22  C   UNL     1      -6.279 -10.737   6.965  0.00  0.00    +0.000 A 
ATOM     23  C   UNL     1      -7.220 -11.294   7.836  0.00  0.00    +0.000 A 
ATOM     24  C   UNL     1      -6.848 -11.666   9.123  0.00  0.00    +0.000 A 
ATOM     25  C   UNL     1      -5.523 -11.522   9.525  0.00  0.00    +0.000 A 
ATOM     26  C   UNL     1      -4.582 -10.961   8.654  0.00  0.00    +0.000 A 
ENDBRANCH  17  21
ENDBRANCH   5  11
BRANCH   7  27
ATOM     27  N   UNL     1      -0.451  -2.160   1.843  0.00  0.00    +0.000 N 
ATOM     28  H   UNL     1      -1.377  -2.106   1.513  0.00  0.00    +0.000 HD
ATOM     29  H   UNL     1       0.188  -1.440   1.637  0.00  0.00    +0.000 HD
ENDBRANCH   7  27
BRANCH   1  31
ATOM     30  C   UNL     1       5.533  -5.268   4.961  0.00  0.00    +0.000 C 
ATOM     31  O   UNL     1       5.141  -3.944   4.614  0.00  0.00    +0.000 OA
ENDBRANCH   1  31
BRANCH  10  32
ATOM     32  O   UNL     1       4.669  -1.864   3.035  0.00  0.00    +0.000 OA
ATOM     33  C   UNL     1       4.338  -0.527   2.676  0.00  0.00    +0.000 C 
ENDBRANCH  10  32
TORSDOF 5
