REMARK  Name = 
REMARK  10 active torsions:
REMARK  status: ('A' for Active; 'I' for Inactive)
REMARK    1  A    between atoms: S_2  and  C_4
REMARK    2  A    between atoms: S_2  and  C_22
REMARK    3  A    between atoms: C_4  and  C_5
REMARK    4  A    between atoms: C_5  and  C_6
REMARK    5  A    between atoms: C_6  and  O_7
REMARK    6  A    between atoms: C_6  and  C_8
REMARK    7  A    between atoms: C_11  and  C_12
REMARK    8  A    between atoms: C_12  and  O_13
REMARK    9  A    between atoms: O_13  and  C_14
REMARK   10  A    between atoms: C_14  and  C_15
REMARK                            x       y       z     vdW  Elec       q    Type
REMARK                         _______ _______ _______ _____ _____    ______ ____
ROOT
ATOM      1  C   UNL     1       2.837   3.617   4.173  0.00  0.00    +0.000 C 
ENDROOT
BRANCH   1   2
ATOM      2  C   UNL     1       2.684   4.043   2.692  0.00  0.00    +0.000 C 
ATOM      3  C   UNL     1       1.275   4.290   2.187  0.00  0.00    +0.000 C 
ATOM      4  C   UNL     1       1.122   5.789   2.273  0.00  0.00    +0.000 C 
ATOM      5  C   UNL     1       2.538   6.323   2.107  0.00  0.00    +0.000 C 
ATOM      6  O   UNL     1       3.437   5.239   2.429  0.00  0.00    +0.000 OA
BRANCH   5   7
ATOM      7  C   UNL     1       2.884   6.878   0.713  0.00  0.00    +0.000 C 
BRANCH   7   8
ATOM      8  O   UNL     1       2.079   8.013   0.359  0.00  0.00    +0.000 OA
BRANCH   8   9
ATOM      9  C   UNL     1       2.528   8.586  -0.881  0.00  0.00    +0.000 C 
BRANCH   9  10
ATOM     10  C   UNL     1       1.715   9.789  -1.317  0.00  0.00    +0.000 A 
ATOM     11  C   UNL     1       2.314  10.785  -2.108  0.00  0.00    +0.000 A 
ATOM     12  C   UNL     1       1.567  11.860  -2.604  0.00  0.00    +0.000 A 
ATOM     13  C   UNL     1       0.209  11.949  -2.324  0.00  0.00    +0.000 A 
ATOM     14  C   UNL     1      -0.402  10.966  -1.544  0.00  0.00    +0.000 A 
ATOM     15  C   UNL     1       0.342   9.893  -1.046  0.00  0.00    +0.000 A 
ENDBRANCH   9  10
ENDBRANCH   8   9
ENDBRANCH   7   8
ENDBRANCH   5   7
ENDBRANCH   1   2
BRANCH   1  16
ATOM     16  O   UNL     1       2.217   2.340   4.360  0.00  0.00    +0.000 OA
ATOM     17  H   UNL     1       1.261   2.420   4.211  0.00  0.00    +0.000 HD
ENDBRANCH   1  16
BRANCH   1  18
ATOM     18  C   UNL     1       2.303   4.575   5.258  0.00  0.00    +0.000 C 
BRANCH  18  19
ATOM     19  C   UNL     1       2.673   4.024   6.639  0.00  0.00    +0.000 C 
BRANCH  19  21
ATOM     20  O   UNL     1       3.327   4.517   9.069  0.00  0.00    +0.000 OA
ATOM     21  S   UNL     1       2.496   5.104   8.031  0.00  0.00    +0.000 S 
ATOM     22  O   UNL     1       2.730   6.464   7.589  0.00  0.00    +0.000 OA
BRANCH  21  23
ATOM     23  C   UNL     1       0.847   5.054   8.688  0.00  0.00    +0.000 A 
ATOM     24  C   UNL     1      -0.241   4.478   8.036  0.00  0.00    +0.000 A 
ATOM     25  C   UNL     1      -1.479   4.423   8.695  0.00  0.00    +0.000 A 
ATOM     26  C   UNL     1      -1.622   4.936   9.990  0.00  0.00    +0.000 A 
ATOM     27  C   UNL     1      -0.538   5.522  10.628  0.00  0.00    +0.000 A 
ATOM     28  C   UNL     1       0.694   5.586   9.981  0.00  0.00    +0.000 A 
ENDBRANCH  21  23
ENDBRANCH  19  21
ENDBRANCH  18  19
ENDBRANCH   1  18
TORSDOF 10
