REMARK  Name = 
REMARK  4 active torsions:
REMARK  status: ('A' for Active; 'I' for Inactive)
REMARK    1  A    between atoms: C_1  and  C_2
REMARK    2  A    between atoms: C_2  and  N_3
REMARK    3  A    between atoms: N_3  and  C_4
REMARK    4  A    between atoms: C_14  and  C_16
REMARK                            x       y       z     vdW  Elec       q    Type
REMARK                         _______ _______ _______ _____ _____    ______ ____
ROOT
ATOM      1  C   UNL     1       0.196  -2.609  -4.321  0.00  0.00    +0.000 A 
ATOM      2  C   UNL     1      -0.946  -2.042  -4.911  0.00  0.00    +0.000 A 
ATOM      3  C   UNL     1      -2.102  -1.840  -4.183  0.00  0.00    +0.000 A 
ATOM      4  C   UNL     1      -2.081  -2.240  -2.865  0.00  0.00    +0.000 A 
ATOM      5  N   UNL     1      -1.011  -2.823  -2.251  0.00  0.00    +0.000 NA
ATOM      6  C   UNL     1       0.139  -2.994  -2.956  0.00  0.00    +0.000 A 
ATOM      7  N   UNL     1       1.232  -3.585  -2.341  0.00  0.00    +0.000 N 
ATOM      8  C   UNL     1       1.472  -3.466  -0.905  0.00  0.00    +0.000 C 
ATOM      9  C   UNL     1       2.921  -2.965  -0.659  0.00  0.00    +0.000 C 
ATOM     10  N   UNL     1       3.918  -3.838  -1.307  0.00  0.00    +0.000 N 
ATOM     11  C   UNL     1       5.097  -4.379  -0.685  0.00  0.00    +0.000 C 
ATOM     12  O   UNL     1       5.852  -5.101  -1.350  0.00  0.00    +0.000 OA
ATOM     13  C   UNL     1       3.610  -4.027  -2.774  0.00  0.00    +0.000 C 
ATOM     14  C   UNL     1       2.139  -4.515  -3.019  0.00  0.00    +0.000 C 
ENDROOT
BRANCH  11  15
ATOM     15  C   UNL     1       5.345  -4.209   0.867  0.00  0.00    +0.000 A 
ATOM     16  C   UNL     1       6.066  -5.236   1.436  0.00  0.00    +0.000 A 
ATOM     17  C   UNL     1       6.355  -5.236   2.798  0.00  0.00    +0.000 A 
ATOM     18  C   UNL     1       5.922  -4.209   3.627  0.00  0.00    +0.000 A 
ATOM     19  C   UNL     1       6.019  -4.369   5.022  0.00  0.00    +0.000 A 
ATOM     20  C   UNL     1       5.532  -3.361   5.860  0.00  0.00    +0.000 A 
ATOM     21  C   UNL     1       5.867  -2.074   5.527  0.00  0.00    +0.000 A 
ATOM     22  C   UNL     1       5.394  -2.048   4.198  0.00  0.00    +0.000 A 
ATOM     23  C   UNL     1       5.416  -3.050   3.068  0.00  0.00    +0.000 A 
ATOM     24  N   UNL     1       5.057  -3.080   1.637  0.00  0.00    +0.000 NA
ENDBRANCH  11  15
BRANCH   1  25
ATOM     25  N   UNL     1       1.318  -2.810  -5.117  0.00  0.00    +0.000 N 
ATOM     26  H   UNL     1       2.127  -3.205  -4.719  0.00  0.00    +0.000 HD
BRANCH  25  28
ATOM     27  C   UNL     1       2.680  -2.793  -7.109  0.00  0.00    +0.000 C 
ATOM     28  C   UNL     1       1.322  -2.452  -6.516  0.00  0.00    +0.000 C 
ENDBRANCH  25  28
ENDBRANCH   1  25
TORSDOF 3
