REMARK  Name = 
REMARK  5 active torsions:
REMARK  status: ('A' for Active; 'I' for Inactive)
REMARK    1  A    between atoms: C_1  and  N_2
REMARK    2  A    between atoms: C_5  and  C_6
REMARK    3  A    between atoms: C_7  and  O_8
REMARK    4  A    between atoms: C_10  and  O_11
REMARK    5  A    between atoms: C_16  and  C_17
REMARK                            x       y       z     vdW  Elec       q    Type
REMARK                         _______ _______ _______ _____ _____    ______ ____
ROOT
ATOM      1  C   UNL     1       2.878  -0.728  -4.848  0.00  0.00    +0.000 A 
ATOM      2  C   UNL     1       2.382  -1.424  -5.965  0.00  0.00    +0.000 A 
ATOM      3  C   UNL     1       3.172  -1.643  -7.093  0.00  0.00    +0.000 A 
ATOM      4  C   UNL     1       4.480  -1.155  -7.121  0.00  0.00    +0.000 A 
ATOM      5  C   UNL     1       4.994  -0.437  -6.033  0.00  0.00    +0.000 A 
ATOM      6  C   UNL     1       6.361   0.119  -6.040  0.00  0.00    +0.000 A 
ATOM      7  O   UNL     1       7.175  -0.029  -6.945  0.00  0.00    +0.000 OA
ATOM      8  C   UNL     1       6.765   0.887  -4.859  0.00  0.00    +0.000 A 
ATOM      9  C   UNL     1       5.931   0.999  -3.822  0.00  0.00    +0.000 A 
ATOM     10  O   UNL     1       4.653   0.465  -3.796  0.00  0.00    +0.000 OA
ATOM     11  C   UNL     1       4.193  -0.228  -4.899  0.00  0.00    +0.000 A 
ENDROOT
BRANCH   1  16
ATOM     12  C   UNL     1       0.889   0.654   0.008  0.00  0.00    +0.000 C 
ATOM     13  N   UNL     1       0.488  -0.038  -1.205  0.00  0.00    +0.000 N 
ATOM     14  C   UNL     1       0.367   0.836  -2.365  0.00  0.00    +0.000 C 
ATOM     15  C   UNL     1       1.245   0.558  -3.542  0.00  0.00    +0.000 C 
ATOM     16  C   UNL     1       2.031  -0.521  -3.652  0.00  0.00    +0.000 C 
ATOM     17  C   UNL     1       2.082  -1.565  -2.581  0.00  0.00    +0.000 C 
ATOM     18  C   UNL     1       1.134  -1.337  -1.388  0.00  0.00    +0.000 C 
ATOM     19  H   UNL     1      -0.482  -0.325  -1.072  0.00  0.00    +0.000 HD
ENDBRANCH   1  16
BRANCH   9  20
ATOM     20  C   UNL     1       6.346   1.672  -2.574  0.00  0.00    +0.000 A 
ATOM     21  C   UNL     1       5.417   2.372  -1.791  0.00  0.00    +0.000 A 
ATOM     22  C   UNL     1       5.792   2.926  -0.563  0.00  0.00    +0.000 A 
ATOM     23  C   UNL     1       7.098   2.788  -0.099  0.00  0.00    +0.000 A 
ATOM     24  C   UNL     1       8.042   2.123  -0.877  0.00  0.00    +0.000 A 
ATOM     25  C   UNL     1       7.669   1.572  -2.103  0.00  0.00    +0.000 A 
ENDBRANCH   9  20
BRANCH   2  26
ATOM     26  O   UNL     1       1.096  -1.899  -5.950  0.00  0.00    +0.000 OA
ATOM     27  H   UNL     1       0.554  -1.759  -5.199  0.00  0.00    +0.000 HD
ENDBRANCH   2  26
BRANCH   4  28
ATOM     28  O   UNL     1       5.244  -1.375  -8.227  0.00  0.00    +0.000 OA
ATOM     29  H   UNL     1       4.893  -1.857  -8.951  0.00  0.00    +0.000 HD
ENDBRANCH   4  28
TORSDOF 4
