REMARK  Name = 
REMARK  6 active torsions:
REMARK  status: ('A' for Active; 'I' for Inactive)
REMARK    1  A    between atoms: C_1  and  N_2
REMARK    2  A    between atoms: N_11  and  C_12
REMARK    3  A    between atoms: C_12  and  C_13
REMARK    4  A    between atoms: C_17  and  O_18
REMARK    5  A    between atoms: O_18  and  C_19
REMARK    6  A    between atoms: C_19  and  C_20
REMARK                            x       y       z     vdW  Elec       q    Type
REMARK                         _______ _______ _______ _____ _____    ______ ____
ROOT
ATOM      1  C   UNL     1      -1.529  -0.837   7.641  0.00  0.00    +0.000 A 
ATOM      2  C   UNL     1      -0.644  -1.795   8.151  0.00  0.00    +0.000 A 
ATOM      3  C   UNL     1      -1.129  -2.919   8.820  0.00  0.00    +0.000 A 
ATOM      4  C   UNL     1      -2.503  -3.092   9.008  0.00  0.00    +0.000 A 
ATOM      5  C   UNL     1      -3.398  -2.135   8.532  0.00  0.00    +0.000 A 
ATOM      6  C   UNL     1      -2.908  -1.019   7.844  0.00  0.00    +0.000 A 
ENDROOT
BRANCH   1   7
ATOM      7  C   UNL     1      -1.006   0.361   6.887  0.00  0.00    +0.000 C 
BRANCH   7  18
ATOM      8  C   UNL     1       2.350   5.426  10.848  0.00  0.00    +0.000 C 
ATOM      9  N   UNL     1       1.219   4.563  10.605  0.00  0.00    +0.000 N 
ATOM     10  C   UNL     1       1.375   3.471   9.758  0.00  0.00    +0.000 A 
ATOM     11  N   UNL     1       2.578   2.857   9.608  0.00  0.00    +0.000 NA
ATOM     12  C   UNL     1       2.657   1.764   8.819  0.00  0.00    +0.000 A 
ATOM     13  N   UNL     1       1.678   1.153   8.125  0.00  0.00    +0.000 NA
ATOM     14  C   UNL     1       0.508   1.796   8.295  0.00  0.00    +0.000 A 
ATOM     15  C   UNL     1       0.278   2.932   9.053  0.00  0.00    +0.000 A 
ATOM     16  N   UNL     1      -1.043   3.333   8.952  0.00  0.00    +0.000 NA
ATOM     17  C   UNL     1      -1.600   2.442   8.159  0.00  0.00    +0.000 A 
ATOM     18  N   UNL     1      -0.713   1.473   7.767  0.00  0.00    +0.000 N 
ATOM     19  H   UNL     1       0.351   4.745  11.032  0.00  0.00    +0.000 HD
ENDBRANCH   7  18
ENDBRANCH   1   7
BRANCH   5  20
ATOM     20  O   UNL     1      -4.761  -2.201   8.629  0.00  0.00    +0.000 OA
BRANCH  20  21
ATOM     21  C   UNL     1      -5.294  -2.999   9.691  0.00  0.00    +0.000 C 
BRANCH  21  22
ATOM     22  C   UNL     1      -6.808  -2.975   9.658  0.00  0.00    +0.000 A 
ATOM     23  C   UNL     1      -7.513  -2.941   8.447  0.00  0.00    +0.000 A 
ATOM     24  C   UNL     1      -8.909  -2.958   8.430  0.00  0.00    +0.000 A 
ATOM     25  C   UNL     1      -9.620  -3.030   9.628  0.00  0.00    +0.000 A 
ATOM     26  C   UNL     1      -8.935  -3.091  10.836  0.00  0.00    +0.000 A 
ATOM     27  C   UNL     1      -7.539  -3.071  10.856  0.00  0.00    +0.000 A 
ENDBRANCH  21  22
ENDBRANCH  20  21
ENDBRANCH   5  20
TORSDOF 5
