REMARK  Name = 
REMARK  3 active torsions:
REMARK  status: ('A' for Active; 'I' for Inactive)
REMARK    1  A    between atoms: C_4  and  N_5
REMARK    2  A    between atoms: C_7  and  S_8
REMARK    3  A    between atoms: S_8  and  C_10
REMARK                            x       y       z     vdW  Elec       q    Type
REMARK                         _______ _______ _______ _____ _____    ______ ____
ROOT
ATOM      1  N   UNL     1      -0.737 -11.047  -0.216  0.00  0.00    +0.000 N 
ATOM      2  C   UNL     1      -0.944  -9.749  -0.630  0.00  0.00    +0.000 A 
ATOM      3  N   UNL     1      -0.317  -9.344  -1.729  0.00  0.00    +0.000 NA
ATOM      4  C   UNL     1      -0.517  -8.075  -2.107  0.00  0.00    +0.000 A 
ATOM      5  C   UNL     1      -1.377  -7.174  -1.448  0.00  0.00    +0.000 A 
ATOM      6  C   UNL     1      -1.700  -5.816  -1.792  0.00  0.00    +0.000 A 
ATOM      7  C   UNL     1      -2.480  -5.041  -0.919  0.00  0.00    +0.000 A 
ATOM      8  C   UNL     1      -2.998  -5.599   0.240  0.00  0.00    +0.000 A 
ATOM      9  C   UNL     1      -2.751  -6.940   0.522  0.00  0.00    +0.000 A 
ATOM     10  C   UNL     1      -1.957  -7.730  -0.296  0.00  0.00    +0.000 A 
ATOM     11  N   UNL     1      -1.764  -8.992   0.094  0.00  0.00    +0.000 NA
ATOM     12  H   UNL     1      -0.137 -11.636  -0.727  0.00  0.00    +0.000 HD
ATOM     13  H   UNL     1      -1.189 -11.384   0.591  0.00  0.00    +0.000 HD
ENDROOT
BRANCH   4  14
ATOM     14  N   UNL     1       0.275  -7.715  -3.204  0.00  0.00    +0.000 N 
ATOM     15  H   UNL     1       0.860  -8.383  -3.629  0.00  0.00    +0.000 HD
ATOM     16  H   UNL     1       0.247  -6.794  -3.550  0.00  0.00    +0.000 HD
ENDBRANCH   4  14
BRANCH   6  17
ATOM     17  S   UNL     1      -1.084  -5.018  -3.312  0.00  0.00    +0.000 S 
ATOM     18  O   UNL     1      -1.241  -3.468  -3.102  0.00  0.00    +0.000 OA
BRANCH  17  19
ATOM     19  C   UNL     1      -2.479  -5.526  -4.358  0.00  0.00    +0.000 A 
ATOM     20  C   UNL     1      -2.335  -6.634  -5.201  0.00  0.00    +0.000 A 
ATOM     21  C   UNL     1      -3.342  -6.971  -6.110  0.00  0.00    +0.000 A 
ATOM     22  C   UNL     1      -4.505  -6.201  -6.187  0.00  0.00    +0.000 A 
ATOM     23 CL   UNL     1      -5.689  -6.651  -7.362  0.00  0.00    +0.000 Cl
ATOM     24  C   UNL     1      -4.661  -5.097  -5.342  0.00  0.00    +0.000 A 
ATOM     25 CL   UNL     1      -6.070  -4.095  -5.387  0.00  0.00    +0.000 Cl
ATOM     26  C   UNL     1      -3.649  -4.759  -4.434  0.00  0.00    +0.000 A 
ENDBRANCH  17  19
ENDBRANCH   6  17
TORSDOF 3
