REMARK  Name = 
REMARK  11 active torsions:
REMARK  status: ('A' for Active; 'I' for Inactive)
REMARK    1  A    between atoms: C_1  and  C_2
REMARK    2  A    between atoms: C_2  and  C_3
REMARK    3  A    between atoms: C_3  and  C_4
REMARK    4  A    between atoms: C_4  and  C_5
REMARK    5  A    between atoms: C_13  and  C_14
REMARK    6  A    between atoms: C_14  and  O_15
REMARK    7  A    between atoms: O_15  and  C_16
REMARK    8  A    between atoms: C_20  and  C_21
REMARK    9  A    between atoms: C_21  and  C_22
REMARK   10  A    between atoms: C_23  and  C_24
REMARK   11  A    between atoms: C_24  and  N_25
REMARK                            x       y       z     vdW  Elec       q    Type
REMARK                         _______ _______ _______ _____ _____    ______ ____
ROOT
ATOM      1  C   UNL     1      -0.312   2.643   3.870  0.00  0.00    +0.000 A 
ATOM      2  C   UNL     1      -0.172   3.120   5.175  0.00  0.00    +0.000 A 
ATOM      3  C   UNL     1       0.314   4.408   5.393  0.00  0.00    +0.000 A 
ATOM      4  C   UNL     1       0.701   5.208   4.313  0.00  0.00    +0.000 A 
ATOM      5  C   UNL     1       0.658   4.712   2.997  0.00  0.00    +0.000 A 
ATOM      6  C   UNL     1       0.123   3.436   2.802  0.00  0.00    +0.000 A 
ENDROOT
BRANCH   5   7
ATOM      7  C   UNL     1       1.215   5.466   1.841  0.00  0.00    +0.000 C 
ATOM      8  C   UNL     1       0.632   5.279   0.464  0.00  0.00    +0.000 C 
ATOM      9  C   UNL     1       2.311   6.226   2.035  0.00  0.00    +0.000 C 
BRANCH   9  10
ATOM     10  C   UNL     1       3.034   7.058   1.016  0.00  0.00    +0.000 C 
BRANCH  10  11
ATOM     11  N   UNL     1       2.873   8.443   1.401  0.00  0.00    +0.000 N 
ATOM     12  O   UNL     1       3.465   8.788   2.657  0.00  0.00    +0.000 OA
ATOM     13  C   UNL     1       3.852  10.102   2.568  0.00  0.00    +0.000 A 
ATOM     14  O   UNL     1       4.391  10.735   3.455  0.00  0.00    +0.000 OA
ATOM     15  N   UNL     1       3.586  10.546   1.326  0.00  0.00    +0.000 N 
ATOM     16  C   UNL     1       3.192   9.500   0.564  0.00  0.00    +0.000 A 
ATOM     17  O   UNL     1       3.180   9.494  -0.664  0.00  0.00    +0.000 OA
ATOM     18  H   UNL     1       3.664  11.479   1.022  0.00  0.00    +0.000 HD
ENDBRANCH  10  11
ENDBRANCH   9  10
ENDBRANCH   5   7
BRANCH   1  19
ATOM     19  O   UNL     1      -0.815   1.371   3.721  0.00  0.00    +0.000 OA
BRANCH  19  20
ATOM     20  C   UNL     1      -1.536   1.170   2.498  0.00  0.00    +0.000 C 
BRANCH  20  29
ATOM     21  C   UNL     1      -2.386  -1.177   3.206  0.00  0.00    +0.000 A 
ATOM     22  O   UNL     1      -2.847  -2.300   2.580  0.00  0.00    +0.000 OA
ATOM     23  C   UNL     1      -2.765  -2.077   1.239  0.00  0.00    +0.000 A 
ATOM     24  C   UNL     1      -3.178  -2.957   0.242  0.00  0.00    +0.000 A 
ATOM     25  C   UNL     1      -3.019  -2.526  -1.082  0.00  0.00    +0.000 A 
ATOM     26  C   UNL     1      -2.460  -1.280  -1.372  0.00  0.00    +0.000 A 
ATOM     27  C   UNL     1      -2.058  -0.416  -0.345  0.00  0.00    +0.000 A 
ATOM     28  C   UNL     1      -2.226  -0.822   0.995  0.00  0.00    +0.000 A 
ATOM     29  C   UNL     1      -2.005  -0.225   2.278  0.00  0.00    +0.000 A 
BRANCH  21  30
ATOM     30  C   UNL     1      -2.452  -1.188   4.691  0.00  0.00    +0.000 C 
BRANCH  30  31
ATOM     31  C   UNL     1      -3.762  -0.558   5.166  0.00  0.00    +0.000 C 
BRANCH  31  33
ATOM     32  C   UNL     1      -5.164   0.097   7.145  0.00  0.00    +0.000 C 
ATOM     33  C   UNL     1      -3.848  -0.513   6.688  0.00  0.00    +0.000 C 
ENDBRANCH  31  33
ENDBRANCH  30  31
ENDBRANCH  21  30
ENDBRANCH  20  29
ENDBRANCH  19  20
ENDBRANCH   1  19
TORSDOF 9
