REMARK  Name = 
REMARK  10 active torsions:
REMARK  status: ('A' for Active; 'I' for Inactive)
REMARK    1  A    between atoms: C_2  and  C_3
REMARK    2  A    between atoms: C_3  and  N_4
REMARK    3  A    between atoms: N_4  and  C_5
REMARK    4  A    between atoms: N_4  and  C_18
REMARK    5  A    between atoms: C_5  and  C_6
REMARK    6  A    between atoms: C_11  and  C_12
REMARK    7  A    between atoms: C_14  and  O_15
REMARK    8  A    between atoms: C_21  and  C_22
REMARK    9  A    between atoms: N_24  and  C_25
REMARK   10  A    between atoms: C_25  and  C_26
REMARK                            x       y       z     vdW  Elec       q    Type
REMARK                         _______ _______ _______ _____ _____    ______ ____
ROOT
ATOM      1  N   UNL     1      -2.228   0.519   1.459  0.00  0.00    +0.000 N 
ENDROOT
BRANCH   1   2
ATOM      2  C   UNL     1      -1.861  -0.069   2.682  0.00  0.00    +0.000 A 
ATOM      3  C   UNL     1      -0.587  -0.603   2.952  0.00  0.00    +0.000 A 
ATOM      4  C   UNL     1      -0.302  -1.424   4.067  0.00  0.00    +0.000 A 
ATOM      5  C   UNL     1      -1.250  -1.623   5.065  0.00  0.00    +0.000 A 
ATOM      6  C   UNL     1      -2.446  -0.910   4.944  0.00  0.00    +0.000 A 
ATOM      7  C   UNL     1      -2.743  -0.175   3.770  0.00  0.00    +0.000 A 
BRANCH   5   8
ATOM      8  C   UNL     1      -0.952  -2.597   6.177  0.00  0.00    +0.000 C 
ATOM      9  O   UNL     1       0.129  -3.174   6.224  0.00  0.00    +0.000 OA
ATOM     10  N   UNL     1      -1.965  -2.835   7.094  0.00  0.00    +0.000 N 
ATOM     11  H   UNL     1      -2.780  -2.285   7.046  0.00  0.00    +0.000 HD
BRANCH  10  12
ATOM     12  C   UNL     1      -1.879  -3.857   8.120  0.00  0.00    +0.000 C 
ATOM     13  C   UNL     1      -1.273  -3.337   9.410  0.00  0.00    +0.000 C 
ENDBRANCH  10  12
ENDBRANCH   5   8
ENDBRANCH   1   2
BRANCH   1  14
ATOM     14  C   UNL     1      -1.797   0.076   0.060  0.00  0.00    +0.000 C 
BRANCH  14  16
ATOM     15  C   UNL     1      -0.031  -2.104   0.383  0.00  0.00    +0.000 C 
ATOM     16  C   UNL     1      -0.847  -1.098   0.234  0.00  0.00    +0.000 C 
ENDBRANCH  14  16
ENDBRANCH   1  14
BRANCH   1  17
ATOM     17  C   UNL     1      -3.173   1.642   1.457  0.00  0.00    +0.000 C 
BRANCH  17  18
ATOM     18  C   UNL     1      -2.414   2.947   1.462  0.00  0.00    +0.000 A 
ATOM     19  C   UNL     1      -1.567   3.287   2.523  0.00  0.00    +0.000 A 
ATOM     20  C   UNL     1      -0.778   4.441   2.458  0.00  0.00    +0.000 A 
ATOM     21  C   UNL     1      -0.831   5.294   1.366  0.00  0.00    +0.000 A 
ATOM     22  N   UNL     1      -0.036   6.372   1.333  0.00  0.00    +0.000 NA
ATOM     23  C   UNL     1      -0.127   7.182   0.261  0.00  0.00    +0.000 A 
ATOM     24  C   UNL     1       0.787   8.364   0.227  0.00  0.00    +0.000 C 
ATOM     25  N   UNL     1      -0.963   7.006  -0.778  0.00  0.00    +0.000 NA
ATOM     26  C   UNL     1      -1.727   5.908  -0.694  0.00  0.00    +0.000 A 
ATOM     27  C   UNL     1      -1.717   4.990   0.335  0.00  0.00    +0.000 A 
ATOM     28  C   UNL     1      -2.511   3.826   0.379  0.00  0.00    +0.000 A 
BRANCH  26  29
ATOM     29  O   UNL     1      -2.579   5.775  -1.751  0.00  0.00    +0.000 OA
ATOM     30  H   UNL     1      -2.571   6.408  -2.442  0.00  0.00    +0.000 HD
ENDBRANCH  26  29
ENDBRANCH  17  18
ENDBRANCH   1  17
TORSDOF 8
