REMARK  Name = 
REMARK  7 active torsions:
REMARK  status: ('A' for Active; 'I' for Inactive)
REMARK    1  A    between atoms: C_1  and  C_2
REMARK    2  A    between atoms: C_2  and  N_3
REMARK    3  A    between atoms: C_7  and  N_8
REMARK    4  A    between atoms: N_8  and  C_9
REMARK    5  A    between atoms: C_9  and  C_10
REMARK    6  A    between atoms: C_9  and  C_11
REMARK    7  A    between atoms: C_19  and  C_20
REMARK                            x       y       z     vdW  Elec       q    Type
REMARK                         _______ _______ _______ _____ _____    ______ ____
ROOT
ATOM      1  N   UNL     1       1.026  -1.284  -2.075  0.00  0.00    +0.000 N 
ATOM      2  N   UNL     1       0.400  -2.350  -1.530  0.00  0.00    +0.000 NA
ATOM      3  C   UNL     1       0.914  -3.377  -2.210  0.00  0.00    +0.000 A 
ATOM      4  C   UNL     1       1.884  -2.992  -3.167  0.00  0.00    +0.000 A 
ATOM      5  C   UNL     1       2.710  -3.618  -4.123  0.00  0.00    +0.000 A 
ATOM      6  C   UNL     1       3.512  -2.748  -4.928  0.00  0.00    +0.000 A 
ATOM      7  C   UNL     1       4.407  -3.234  -5.918  0.00  0.00    +0.000 A 
ATOM      8  C   UNL     1       5.203  -2.374  -6.681  0.00  0.00    +0.000 A 
ATOM      9  C   UNL     1       5.122  -1.006  -6.455  0.00  0.00    +0.000 A 
ATOM     10  C   UNL     1       4.246  -0.517  -5.474  0.00  0.00    +0.000 A 
ATOM     11  C   UNL     1       3.443  -1.349  -4.706  0.00  0.00    +0.000 A 
ATOM     12  N   UNL     1       2.662  -0.761  -3.794  0.00  0.00    +0.000 NA
ATOM     13  C   UNL     1       1.916  -1.611  -3.066  0.00  0.00    +0.000 A 
ENDROOT
BRANCH   1  15
ATOM     14  C   UNL     1      -0.511   0.618  -2.317  0.00  0.00    +0.000 C 
ATOM     15  C   UNL     1       0.696   0.043  -1.599  0.00  0.00    +0.000 C 
ENDBRANCH   1  15
BRANCH   5  16
ATOM     16  N   UNL     1       2.808  -4.999  -4.289  0.00  0.00    +0.000 N 
ATOM     17  H   UNL     1       2.932  -5.350  -5.200  0.00  0.00    +0.000 HD
BRANCH  16  18
ATOM     18  C   UNL     1       2.737  -5.953  -3.186  0.00  0.00    +0.000 C 
ATOM     19  C   UNL     1       1.649  -6.981  -3.492  0.00  0.00    +0.000 C 
BRANCH  18  20
ATOM     20  C   UNL     1       4.136  -6.577  -2.933  0.00  0.00    +0.000 C 
ATOM     21  C   UNL     1       5.121  -5.492  -2.443  0.00  0.00    +0.000 C 
ATOM     22  C   UNL     1       6.528  -6.029  -2.220  0.00  0.00    +0.000 C 
ATOM     23  C   UNL     1       7.054  -6.709  -3.477  0.00  0.00    +0.000 C 
ATOM     24  C   UNL     1       6.126  -7.835  -3.914  0.00  0.00    +0.000 C 
ATOM     25  C   UNL     1       4.700  -7.337  -4.147  0.00  0.00    +0.000 C 
ENDBRANCH  18  20
ENDBRANCH  16  18
ENDBRANCH   5  16
BRANCH   8  26
ATOM     26  C   UNL     1       6.096  -2.899  -7.674  0.00  0.00    +0.000 C 
ATOM     27  N   UNL     1       6.816  -3.326  -8.480  0.00  0.00    +0.000 NA
ENDBRANCH   8  26
TORSDOF 5
