REMARK  Name = 
REMARK  13 active torsions:
REMARK  status: ('A' for Active; 'I' for Inactive)
REMARK    1  A    between atoms: C_2  and  C_3
REMARK    2  A    between atoms: C_3  and  C_4
REMARK    3  A    between atoms: C_4  and  C_5
REMARK    4  A    between atoms: C_6  and  C_7
REMARK    5  A    between atoms: C_7  and  O_9
REMARK    6  A    between atoms: O_9  and  C_10
REMARK    7  A    between atoms: C_10  and  C_11
REMARK    8  A    between atoms: C_10  and  C_16
REMARK    9  A    between atoms: C_11  and  C_12
REMARK   10  A    between atoms: C_13  and  C_14
REMARK   11  A    between atoms: C_13  and  C_15
REMARK   12  A    between atoms: C_21  and  O_22
REMARK   13  A    between atoms: C_25  and  O_26
REMARK                            x       y       z     vdW  Elec       q    Type
REMARK                         _______ _______ _______ _____ _____    ______ ____
ROOT
ATOM      1  C   UNL     1      -0.095  -2.517   8.450  0.00  0.00    +0.000 C 
ATOM      2  C   UNL     1      -0.904  -3.578   8.309  0.00  0.00    +0.000 C 
ATOM      3  C   UNL     1      -0.918  -4.713   9.248  0.00  0.00    +0.000 C 
ATOM      4  O   UNL     1      -1.736  -5.620   9.130  0.00  0.00    +0.000 OA
ATOM      5  C   UNL     1       0.151  -4.788  10.255  0.00  0.00    +0.000 A 
ATOM      6  C   UNL     1       0.332  -5.951  11.013  0.00  0.00    +0.000 A 
ATOM      7  C   UNL     1       1.383  -6.040  11.929  0.00  0.00    +0.000 A 
ATOM      8  C   UNL     1       2.271  -4.976  12.069  0.00  0.00    +0.000 A 
ATOM      9  C   UNL     1       2.089  -3.817  11.311  0.00  0.00    +0.000 A 
ATOM     10  C   UNL     1       1.012  -3.703  10.422  0.00  0.00    +0.000 A 
ATOM     11  C   UNL     1       0.723  -2.442   9.696  0.00  0.00    +0.000 C 
ATOM     12  O   UNL     1       1.069  -1.362  10.148  0.00  0.00    +0.000 OA
ENDROOT
BRANCH   6  13
ATOM     13  O   UNL     1      -0.466  -7.055  10.905  0.00  0.00    +0.000 OA
ATOM     14  H   UNL     1      -1.188  -7.055  10.307  0.00  0.00    +0.000 HD
ENDBRANCH   6  13
BRANCH   9  15
ATOM     15  O   UNL     1       3.009  -2.812  11.413  0.00  0.00    +0.000 OA
ATOM     16  H   UNL     1       3.727  -2.894  12.009  0.00  0.00    +0.000 HD
ENDBRANCH   9  15
BRANCH   1  17
ATOM     17  C   UNL     1       0.130  -1.408   7.430  0.00  0.00    +0.000 C 
BRANCH  17  18
ATOM     18  O   UNL     1      -0.368  -0.136   7.914  0.00  0.00    +0.000 OA
BRANCH  18  19
ATOM     19  C   UNL     1       0.547   0.853   8.078  0.00  0.00    +0.000 C 
ATOM     20  O   UNL     1       1.754   0.729   8.209  0.00  0.00    +0.000 OA
BRANCH  19  22
ATOM     21  C   UNL     1      -1.107   2.419   7.103  0.00  0.00    +0.000 C 
ATOM     22  C   UNL     1      -0.085   2.189   7.945  0.00  0.00    +0.000 C 
BRANCH  21  23
ATOM     23  C   UNL     1      -1.735   3.769   6.866  0.00  0.00    +0.000 C 
BRANCH  23  24
ATOM     24  C   UNL     1      -3.212   3.606   6.480  0.00  0.00    +0.000 C 
BRANCH  24  26
ATOM     25  C   UNL     1      -4.560   5.318   5.235  0.00  0.00    +0.000 C 
ATOM     26  C   UNL     1      -3.939   4.914   6.351  0.00  0.00    +0.000 C 
ENDBRANCH  24  26
ENDBRANCH  23  24
ENDBRANCH  21  23
ENDBRANCH  19  22
ENDBRANCH  18  19
ENDBRANCH  17  18
BRANCH  17  27
ATOM     27  C   UNL     1      -0.587  -1.574   6.058  0.00  0.00    +0.000 C 
BRANCH  27  28
ATOM     28  C   UNL     1      -0.329  -2.841   5.277  0.00  0.00    +0.000 C 
ATOM     29  C   UNL     1      -1.276  -3.539   4.609  0.00  0.00    +0.000 C 
ATOM     30  C   UNL     1      -0.952  -4.809   3.873  0.00  0.00    +0.000 C 
ATOM     31  C   UNL     1      -2.715  -3.107   4.533  0.00  0.00    +0.000 C 
ENDBRANCH  27  28
ENDBRANCH  17  27
ENDBRANCH   1  17
TORSDOF 11
