REMARK  Name = 
REMARK  8 active torsions:
REMARK  status: ('A' for Active; 'I' for Inactive)
REMARK    1  A    between atoms: C_1  and  C_2
REMARK    2  A    between atoms: C_2  and  C_3
REMARK    3  A    between atoms: C_6  and  C_7
REMARK    4  A    between atoms: C_9  and  C_10
REMARK    5  A    between atoms: N_13  and  C_14
REMARK    6  A    between atoms: C_14  and  C_15
REMARK    7  A    between atoms: C_18  and  C_19
REMARK    8  A    between atoms: C_24  and  C_25
REMARK                            x       y       z     vdW  Elec       q    Type
REMARK                         _______ _______ _______ _____ _____    ______ ____
ROOT
ATOM      1  C   UNL     1       2.478  -1.676   2.816  0.00  0.00    +0.000 A 
ATOM      2  C   UNL     1       2.949  -2.597   3.753  0.00  0.00    +0.000 A 
ATOM      3  C   UNL     1       2.544  -2.530   5.087  0.00  0.00    +0.000 A 
ATOM      4  C   UNL     1       1.701  -1.505   5.561  0.00  0.00    +0.000 A 
ATOM      5  C   UNL     1       1.333  -0.525   4.628  0.00  0.00    +0.000 A 
ATOM      6  C   UNL     1       1.669  -0.631   3.269  0.00  0.00    +0.000 A 
ENDROOT
BRANCH   4   7
ATOM      7  C   UNL     1       1.241  -1.498   6.984  0.00  0.00    +0.000 A 
ATOM      8  C   UNL     1       2.153  -1.918   7.986  0.00  0.00    +0.000 A 
ATOM      9  C   UNL     1       1.815  -1.969   9.342  0.00  0.00    +0.000 A 
ATOM     10  C   UNL     1       0.554  -1.569   9.751  0.00  0.00    +0.000 A 
ATOM     11  C   UNL     1      -0.368  -1.136   8.801  0.00  0.00    +0.000 A 
ATOM     12  C   UNL     1      -0.055  -1.110   7.422  0.00  0.00    +0.000 A 
BRANCH  12  13
ATOM     13  C   UNL     1      -1.121  -0.683   6.522  0.00  0.00    +0.000 C 
ATOM     14  N   UNL     1      -1.423  -1.309   5.335  0.00  0.00    +0.000 NA
ATOM     15  N   UNL     1      -2.387  -0.602   4.761  0.00  0.00    +0.000 NA
ATOM     16  N   UNL     1      -2.646   0.379   5.629  0.00  0.00    +0.000 N 
ATOM     17  N   UNL     1      -1.915   0.379   6.755  0.00  0.00    +0.000 NA
ATOM     18  H   UNL     1      -3.332   1.062   5.453  0.00  0.00    +0.000 HD
ENDBRANCH  12  13
ENDBRANCH   4   7
BRANCH   1  19
ATOM     19  C   UNL     1       2.801  -1.823   1.350  0.00  0.00    +0.000 C 
BRANCH  19  30
ATOM     20  C   UNL     1       1.889  -4.046   0.475  0.00  0.00    +0.000 A 
ATOM     21  N   UNL     1       0.867  -4.452  -0.263  0.00  0.00    +0.000 NA
ATOM     22  C   UNL     1       0.171  -3.318  -0.596  0.00  0.00    +0.000 A 
ATOM     23  C   UNL     1      -0.968  -3.140  -1.395  0.00  0.00    +0.000 A 
ATOM     24  C   UNL     1      -1.680  -4.283  -2.051  0.00  0.00    +0.000 C 
ATOM     25  C   UNL     1      -1.391  -1.812  -1.574  0.00  0.00    +0.000 A 
ATOM     26  C   UNL     1      -0.696  -0.757  -0.972  0.00  0.00    +0.000 A 
ATOM     27  C   UNL     1      -1.138   0.660  -1.201  0.00  0.00    +0.000 C 
ATOM     28  N   UNL     1       0.400  -0.908  -0.187  0.00  0.00    +0.000 NA
ATOM     29  C   UNL     1       0.769  -2.195  -0.043  0.00  0.00    +0.000 A 
ATOM     30  N   UNL     1       1.845  -2.676   0.661  0.00  0.00    +0.000 N 
BRANCH  20  32
ATOM     31  C   UNL     1       2.415  -6.059   1.866  0.00  0.00    +0.000 C 
ATOM     32  C   UNL     1       2.965  -4.957   0.975  0.00  0.00    +0.000 C 
ENDBRANCH  20  32
ENDBRANCH  19  30
ENDBRANCH   1  19
TORSDOF 5
