REMARK  Name = 
REMARK  5 active torsions:
REMARK  status: ('A' for Active; 'I' for Inactive)
REMARK    1  A    between atoms: O_1  and  C_2
REMARK    2  A    between atoms: C_2  and  C_3
REMARK    3  A    between atoms: C_6  and  C_7
REMARK    4  A    between atoms: C_9  and  C_10
REMARK    5  A    between atoms: C_16  and  C_17
REMARK                            x       y       z     vdW  Elec       q    Type
REMARK                         _______ _______ _______ _____ _____    ______ ____
ROOT
ATOM      1  C   UNL     1       1.905   2.920   5.680  0.00  0.00    +0.000 A 
ATOM      2  N   UNL     1       1.170   3.641   6.505  0.00  0.00    +0.000 NA
ATOM      3  C   UNL     1       1.947   3.848   7.635  0.00  0.00    +0.000 A 
ATOM      4  C   UNL     1       3.221   3.317   7.457  0.00  0.00    +0.000 A 
ATOM      5  N   UNL     1       3.146   2.711   6.225  0.00  0.00    +0.000 N 
ATOM      6  H   UNL     1       3.874   2.203   5.798  0.00  0.00    +0.000 HD
ENDROOT
BRANCH   4   7
ATOM      7  C   UNL     1       4.442   3.303   8.263  0.00  0.00    +0.000 A 
ATOM      8  C   UNL     1       4.753   4.389   9.119  0.00  0.00    +0.000 A 
ATOM      9  C   UNL     1       5.852   4.356   9.979  0.00  0.00    +0.000 A 
ATOM     10  C   UNL     1       6.645   3.234   9.943  0.00  0.00    +0.000 A 
ATOM     11  C   UNL     1       6.387   2.195   9.081  0.00  0.00    +0.000 A 
ATOM     12  C   UNL     1       5.310   2.202   8.227  0.00  0.00    +0.000 A 
ATOM     13  O   UNL     1       7.286   1.180   9.218  0.00  0.00    +0.000 OA
ATOM     14  C   UNL     1       8.004   1.628  10.383  0.00  0.00    +0.000 C 
ATOM     15  O   UNL     1       7.724   2.999  10.734  0.00  0.00    +0.000 OA
ENDBRANCH   4   7
BRANCH   1  19
ATOM     16  C   UNL     1       0.859   1.643   1.722  0.00  0.00    +0.000 A 
ATOM     17  C   UNL     1       0.285   2.788   2.290  0.00  0.00    +0.000 A 
ATOM     18  C   UNL     1       0.617   3.183   3.589  0.00  0.00    +0.000 A 
ATOM     19  C   UNL     1       1.537   2.451   4.345  0.00  0.00    +0.000 A 
ATOM     20  C   UNL     1       2.095   1.292   3.787  0.00  0.00    +0.000 A 
ATOM     21  C   UNL     1       1.755   0.889   2.491  0.00  0.00    +0.000 A 
BRANCH  16  22
ATOM     22  C   UNL     1       0.430   1.197   0.348  0.00  0.00    +0.000 C 
BRANCH  22  23
ATOM     23  O   UNL     1       1.484   0.546  -0.351  0.00  0.00    +0.000 OA
ATOM     24  H   UNL     1       1.171   0.274  -1.228  0.00  0.00    +0.000 HD
ENDBRANCH  22  23
ENDBRANCH  16  22
ENDBRANCH   1  19
BRANCH   3  25
ATOM     25  C   UNL     1       1.448   4.541   8.818  0.00  0.00    +0.000 A 
ATOM     26  C   UNL     1       0.512   5.561   8.701  0.00  0.00    +0.000 A 
ATOM     27  C   UNL     1       0.076   6.202   9.860  0.00  0.00    +0.000 A 
ATOM     28  C   UNL     1       0.595   5.820  11.093  0.00  0.00    +0.000 A 
ATOM     29  C   UNL     1       1.530   4.803  11.120  0.00  0.00    +0.000 A 
ATOM     30  N   UNL     1       1.949   4.149  10.018  0.00  0.00    +0.000 NA
ENDBRANCH   3  25
TORSDOF 5
