REMARK  Name = 
REMARK  7 active torsions:
REMARK  status: ('A' for Active; 'I' for Inactive)
REMARK    1  A    between atoms: C_1  and  N_2
REMARK    2  A    between atoms: C_4  and  C_5
REMARK    3  A    between atoms: C_6  and  C_7
REMARK    4  A    between atoms: N_9  and  C_10
REMARK    5  A    between atoms: C_10  and  C_11
REMARK    6  A    between atoms: C_11  and  C_12
REMARK    7  A    between atoms: C_12  and  O_13
REMARK                            x       y       z     vdW  Elec       q    Type
REMARK                         _______ _______ _______ _____ _____    ______ ____
ROOT
ATOM      1  C   UNL     1       0.953  -3.216  -0.017  0.00  0.00    +0.000 C 
ATOM      2  C   UNL     1       1.482  -4.003   0.931  0.00  0.00    +0.000 C 
ATOM      3  C   UNL     1       1.291  -5.404   0.504  0.00  0.00    +0.000 C 
ATOM      4  O   UNL     1       1.650  -6.405   1.095  0.00  0.00    +0.000 OA
ATOM      5  N   UNL     1       0.644  -5.373  -0.681  0.00  0.00    +0.000 N 
ATOM      6  C   UNL     1       0.401  -4.101  -1.061  0.00  0.00    +0.000 C 
ATOM      7  O   UNL     1      -0.176  -3.761  -2.080  0.00  0.00    +0.000 OA
ATOM      8  H   UNL     1       0.385  -6.170  -1.197  0.00  0.00    +0.000 HD
ENDROOT
BRANCH   1  12
ATOM      9  C   UNL     1       2.229   1.431  -0.964  0.00  0.00    +0.000 C 
ATOM     10  N   UNL     1       1.486   0.294  -0.469  0.00  0.00    +0.000 N 
ATOM     11  C   UNL     1       1.841  -1.013  -0.671  0.00  0.00    +0.000 A 
ATOM     12  C   UNL     1       0.894  -1.803  -0.057  0.00  0.00    +0.000 A 
ATOM     13  C   UNL     1      -0.076  -0.946   0.537  0.00  0.00    +0.000 A 
ATOM     14  C   UNL     1      -1.257  -1.152   1.284  0.00  0.00    +0.000 A 
ATOM     15  C   UNL     1      -1.984  -0.052   1.751  0.00  0.00    +0.000 A 
ATOM     16  C   UNL     1      -1.556   1.245   1.483  0.00  0.00    +0.000 A 
ATOM     17  C   UNL     1      -0.398   1.479   0.738  0.00  0.00    +0.000 A 
ATOM     18  C   UNL     1       0.326   0.369   0.274  0.00  0.00    +0.000 A 
ENDBRANCH   1  12
BRANCH   2  19
ATOM     19  C   UNL     1       2.071  -3.631   2.163  0.00  0.00    +0.000 A 
ATOM     20  C   UNL     1       3.394  -3.302   2.350  0.00  0.00    +0.000 A 
ATOM     21  N   UNL     1       3.556  -2.965   3.673  0.00  0.00    +0.000 N 
ATOM     22  C   UNL     1       2.372  -3.155   4.361  0.00  0.00    +0.000 A 
ATOM     23  C   UNL     1       2.051  -3.036   5.724  0.00  0.00    +0.000 A 
ATOM     24  C   UNL     1       0.718  -3.220   6.110  0.00  0.00    +0.000 A 
ATOM     25  C   UNL     1      -0.265  -3.519   5.174  0.00  0.00    +0.000 A 
ATOM     26  C   UNL     1       0.069  -3.684   3.829  0.00  0.00    +0.000 A 
ATOM     27  C   UNL     1       1.406  -3.513   3.414  0.00  0.00    +0.000 A 
BRANCH  21  28
ATOM     28  C   UNL     1       4.801  -2.469   4.236  0.00  0.00    +0.000 C 
BRANCH  28  29
ATOM     29  C   UNL     1       5.303  -1.164   3.616  0.00  0.00    +0.000 C 
BRANCH  29  30
ATOM     30  C   UNL     1       4.336   0.006   3.760  0.00  0.00    +0.000 C 
BRANCH  30  31
ATOM     31  O   UNL     1       4.911   1.165   3.161  0.00  0.00    +0.000 OA
ATOM     32  H   UNL     1       5.749   1.375   3.603  0.00  0.00    +0.000 HD
ENDBRANCH  30  31
ENDBRANCH  29  30
ENDBRANCH  28  29
ENDBRANCH  21  28
ENDBRANCH   2  19
TORSDOF 6
