REMARK  Name = 
REMARK  10 active torsions:
REMARK  status: ('A' for Active; 'I' for Inactive)
REMARK    1  A    between atoms: C_1  and  C_2
REMARK    2  A    between atoms: C_2  and  C_3
REMARK    3  A    between atoms: C_4  and  C_5
REMARK    4  A    between atoms: C_5  and  C_6
REMARK    5  A    between atoms: C_6  and  O_7
REMARK    6  A    between atoms: C_6  and  C_16
REMARK    7  A    between atoms: O_7  and  C_8
REMARK    8  A    between atoms: C_8  and  C_10
REMARK    9  A    between atoms: C_21  and  O_22
REMARK   10  A    between atoms: C_25  and  O_26
REMARK                            x       y       z     vdW  Elec       q    Type
REMARK                         _______ _______ _______ _____ _____    ______ ____
ROOT
ATOM      1  C   UNL     1       3.256   0.969   2.927  0.00  0.00    +0.000 C 
ATOM      2  C   UNL     1       3.064  -0.323   3.229  0.00  0.00    +0.000 C 
ATOM      3  C   UNL     1       4.042  -1.355   2.854  0.00  0.00    +0.000 C 
ATOM      4  O   UNL     1       3.809  -2.540   3.059  0.00  0.00    +0.000 OA
ATOM      5  C   UNL     1       5.195  -0.943   2.038  0.00  0.00    +0.000 A 
ATOM      6  C   UNL     1       5.936  -1.904   1.337  0.00  0.00    +0.000 A 
ATOM      7  C   UNL     1       7.015  -1.525   0.551  0.00  0.00    +0.000 A 
ATOM      8  C   UNL     1       7.347  -0.175   0.434  0.00  0.00    +0.000 A 
ATOM      9  C   UNL     1       6.583   0.789   1.094  0.00  0.00    +0.000 A 
ATOM     10  C   UNL     1       5.503   0.413   1.905  0.00  0.00    +0.000 A 
ATOM     11  C   UNL     1       4.626   1.418   2.555  0.00  0.00    +0.000 C 
ATOM     12  O   UNL     1       4.977   2.568   2.779  0.00  0.00    +0.000 OA
ENDROOT
BRANCH   6  13
ATOM     13  O   UNL     1       5.628  -3.238   1.336  0.00  0.00    +0.000 OA
ATOM     14  H   UNL     1       4.909  -3.553   1.848  0.00  0.00    +0.000 HD
ENDBRANCH   6  13
BRANCH   9  15
ATOM     15  O   UNL     1       6.875   2.106   0.893  0.00  0.00    +0.000 OA
ATOM     16  H   UNL     1       7.599   2.348   0.350  0.00  0.00    +0.000 HD
ENDBRANCH   9  15
BRANCH   1  17
ATOM     17  C   UNL     1       2.145   1.960   2.630  0.00  0.00    +0.000 C 
BRANCH  17  18
ATOM     18  C   UNL     1       0.704   1.379   2.660  0.00  0.00    +0.000 C 
BRANCH  18  22
ATOM     19  C   UNL     1      -0.932  -1.112   3.375  0.00  0.00    +0.000 C 
ATOM     20  C   UNL     1      -0.553  -0.042   4.362  0.00  0.00    +0.000 C 
ATOM     21  C   UNL     1      -1.072  -0.197   5.766  0.00  0.00    +0.000 C 
ATOM     22  C   UNL     1       0.180   1.042   4.036  0.00  0.00    +0.000 C 
ENDBRANCH  18  22
ENDBRANCH  17  18
BRANCH  17  23
ATOM     23  O   UNL     1       2.187   3.157   3.425  0.00  0.00    +0.000 OA
BRANCH  23  24
ATOM     24  C   UNL     1       1.678   4.242   2.768  0.00  0.00    +0.000 C 
ATOM     25  O   UNL     1       1.357   4.269   1.591  0.00  0.00    +0.000 OA
BRANCH  24  26
ATOM     26  C   UNL     1       1.353   5.344   3.689  0.00  0.00    +0.000 A 
ATOM     27  C   UNL     1       0.281   6.184   3.347  0.00  0.00    +0.000 A 
ATOM     28  C   UNL     1      -0.116   7.202   4.211  0.00  0.00    +0.000 A 
ATOM     29  C   UNL     1       0.567   7.393   5.410  0.00  0.00    +0.000 A 
ATOM     30  C   UNL     1       1.656   6.579   5.736  0.00  0.00    +0.000 A 
ATOM     31  C   UNL     1       2.054   5.554   4.878  0.00  0.00    +0.000 A 
ENDBRANCH  24  26
ENDBRANCH  23  24
ENDBRANCH  17  23
ENDBRANCH   1  17
TORSDOF 8
