REMARK  Name = 
REMARK  11 active torsions:
REMARK  status: ('A' for Active; 'I' for Inactive)
REMARK    1  A    between atoms: C_2  and  C_3
REMARK    2  A    between atoms: C_3  and  N_4
REMARK    3  A    between atoms: N_4  and  C_5
REMARK    4  A    between atoms: N_4  and  C_18
REMARK    5  A    between atoms: C_5  and  C_6
REMARK    6  A    between atoms: C_11  and  C_12
REMARK    7  A    between atoms: C_14  and  O_15
REMARK    8  A    between atoms: C_21  and  C_22
REMARK    9  A    between atoms: N_24  and  C_25
REMARK   10  A    between atoms: C_25  and  C_26
REMARK   11  A    between atoms: C_26  and  C_27
REMARK                            x       y       z     vdW  Elec       q    Type
REMARK                         _______ _______ _______ _____ _____    ______ ____
ROOT
ATOM      1  N   UNL     1      -2.136   0.063   1.432  0.00  0.00    +0.000 N 
ENDROOT
BRANCH   1   2
ATOM      2  C   UNL     1      -1.812  -0.812   2.498  0.00  0.00    +0.000 A 
ATOM      3  C   UNL     1      -0.850  -1.838   2.460  0.00  0.00    +0.000 A 
ATOM      4  C   UNL     1      -0.712  -2.902   3.362  0.00  0.00    +0.000 A 
ATOM      5  C   UNL     1      -1.423  -2.877   4.525  0.00  0.00    +0.000 A 
ATOM      6  C   UNL     1      -2.175  -1.732   4.786  0.00  0.00    +0.000 A 
ATOM      7  C   UNL     1      -2.368  -0.735   3.784  0.00  0.00    +0.000 A 
BRANCH   5   8
ATOM      8  C   UNL     1      -1.316  -4.045   5.447  0.00  0.00    +0.000 C 
ATOM      9  O   UNL     1      -0.323  -4.749   5.467  0.00  0.00    +0.000 OA
ATOM     10  N   UNL     1      -2.454  -4.284   6.185  0.00  0.00    +0.000 N 
ATOM     11  H   UNL     1      -3.198  -3.643   6.123  0.00  0.00    +0.000 HD
BRANCH  10  12
ATOM     12  C   UNL     1      -2.602  -5.436   7.046  0.00  0.00    +0.000 C 
BRANCH  12  13
ATOM     13  C   UNL     1      -2.103  -5.172   8.461  0.00  0.00    +0.000 C 
ATOM     14  C   UNL     1      -2.755  -3.954   9.099  0.00  0.00    +0.000 C 
ENDBRANCH  12  13
ENDBRANCH  10  12
ENDBRANCH   5   8
ENDBRANCH   1   2
BRANCH   1  15
ATOM     15  C   UNL     1      -1.779  -0.003  -0.089  0.00  0.00    +0.000 C 
BRANCH  15  17
ATOM     16  C   UNL     1       0.055  -2.140  -0.299  0.00  0.00    +0.000 C 
ATOM     17  C   UNL     1      -0.792  -1.153  -0.202  0.00  0.00    +0.000 C 
ENDBRANCH  15  17
ENDBRANCH   1  15
BRANCH   1  18
ATOM     18  C   UNL     1      -3.146   1.102   1.675  0.00  0.00    +0.000 C 
BRANCH  18  19
ATOM     19  C   UNL     1      -2.514   2.446   1.954  0.00  0.00    +0.000 A 
ATOM     20  C   UNL     1      -1.128   2.647   1.969  0.00  0.00    +0.000 A 
ATOM     21  C   UNL     1      -0.593   3.933   2.056  0.00  0.00    +0.000 A 
ATOM     22  C   UNL     1      -1.408   5.043   2.186  0.00  0.00    +0.000 A 
ATOM     23  N   UNL     1      -0.847   6.256   2.255  0.00  0.00    +0.000 NA
ATOM     24  C   UNL     1      -1.662   7.309   2.442  0.00  0.00    +0.000 A 
ATOM     25  C   UNL     1      -1.005   8.647   2.555  0.00  0.00    +0.000 C 
ATOM     26  N   UNL     1      -2.998   7.242   2.563  0.00  0.00    +0.000 NA
ATOM     27  C   UNL     1      -3.510   6.010   2.467  0.00  0.00    +0.000 A 
ATOM     28  C   UNL     1      -2.785   4.846   2.263  0.00  0.00    +0.000 A 
ATOM     29  C   UNL     1      -3.343   3.556   2.135  0.00  0.00    +0.000 A 
BRANCH  27  30
ATOM     30  O   UNL     1      -4.860   5.975   2.636  0.00  0.00    +0.000 OA
ATOM     31  H   UNL     1      -5.335   6.771   2.773  0.00  0.00    +0.000 HD
ENDBRANCH  27  30
ENDBRANCH  18  19
ENDBRANCH   1  18
TORSDOF 9
