REMARK  Name = 
REMARK  9 active torsions:
REMARK  status: ('A' for Active; 'I' for Inactive)
REMARK    1  A    between atoms: C_1  and  O_2
REMARK    2  A    between atoms: O_2  and  C_3
REMARK    3  A    between atoms: C_11  and  O_12
REMARK    4  A    between atoms: C_13  and  C_14
REMARK    5  A    between atoms: C_13  and  C_16
REMARK    6  A    between atoms: C_14  and  O_15
REMARK    7  A    between atoms: C_16  and  C_17
REMARK    8  A    between atoms: C_17  and  C_18
REMARK    9  A    between atoms: N_28  and  C_29
REMARK                            x       y       z     vdW  Elec       q    Type
REMARK                         _______ _______ _______ _____ _____    ______ ____
ROOT
ATOM      1  C   UNL     1       1.412  -2.115   2.148  0.00  0.00    +0.000 A 
ATOM      2  C   UNL     1       1.705  -3.158   1.262  0.00  0.00    +0.000 A 
ATOM      3  C   UNL     1       1.966  -2.919  -0.094  0.00  0.00    +0.000 A 
ATOM      4  C   UNL     1       1.958  -1.610  -0.570  0.00  0.00    +0.000 A 
ATOM      5  C   UNL     1       1.902  -0.585   0.349  0.00  0.00    +0.000 A 
ATOM      6  C   UNL     1       1.557  -0.812   1.675  0.00  0.00    +0.000 A 
ATOM      7  O   UNL     1       1.279   0.361   2.321  0.00  0.00    +0.000 OA
ATOM      8  C   UNL     1       1.460   1.433   1.343  0.00  0.00    +0.000 C 
ATOM      9  C   UNL     1       0.178   2.268   1.156  0.00  0.00    +0.000 C 
ATOM     10  C   UNL     1      -0.850   1.741   0.121  0.00  0.00    +0.000 C 
ATOM     11  C   UNL     1      -0.179   1.502  -1.273  0.00  0.00    +0.000 C 
ATOM     12  C   UNL     1       1.329   1.235  -1.274  0.00  0.00    +0.000 C 
ATOM     13  C   UNL     1       1.846   0.247  -2.369  0.00  0.00    +0.000 C 
ATOM     14  C   UNL     1       1.766  -1.275  -2.020  0.00  0.00    +0.000 C 
ATOM     15  N   UNL     1       3.259   0.549  -2.669  0.00  0.00    +0.000 N 
ATOM     16  C   UNL     1       3.393   1.588  -3.679  0.00  0.00    +0.000 C 
ATOM     17  C   UNL     1       4.119   0.710  -1.489  0.00  0.00    +0.000 C 
ATOM     18  C   UNL     1       3.500   1.280  -0.191  0.00  0.00    +0.000 C 
ATOM     19  C   UNL     1       2.025   0.865   0.034  0.00  0.00    +0.000 C 
ATOM     20  H   UNL     1       3.641  -0.296  -3.096  0.00  0.00    +0.000 HD
ENDROOT
BRANCH   1  22
ATOM     21  C   UNL     1       0.624  -1.629   4.364  0.00  0.00    +0.000 C 
ATOM     22  O   UNL     1       0.934  -2.558   3.344  0.00  0.00    +0.000 OA
ENDBRANCH   1  22
BRANCH   9  23
ATOM     23  O   UNL     1      -0.461   2.508   2.414  0.00  0.00    +0.000 OA
ATOM     24  H   UNL     1      -0.775   1.668   2.783  0.00  0.00    +0.000 HD
ENDBRANCH   9  23
BRANCH  10  25
ATOM     25  C   UNL     1      -2.000   2.781  -0.015  0.00  0.00    +0.000 C 
BRANCH  25  26
ATOM     26  O   UNL     1      -1.515   4.081  -0.346  0.00  0.00    +0.000 OA
ATOM     27  H   UNL     1      -0.928   4.397   0.359  0.00  0.00    +0.000 HD
ENDBRANCH  25  26
ENDBRANCH  10  25
BRANCH  10  28
ATOM     28  C   UNL     1      -1.475   0.376   0.456  0.00  0.00    +0.000 C 
BRANCH  28  29
ATOM     29  C   UNL     1      -2.218   0.104   1.762  0.00  0.00    +0.000 C 
BRANCH  29  30
ATOM     30  C   UNL     1      -2.934  -1.239   1.675  0.00  0.00    +0.000 A 
ATOM     31  C   UNL     1      -2.570  -2.232   0.741  0.00  0.00    +0.000 A 
ATOM     32  C   UNL     1      -3.406  -3.310   0.476  0.00  0.00    +0.000 A 
ATOM     33  C   UNL     1      -4.581  -3.461   1.198  0.00  0.00    +0.000 A 
ATOM     34  C   UNL     1      -4.882  -2.569   2.228  0.00  0.00    +0.000 A 
ATOM     35  C   UNL     1      -4.059  -1.467   2.473  0.00  0.00    +0.000 A 
ENDBRANCH  29  30
ENDBRANCH  28  29
ENDBRANCH  10  28
TORSDOF 7
