REMARK  Name = 
REMARK  5 active torsions:
REMARK  status: ('A' for Active; 'I' for Inactive)
REMARK    1  A    between atoms: C_1  and  N_2
REMARK    2  A    between atoms: C_5  and  C_6
REMARK    3  A    between atoms: C_7  and  O_8
REMARK    4  A    between atoms: C_10  and  O_11
REMARK    5  A    between atoms: C_16  and  C_17
REMARK                            x       y       z     vdW  Elec       q    Type
REMARK                         _______ _______ _______ _____ _____    ______ ____
ROOT
ATOM      1  C   UNL     1       0.549  -5.703  -0.556  0.00  0.00    +0.000 A 
ATOM      2  C   UNL     1      -0.507  -6.481  -0.047  0.00  0.00    +0.000 A 
ATOM      3  C   UNL     1      -0.500  -7.866  -0.154  0.00  0.00    +0.000 A 
ATOM      4  C   UNL     1       0.568  -8.500  -0.790  0.00  0.00    +0.000 A 
ATOM      5  C   UNL     1       1.640  -7.757  -1.319  0.00  0.00    +0.000 A 
ATOM      6  C   UNL     1       2.780  -8.435  -2.018  0.00  0.00    +0.000 A 
ATOM      7  O   UNL     1       2.859  -9.653  -2.154  0.00  0.00    +0.000 OA
ATOM      8  O   UNL     1       3.766  -7.634  -2.521  0.00  0.00    +0.000 OA
ATOM      9  C   UNL     1       3.743  -6.244  -2.364  0.00  0.00    +0.000 A 
ATOM     10  C   UNL     1       2.766  -5.594  -1.729  0.00  0.00    +0.000 A 
ATOM     11  C   UNL     1       1.634  -6.351  -1.193  0.00  0.00    +0.000 A 
ENDROOT
BRANCH   1  16
ATOM     12  C   UNL     1      -0.088  -0.079   0.306  0.00  0.00    +0.000 C 
ATOM     13  N   UNL     1       0.512  -1.327  -0.186  0.00  0.00    +0.000 N 
ATOM     14  C   UNL     1       0.886  -2.170   0.953  0.00  0.00    +0.000 C 
ATOM     15  C   UNL     1       1.000  -3.636   0.684  0.00  0.00    +0.000 C 
ATOM     16  C   UNL     1       0.492  -4.229  -0.403  0.00  0.00    +0.000 C 
ATOM     17  C   UNL     1      -0.201  -3.447  -1.477  0.00  0.00    +0.000 C 
ATOM     18  C   UNL     1      -0.385  -1.949  -1.169  0.00  0.00    +0.000 C 
ATOM     19  H   UNL     1       1.382  -1.157  -0.691  0.00  0.00    +0.000 HD
ENDBRANCH   1  16
BRANCH   9  20
ATOM     20  C   UNL     1       4.893  -5.546  -2.950  0.00  0.00    +0.000 A 
ATOM     21  C   UNL     1       6.043  -5.372  -2.163  0.00  0.00    +0.000 A 
ATOM     22  C   UNL     1       7.163  -4.713  -2.677  0.00  0.00    +0.000 A 
ATOM     23  C   UNL     1       7.147  -4.222  -3.980  0.00  0.00    +0.000 A 
ATOM     24  C   UNL     1       6.009  -4.384  -4.771  0.00  0.00    +0.000 A 
ATOM     25  C   UNL     1       4.886  -5.042  -4.260  0.00  0.00    +0.000 A 
ATOM     26 CL   UNL     1       3.506  -5.200  -5.293  0.00  0.00    +0.000 Cl
ENDBRANCH   9  20
BRANCH   2  27
ATOM     27  O   UNL     1      -1.568  -5.863   0.572  0.00  0.00    +0.000 OA
ATOM     28  H   UNL     1      -1.585  -4.929   0.651  0.00  0.00    +0.000 HD
ENDBRANCH   2  27
BRANCH   4  29
ATOM     29  O   UNL     1       0.544  -9.863  -0.883  0.00  0.00    +0.000 OA
ATOM     30  H   UNL     1      -0.176 -10.345  -0.526  0.00  0.00    +0.000 HD
ENDBRANCH   4  29
TORSDOF 4
