REMARK  Name = 
REMARK  9 active torsions:
REMARK  status: ('A' for Active; 'I' for Inactive)
REMARK    1  A    between atoms: C_1  and  C_2
REMARK    2  A    between atoms: C_2  and  C_3
REMARK    3  A    between atoms: C_3  and  C_4
REMARK    4  A    between atoms: C_4  and  C_5
REMARK    5  A    between atoms: C_5  and  C_15
REMARK    6  A    between atoms: C_6  and  C_7
REMARK    7  A    between atoms: C_7  and  N_8
REMARK    8  A    between atoms: C_19  and  O_20
REMARK    9  A    between atoms: O_20  and  C_21
REMARK                            x       y       z     vdW  Elec       q    Type
REMARK                         _______ _______ _______ _____ _____    ______ ____
ROOT
ATOM      1  C   UNL     1      -1.083  -2.277  -1.769  0.00  0.00    +0.000 C 
ATOM      2  C   UNL     1      -1.755  -3.265  -2.398  0.00  0.00    +0.000 C 
ENDROOT
BRANCH   1   3
ATOM      3  C   UNL     1      -1.895  -1.204  -1.099  0.00  0.00    +0.000 A 
ATOM      4  C   UNL     1      -1.546  -0.730   0.179  0.00  0.00    +0.000 A 
ATOM      5  C   UNL     1      -2.375   0.147   0.884  0.00  0.00    +0.000 A 
ATOM      6  C   UNL     1      -3.564   0.587   0.317  0.00  0.00    +0.000 A 
ATOM      7  C   UNL     1      -3.865   0.247  -1.002  0.00  0.00    +0.000 A 
ATOM      8  C   UNL     1      -3.062  -0.676  -1.687  0.00  0.00    +0.000 A 
BRANCH   7   9
ATOM      9  O   UNL     1      -4.948   0.768  -1.682  0.00  0.00    +0.000 OA
BRANCH   9  10
ATOM     10  C   UNL     1      -5.270   2.098  -1.488  0.00  0.00    +0.000 A 
ATOM     11  C   UNL     1      -4.338   3.090  -1.157  0.00  0.00    +0.000 A 
ATOM     12  C   UNL     1      -4.760   4.387  -0.868  0.00  0.00    +0.000 A 
ATOM     13  C   UNL     1      -6.106   4.721  -0.984  0.00  0.00    +0.000 A 
ATOM     14  C   UNL     1      -7.027   3.760  -1.405  0.00  0.00    +0.000 A 
ATOM     15  C   UNL     1      -6.611   2.450  -1.655  0.00  0.00    +0.000 A 
ENDBRANCH   9  10
ENDBRANCH   7   9
ENDBRANCH   1   3
BRANCH   1  16
ATOM     16  C   UNL     1       0.418  -2.318  -1.513  0.00  0.00    +0.000 C 
BRANCH  16  17
ATOM     17  C   UNL     1       1.351  -2.344  -2.735  0.00  0.00    +0.000 C 
BRANCH  17  19
ATOM     18  C   UNL     1       2.158  -1.250  -4.840  0.00  0.00    +0.000 C 
ATOM     19  C   UNL     1       1.236  -1.118  -3.635  0.00  0.00    +0.000 C 
ENDBRANCH  17  19
ENDBRANCH  16  17
ENDBRANCH   1  16
BRANCH   2  20
ATOM     20  C   UNL     1      -1.222  -4.555  -2.947  0.00  0.00    +0.000 C 
BRANCH  20  21
ATOM     21  N   UNL     1      -1.753  -5.630  -2.138  0.00  0.00    +0.000 N 
ATOM     22  O   UNL     1      -3.151  -5.880  -2.323  0.00  0.00    +0.000 OA
ATOM     23  C   UNL     1      -3.336  -7.230  -2.127  0.00  0.00    +0.000 A 
ATOM     24  O   UNL     1      -4.406  -7.806  -2.260  0.00  0.00    +0.000 OA
ATOM     25  N   UNL     1      -2.152  -7.799  -1.863  0.00  0.00    +0.000 N 
ATOM     26  C   UNL     1      -1.171  -6.896  -2.090  0.00  0.00    +0.000 A 
ATOM     27  O   UNL     1       0.001  -7.167  -2.288  0.00  0.00    +0.000 OA
ATOM     28  H   UNL     1      -2.018  -8.725  -1.554  0.00  0.00    +0.000 HD
ENDBRANCH  20  21
ENDBRANCH   2  20
TORSDOF 8
