REMARK  Name = 
REMARK  5 active torsions:
REMARK  status: ('A' for Active; 'I' for Inactive)
REMARK    1  A    between atoms: C_1  and  N_2
REMARK    2  A    between atoms: C_5  and  C_6
REMARK    3  A    between atoms: C_7  and  O_8
REMARK    4  A    between atoms: C_10  and  O_11
REMARK    5  A    between atoms: C_16  and  C_17
REMARK                            x       y       z     vdW  Elec       q    Type
REMARK                         _______ _______ _______ _____ _____    ______ ____
ROOT
ATOM      1  C   UNL     1      -0.619   4.640  -2.296  0.00  0.00    +0.000 A 
ATOM      2  C   UNL     1      -1.931   5.139  -2.253  0.00  0.00    +0.000 A 
ATOM      3  C   UNL     1      -2.330   6.213  -3.049  0.00  0.00    +0.000 A 
ATOM      4  C   UNL     1      -1.406   6.820  -3.899  0.00  0.00    +0.000 A 
ATOM      5  C   UNL     1      -0.086   6.355  -3.960  0.00  0.00    +0.000 A 
ATOM      6  C   UNL     1       0.934   6.991  -4.825  0.00  0.00    +0.000 A 
ATOM      7  O   UNL     1       0.727   7.938  -5.572  0.00  0.00    +0.000 OA
ATOM      8  C   UNL     1       2.292   6.436  -4.755  0.00  0.00    +0.000 A 
ATOM      9  C   UNL     1       2.546   5.384  -3.967  0.00  0.00    +0.000 A 
ATOM     10  O   UNL     1       1.588   4.760  -3.188  0.00  0.00    +0.000 OA
ATOM     11  C   UNL     1       0.304   5.264  -3.164  0.00  0.00    +0.000 A 
ENDROOT
BRANCH   1  16
ATOM     12  C   UNL     1      -0.141   0.381   1.266  0.00  0.00    +0.000 C 
ATOM     13  N   UNL     1       0.438   1.218   0.238  0.00  0.00    +0.000 N 
ATOM     14  C   UNL     1      -0.007   1.008  -1.120  0.00  0.00    +0.000 C 
ATOM     15  C   UNL     1      -0.345   2.230  -1.915  0.00  0.00    +0.000 C 
ATOM     16  C   UNL     1      -0.225   3.484  -1.462  0.00  0.00    +0.000 C 
ATOM     17  C   UNL     1       0.284   3.759  -0.076  0.00  0.00    +0.000 C 
ATOM     18  C   UNL     1       0.874   2.540   0.659  0.00  0.00    +0.000 C 
ATOM     19  H   UNL     1       1.358   0.799   0.101  0.00  0.00    +0.000 HD
ENDBRANCH   1  16
BRANCH   9  20
ATOM     20  C   UNL     1       3.938   4.797  -3.858  0.00  0.00    +0.000 C 
ATOM     21  C   UNL     1       3.972   3.326  -4.303  0.00  0.00    +0.000 C 
ATOM     22  C   UNL     1       5.376   2.737  -4.167  0.00  0.00    +0.000 C 
ATOM     23  C   UNL     1       5.913   2.898  -2.748  0.00  0.00    +0.000 C 
ATOM     24  C   UNL     1       5.888   4.356  -2.301  0.00  0.00    +0.000 C 
ATOM     25  C   UNL     1       4.491   4.958  -2.433  0.00  0.00    +0.000 C 
ENDBRANCH   9  20
BRANCH   2  26
ATOM     26  O   UNL     1      -2.845   4.565  -1.405  0.00  0.00    +0.000 OA
ATOM     27  H   UNL     1      -2.593   3.843  -0.863  0.00  0.00    +0.000 HD
ENDBRANCH   2  26
BRANCH   4  28
ATOM     28  O   UNL     1      -1.815   7.875  -4.664  0.00  0.00    +0.000 OA
ATOM     29  H   UNL     1      -2.701   8.176  -4.614  0.00  0.00    +0.000 HD
ENDBRANCH   4  28
TORSDOF 4
