REMARK  Name = 
REMARK  12 active torsions:
REMARK  status: ('A' for Active; 'I' for Inactive)
REMARK    1  A    between atoms: C_1  and  C_2
REMARK    2  A    between atoms: C_3  and  C_4
REMARK    3  A    between atoms: C_5  and  C_6
REMARK    4  A    between atoms: C_6  and  O_8
REMARK    5  A    between atoms: O_8  and  C_9
REMARK    6  A    between atoms: C_9  and  C_10
REMARK    7  A    between atoms: C_9  and  C_15
REMARK    8  A    between atoms: C_10  and  C_11
REMARK    9  A    between atoms: C_12  and  C_13
REMARK   10  A    between atoms: C_12  and  C_14
REMARK   11  A    between atoms: C_20  and  O_21
REMARK   12  A    between atoms: C_24  and  O_25
REMARK                            x       y       z     vdW  Elec       q    Type
REMARK                         _______ _______ _______ _____ _____    ______ ____
ROOT
ATOM      1  C   UNL     1      -3.967  -7.495  -1.736  0.00  0.00    +0.000 C 
ATOM      2  C   UNL     1      -4.838  -8.452  -1.366  0.00  0.00    +0.000 C 
ATOM      3  C   UNL     1      -6.271  -8.395  -1.720  0.00  0.00    +0.000 C 
ATOM      4  O   UNL     1      -6.991  -9.379  -1.630  0.00  0.00    +0.000 OA
ATOM      5  C   UNL     1      -6.821  -7.080  -2.077  0.00  0.00    +0.000 A 
ATOM      6  C   UNL     1      -8.200  -6.849  -2.058  0.00  0.00    +0.000 A 
ATOM      7  C   UNL     1      -8.695  -5.556  -2.193  0.00  0.00    +0.000 A 
ATOM      8  C   UNL     1      -7.807  -4.489  -2.325  0.00  0.00    +0.000 A 
ATOM      9  C   UNL     1      -6.433  -4.732  -2.390  0.00  0.00    +0.000 A 
ATOM     10  C   UNL     1      -5.937  -6.035  -2.328  0.00  0.00    +0.000 A 
ATOM     11  C   UNL     1      -4.514  -6.377  -2.547  0.00  0.00    +0.000 C 
ATOM     12  O   UNL     1      -3.855  -5.854  -3.435  0.00  0.00    +0.000 OA
ENDROOT
BRANCH   6  13
ATOM     13  O   UNL     1      -9.121  -7.846  -1.893  0.00  0.00    +0.000 OA
ATOM     14  H   UNL     1      -8.839  -8.734  -1.797  0.00  0.00    +0.000 HD
ENDBRANCH   6  13
BRANCH   9  15
ATOM     15  O   UNL     1      -5.586  -3.666  -2.438  0.00  0.00    +0.000 OA
ATOM     16  H   UNL     1      -5.931  -2.795  -2.480  0.00  0.00    +0.000 HD
ENDBRANCH   9  15
BRANCH   1  17
ATOM     17  C   UNL     1      -2.469  -7.594  -1.525  0.00  0.00    +0.000 C 
BRANCH  17  18
ATOM     18  O   UNL     1      -2.222  -8.465  -0.379  0.00  0.00    +0.000 OA
BRANCH  18  19
ATOM     19  C   UNL     1      -1.424  -9.544  -0.577  0.00  0.00    +0.000 C 
ATOM     20  O   UNL     1      -0.834  -9.818  -1.611  0.00  0.00    +0.000 OA
BRANCH  19  22
ATOM     21  C   UNL     1      -2.011 -10.230   1.758  0.00  0.00    +0.000 C 
ATOM     22  C   UNL     1      -1.314 -10.406   0.626  0.00  0.00    +0.000 C 
BRANCH  21  25
ATOM     23  C   UNL     1      -0.585 -11.760   4.988  0.00  0.00    +0.000 C 
ATOM     24  C   UNL     1      -0.709 -11.309   3.564  0.00  0.00    +0.000 C 
ATOM     25  C   UNL     1      -1.879 -10.982   2.991  0.00  0.00    +0.000 C 
ENDBRANCH  21  25
ENDBRANCH  19  22
ENDBRANCH  18  19
ENDBRANCH  17  18
BRANCH  17  26
ATOM     26  C   UNL     1      -1.658  -6.281  -1.337  0.00  0.00    +0.000 C 
BRANCH  26  27
ATOM     27  C   UNL     1      -1.972  -5.425  -0.129  0.00  0.00    +0.000 C 
ATOM     28  C   UNL     1      -2.251  -4.104  -0.124  0.00  0.00    +0.000 C 
ATOM     29  C   UNL     1      -2.386  -3.338   1.166  0.00  0.00    +0.000 C 
ATOM     30  C   UNL     1      -2.397  -3.270  -1.369  0.00  0.00    +0.000 C 
ENDBRANCH  26  27
ENDBRANCH  17  26
ENDBRANCH   1  17
TORSDOF 9
