REMARK  Name = 
REMARK  9 active torsions:
REMARK  status: ('A' for Active; 'I' for Inactive)
REMARK    1  A    between atoms: C_1  and  N_2
REMARK    2  A    between atoms: N_2  and  C_3
REMARK    3  A    between atoms: N_2  and  C_4
REMARK    4  A    between atoms: C_4  and  C_5
REMARK    5  A    between atoms: C_5  and  C_6
REMARK    6  A    between atoms: C_6  and  N_7
REMARK    7  A    between atoms: C_9  and  C_10
REMARK    8  A    between atoms: C_11  and  C_12
REMARK    9  A    between atoms: N_14  and  C_15
REMARK                            x       y       z     vdW  Elec       q    Type
REMARK                         _______ _______ _______ _____ _____    ______ ____
ROOT
ATOM      1  C   UNL     1       5.757  -0.937   1.012  0.00  0.00    +0.000 C 
ATOM      2  C   UNL     1       6.371  -0.118   0.144  0.00  0.00    +0.000 C 
ATOM      3  C   UNL     1       7.449   0.572   0.885  0.00  0.00    +0.000 C 
ATOM      4  O   UNL     1       8.236   1.390   0.441  0.00  0.00    +0.000 OA
ATOM      5  N   UNL     1       7.418   0.123   2.157  0.00  0.00    +0.000 N 
ATOM      6  C   UNL     1       6.436  -0.794   2.317  0.00  0.00    +0.000 C 
ATOM      7  O   UNL     1       6.180  -1.383   3.346  0.00  0.00    +0.000 OA
ATOM      8  H   UNL     1       8.026   0.421   2.871  0.00  0.00    +0.000 HD
ENDROOT
BRANCH   2   9
ATOM      9  C   UNL     1       6.119   0.084  -1.237  0.00  0.00    +0.000 A 
ATOM     10  C   UNL     1       6.678  -0.679  -2.240  0.00  0.00    +0.000 A 
ATOM     11  N   UNL     1       6.224  -0.186  -3.436  0.00  0.00    +0.000 N 
ATOM     12  C   UNL     1       6.593  -0.709  -4.732  0.00  0.00    +0.000 C 
ATOM     13  C   UNL     1       5.378   0.883  -3.225  0.00  0.00    +0.000 A 
ATOM     14  C   UNL     1       4.685   1.698  -4.138  0.00  0.00    +0.000 A 
ATOM     15  C   UNL     1       3.895   2.732  -3.626  0.00  0.00    +0.000 A 
ATOM     16  C   UNL     1       3.794   2.941  -2.254  0.00  0.00    +0.000 A 
ATOM     17  C   UNL     1       4.483   2.121  -1.353  0.00  0.00    +0.000 A 
ATOM     18  C   UNL     1       5.294   1.074  -1.842  0.00  0.00    +0.000 A 
ENDBRANCH   2   9
BRANCH   1  21
ATOM     19  N   UNL     1       2.584  -2.581   0.736  0.00  0.00    +0.000 N 
ATOM     20  C   UNL     1       3.346  -1.450   0.895  0.00  0.00    +0.000 A 
ATOM     21  C   UNL     1       4.669  -1.817   0.806  0.00  0.00    +0.000 A 
ATOM     22  C   UNL     1       4.721  -3.206   0.496  0.00  0.00    +0.000 A 
ATOM     23  C   UNL     1       5.770  -4.123   0.263  0.00  0.00    +0.000 A 
ATOM     24  C   UNL     1       5.471  -5.457  -0.032  0.00  0.00    +0.000 A 
ATOM     25  C   UNL     1       4.150  -5.883  -0.107  0.00  0.00    +0.000 A 
ATOM     26  C   UNL     1       3.092  -4.995   0.122  0.00  0.00    +0.000 A 
ATOM     27  C   UNL     1       3.397  -3.659   0.434  0.00  0.00    +0.000 A 
BRANCH  19  28
ATOM     28  C   UNL     1       1.132  -2.591   0.807  0.00  0.00    +0.000 C 
BRANCH  28  29
ATOM     29  C   UNL     1       0.541  -2.908   2.185  0.00  0.00    +0.000 C 
BRANCH  29  30
ATOM     30  C   UNL     1       0.858  -1.934   3.333  0.00  0.00    +0.000 C 
BRANCH  30  32
ATOM     31  C   UNL     1      -0.904  -0.244   3.016  0.00  0.00    +0.000 C 
ATOM     32  N   UNL     1       0.533  -0.512   3.120  0.00  0.00    +0.000 N 
ATOM     33  C   UNL     1       1.073   0.273   4.243  0.00  0.00    +0.000 C 
ATOM     34  H   UNL     1       0.952  -0.247   2.229  0.00  0.00    +0.000 HD
ENDBRANCH  30  32
ENDBRANCH  29  30
ENDBRANCH  28  29
ENDBRANCH  19  28
ENDBRANCH   1  21
TORSDOF 6
