REMARK  Name = 
REMARK  17 active torsions:
REMARK  status: ('A' for Active; 'I' for Inactive)
REMARK    1  A    between atoms: C_1  and  O_2
REMARK    2  A    between atoms: O_2  and  C_3
REMARK    3  A    between atoms: C_3  and  C_5
REMARK    4  A    between atoms: C_5  and  C_6
REMARK    5  A    between atoms: C_6  and  C_7
REMARK    6  A    between atoms: C_8  and  C_9
REMARK    7  A    between atoms: C_9  and  C_10
REMARK    8  A    between atoms: C_10  and  C_11
REMARK    9  A    between atoms: C_15  and  O_16
REMARK   10  A    between atoms: C_17  and  C_18
REMARK   11  A    between atoms: C_19  and  C_20
REMARK   12  A    between atoms: C_20  and  C_21
REMARK   13  A    between atoms: C_21  and  C_22
REMARK   14  A    between atoms: C_21  and  O_23
REMARK   15  A    between atoms: C_21  and  C_24
REMARK   16  A    between atoms: C_24  and  C_25
REMARK   17  A    between atoms: C_25  and  C_26
REMARK                            x       y       z     vdW  Elec       q    Type
REMARK                         _______ _______ _______ _____ _____    ______ ____
ROOT
ATOM      1  C   UNL     1      -1.344  -6.461  -4.271  0.00  0.00    +0.000 C 
ATOM      2  C   UNL     1      -0.454  -7.681  -4.246  0.00  0.00    +0.000 C 
ATOM      3  O   UNL     1       0.762  -7.634  -4.371  0.00  0.00    +0.000 OA
ATOM      4  C   UNL     1      -1.209  -8.965  -4.008  0.00  0.00    +0.000 C 
ATOM      5  C   UNL     1      -2.661  -8.502  -3.961  0.00  0.00    +0.000 C 
ATOM      6  C   UNL     1      -2.699  -7.121  -4.642  0.00  0.00    +0.000 C 
ENDROOT
BRANCH   5   7
ATOM      7  O   UNL     1      -3.094  -8.389  -2.606  0.00  0.00    +0.000 OA
ATOM      8  H   UNL     1      -2.522  -7.763  -2.135  0.00  0.00    +0.000 HD
ENDBRANCH   5   7
BRANCH   6   9
ATOM      9  C   UNL     1      -2.955  -7.184  -6.153  0.00  0.00    +0.000 C 
ATOM     10  C   UNL     1      -2.821  -8.229  -6.999  0.00  0.00    +0.000 C 
BRANCH  10  11
ATOM     11  C   UNL     1      -3.158  -8.142  -8.474  0.00  0.00    +0.000 C 
BRANCH  11  12
ATOM     12  C   UNL     1      -3.365  -9.470  -9.287  0.00  0.00    +0.000 C 
ATOM     13  C   UNL     1      -3.557  -9.063 -10.762  0.00  0.00    +0.000 C 
BRANCH  12  14
ATOM     14  O   UNL     1      -2.169 -10.255  -9.203  0.00  0.00    +0.000 OA
ATOM     15  H   UNL     1      -1.414  -9.726  -9.505  0.00  0.00    +0.000 HD
ENDBRANCH  12  14
BRANCH  12  16
ATOM     16  C   UNL     1      -4.553 -10.352  -8.794  0.00  0.00    +0.000 C 
BRANCH  16  17
ATOM     17  C   UNL     1      -4.746 -11.676  -9.585  0.00  0.00    +0.000 C 
BRANCH  17  18
ATOM     18  C   UNL     1      -5.939 -12.550  -9.132  0.00  0.00    +0.000 C 
ATOM     19  C   UNL     1      -6.077 -13.825  -9.984  0.00  0.00    +0.000 C 
ATOM     20  C   UNL     1      -7.569 -14.098 -10.163  0.00  0.00    +0.000 C 
ATOM     21  C   UNL     1      -8.314 -12.944  -9.517  0.00  0.00    +0.000 C 
ATOM     22  C   UNL     1      -7.287 -11.847  -9.277  0.00  0.00    +0.000 C 
ENDBRANCH  17  18
ENDBRANCH  16  17
ENDBRANCH  12  16
ENDBRANCH  11  12
ENDBRANCH  10  11
ENDBRANCH   6   9
BRANCH   1  23
ATOM     23  C   UNL     1      -1.219  -5.807  -2.873  0.00  0.00    +0.000 C 
BRANCH  23  24
ATOM     24  C   UNL     1      -2.019  -4.513  -2.697  0.00  0.00    +0.000 C 
BRANCH  24  26
ATOM     25  C   UNL     1      -1.880  -2.620  -0.989  0.00  0.00    +0.000 C 
ATOM     26  C   UNL     1      -1.827  -3.919  -1.320  0.00  0.00    +0.000 C 
BRANCH  25  27
ATOM     27  C   UNL     1      -2.171  -1.452  -1.895  0.00  0.00    +0.000 C 
BRANCH  27  28
ATOM     28  C   UNL     1      -3.569  -1.504  -2.502  0.00  0.00    +0.000 C 
BRANCH  28  29
ATOM     29  C   UNL     1      -3.838  -0.306  -3.379  0.00  0.00    +0.000 C 
ATOM     30  O   UNL     1      -3.066   0.614  -3.585  0.00  0.00    +0.000 OA
BRANCH  29  32
ATOM     31  C   UNL     1      -5.448   0.643  -4.793  0.00  0.00    +0.000 C 
ATOM     32  O   UNL     1      -5.086  -0.426  -3.923  0.00  0.00    +0.000 OA
ENDBRANCH  29  32
ENDBRANCH  28  29
ENDBRANCH  27  28
ENDBRANCH  25  27
ENDBRANCH  24  26
ENDBRANCH  23  24
ENDBRANCH   1  23
TORSDOF 15
