REMARK  Name = 
REMARK  2 active torsions:
REMARK  status: ('A' for Active; 'I' for Inactive)
REMARK    1  A    between atoms: C_14  and  S_15
REMARK    2  A    between atoms: S_15  and  C_16
REMARK                            x       y       z     vdW  Elec       q    Type
REMARK                         _______ _______ _______ _____ _____    ______ ____
ROOT
ATOM      1 CL   UNL     1      -3.184   0.298  -0.002  0.00  0.00    +0.000 Cl
ATOM      2  C   UNL     1      -1.515  -0.112  -0.021  0.00  0.00    +0.000 A 
ATOM      3  C   UNL     1      -1.127  -1.444  -0.027  0.00  0.00    +0.000 A 
ATOM      4  C   UNL     1       0.236  -1.766  -0.035  0.00  0.00    +0.000 A 
ATOM      5  C   UNL     1       1.212  -0.775  -0.036  0.00  0.00    +0.000 A 
ATOM      6  N   UNL     1       2.525  -1.106  -0.027  0.00  0.00    +0.000 NA
ATOM      7  C   UNL     1       3.452  -0.109  -0.011  0.00  0.00    +0.000 A 
ATOM      8  N   UNL     1       4.790  -0.483   0.040  0.00  0.00    +0.000 N 
ATOM      9  C   UNL     1       5.201  -1.792  -0.489  0.00  0.00    +0.000 C 
ATOM     10  C   UNL     1       5.785  -2.723   0.598  0.00  0.00    +0.000 C 
ATOM     11  N   UNL     1       6.814  -2.088   1.446  0.00  0.00    +0.000 N 
ATOM     12  C   UNL     1       6.216  -0.890   2.060  0.00  0.00    +0.000 C 
ATOM     13  C   UNL     1       5.687   0.130   1.032  0.00  0.00    +0.000 C 
ATOM     14  C   UNL     1       3.007   1.237  -0.066  0.00  0.00    +0.000 A 
ATOM     15  N   UNL     1       1.687   1.572  -0.063  0.00  0.00    +0.000 NA
ATOM     16  C   UNL     1       0.800   0.574  -0.042  0.00  0.00    +0.000 A 
ATOM     17  C   UNL     1      -0.553   0.889  -0.029  0.00  0.00    +0.000 A 
ATOM     18  H   UNL     1       7.617  -1.821   0.877  0.00  0.00    +0.000 HD
ATOM     19  H   UNL     1       7.132  -2.736   2.167  0.00  0.00    +0.000 HD
ENDROOT
BRANCH  14  20
ATOM     20  S   UNL     1       4.080   2.662  -0.146  0.00  0.00    +0.000 S 
BRANCH  20  21
ATOM     21  C   UNL     1       4.327   2.947  -1.888  0.00  0.00    +0.000 A 
ATOM     22  C   UNL     1       3.344   2.724  -2.857  0.00  0.00    +0.000 A 
ATOM     23  C   UNL     1       3.559   3.107  -4.186  0.00  0.00    +0.000 A 
ATOM     24  C   UNL     1       4.756   3.717  -4.556  0.00  0.00    +0.000 A 
ATOM     25  C   UNL     1       5.750   3.925  -3.605  0.00  0.00    +0.000 A 
ATOM     26  C   UNL     1       5.537   3.539  -2.279  0.00  0.00    +0.000 A 
ENDBRANCH  20  21
ENDBRANCH  14  20
TORSDOF 2
