REMARK  Name = 
REMARK  12 active torsions:
REMARK  status: ('A' for Active; 'I' for Inactive)
REMARK    1  A    between atoms: C_1  and  C_2
REMARK    2  A    between atoms: C_2  and  C_3
REMARK    3  A    between atoms: C_4  and  C_5
REMARK    4  A    between atoms: C_5  and  C_6
REMARK    5  A    between atoms: C_6  and  O_7
REMARK    6  A    between atoms: C_6  and  C_14
REMARK    7  A    between atoms: O_7  and  C_8
REMARK    8  A    between atoms: C_8  and  C_10
REMARK    9  A    between atoms: C_11  and  C_12
REMARK   10  A    between atoms: C_11  and  C_13
REMARK   11  A    between atoms: C_19  and  O_20
REMARK   12  A    between atoms: C_23  and  O_24
REMARK                            x       y       z     vdW  Elec       q    Type
REMARK                         _______ _______ _______ _____ _____    ______ ____
ROOT
ATOM      1  C   UNL     1       3.795   3.015  -2.429  0.00  0.00    +0.000 C 
ATOM      2  C   UNL     1       3.823   4.225  -3.005  0.00  0.00    +0.000 C 
ATOM      3  C   UNL     1       4.801   5.259  -2.700  0.00  0.00    +0.000 C 
ATOM      4  O   UNL     1       4.750   6.342  -3.273  0.00  0.00    +0.000 OA
ATOM      5  C   UNL     1       5.849   4.950  -1.732  0.00  0.00    +0.000 A 
ATOM      6  C   UNL     1       6.825   5.920  -1.472  0.00  0.00    +0.000 A 
ATOM      7  C   UNL     1       7.840   5.656  -0.566  0.00  0.00    +0.000 A 
ATOM      8  C   UNL     1       7.880   4.422   0.081  0.00  0.00    +0.000 A 
ATOM      9  C   UNL     1       6.905   3.454  -0.182  0.00  0.00    +0.000 A 
ATOM     10  C   UNL     1       5.868   3.706  -1.090  0.00  0.00    +0.000 A 
ATOM     11  C   UNL     1       4.801   2.691  -1.374  0.00  0.00    +0.000 C 
ATOM     12  O   UNL     1       4.714   1.629  -0.777  0.00  0.00    +0.000 OA
ENDROOT
BRANCH   6  13
ATOM     13  O   UNL     1       6.852   7.146  -2.078  0.00  0.00    +0.000 OA
ATOM     14  H   UNL     1       6.189   7.376  -2.699  0.00  0.00    +0.000 HD
ENDBRANCH   6  13
BRANCH   9  15
ATOM     15  O   UNL     1       6.996   2.252   0.456  0.00  0.00    +0.000 OA
ATOM     16  H   UNL     1       7.693   2.094   1.061  0.00  0.00    +0.000 HD
ENDBRANCH   9  15
BRANCH   1  17
ATOM     17  C   UNL     1       2.803   1.916  -2.786  0.00  0.00    +0.000 C 
BRANCH  17  18
ATOM     18  C   UNL     1       1.556   1.936  -1.870  0.00  0.00    +0.000 C 
BRANCH  18  22
ATOM     19  C   UNL     1       0.487  -0.040   0.207  0.00  0.00    +0.000 C 
ATOM     20  C   UNL     1       0.147  -0.097  -1.256  0.00  0.00    +0.000 C 
ATOM     21  C   UNL     1      -0.735  -1.224  -1.719  0.00  0.00    +0.000 C 
ATOM     22  C   UNL     1       0.605   0.800  -2.151  0.00  0.00    +0.000 C 
ENDBRANCH  18  22
ENDBRANCH  17  18
BRANCH  17  23
ATOM     23  O   UNL     1       2.545   1.943  -4.223  0.00  0.00    +0.000 OA
BRANCH  23  24
ATOM     24  C   UNL     1       1.745   2.898  -4.754  0.00  0.00    +0.000 C 
ATOM     25  O   UNL     1       0.930   3.579  -4.158  0.00  0.00    +0.000 OA
BRANCH  24  26
ATOM     26  C   UNL     1       2.247   3.172  -6.125  0.00  0.00    +0.000 C 
ATOM     27  C   UNL     1       1.914   4.254  -6.858  0.00  0.00    +0.000 C 
ATOM     28  C   UNL     1       2.528   4.478  -8.212  0.00  0.00    +0.000 C 
ATOM     29  C   UNL     1       0.937   5.315  -6.422  0.00  0.00    +0.000 C 
ENDBRANCH  24  26
ENDBRANCH  23  24
ENDBRANCH  17  23
ENDBRANCH   1  17
TORSDOF 8
