REMARK  Name = 
REMARK  6 active torsions:
REMARK  status: ('A' for Active; 'I' for Inactive)
REMARK    1  A    between atoms: C_1  and  C_2
REMARK    2  A    between atoms: N_9  and  S_10
REMARK    3  A    between atoms: S_10  and  C_13
REMARK    4  A    between atoms: C_18  and  N_19
REMARK    5  A    between atoms: N_19  and  C_20
REMARK    6  A    between atoms: N_19  and  C_21
REMARK                            x       y       z     vdW  Elec       q    Type
REMARK                         _______ _______ _______ _____ _____    ______ ____
ROOT
ATOM      1  S   UNL     1      -1.228  -0.341   4.052  0.00  0.00    +0.000 S 
ATOM      2  O   UNL     1      -0.179  -0.889   4.875  0.00  0.00    +0.000 OA
ATOM      3  O   UNL     1      -0.968  -0.031   2.654  0.00  0.00    +0.000 OA
ENDROOT
BRANCH   1  12
ATOM      4  C   UNL     1      -3.493  -1.144   1.172  0.00  0.00    +0.000 C 
ATOM      5  C   UNL     1      -4.308  -1.057   2.421  0.00  0.00    +0.000 A 
ATOM      6  N   UNL     1      -5.652  -0.933   2.206  0.00  0.00    +0.000 NA
ATOM      7  C   UNL     1      -6.448  -0.928   3.295  0.00  0.00    +0.000 A 
ATOM      8 BR   UNL     1      -8.323  -0.878   3.054  0.00  0.00    +0.000 Br
ATOM      9  C   UNL     1      -5.923  -1.009   4.571  0.00  0.00    +0.000 A 
ATOM     10  N   UNL     1      -4.592  -1.135   4.811  0.00  0.00    +0.000 NA
ATOM     11  C   UNL     1      -3.793  -1.158   3.721  0.00  0.00    +0.000 A 
ATOM     12  N   UNL     1      -2.468  -1.456   4.104  0.00  0.00    +0.000 N 
ATOM     13  H   UNL     1      -2.265  -2.367   4.418  0.00  0.00    +0.000 HD
ENDBRANCH   1  12
BRANCH   1  14
ATOM     14  C   UNL     1      -1.845   1.132   4.807  0.00  0.00    +0.000 A 
ATOM     15  C   UNL     1      -2.371   2.138   3.997  0.00  0.00    +0.000 A 
ATOM     16  C   UNL     1      -2.954   3.241   4.593  0.00  0.00    +0.000 A 
ATOM     17  C   UNL     1      -3.224   3.209   5.961  0.00  0.00    +0.000 A 
ATOM     18  C   UNL     1      -2.732   2.156   6.756  0.00  0.00    +0.000 A 
ATOM     19  C   UNL     1      -2.827   2.149   8.161  0.00  0.00    +0.000 A 
ATOM     20  C   UNL     1      -1.645   2.500   8.762  0.00  0.00    +0.000 A 
ATOM     21  C   UNL     1      -0.475   2.034   8.165  0.00  0.00    +0.000 A 
ATOM     22  C   UNL     1      -0.551   1.313   6.954  0.00  0.00    +0.000 A 
ATOM     23  C   UNL     1      -1.733   1.387   6.187  0.00  0.00    +0.000 A 
BRANCH  19  24
ATOM     24  N   UNL     1      -3.685   1.259   8.834  0.00  0.00    +0.000 N 
ATOM     25  C   UNL     1      -4.442   0.221   8.140  0.00  0.00    +0.000 C 
ATOM     26  C   UNL     1      -3.832   1.294  10.284  0.00  0.00    +0.000 C 
ENDBRANCH  19  24
ENDBRANCH   1  14
TORSDOF 3
