REMARK  Name = 
REMARK  4 active torsions:
REMARK  status: ('A' for Active; 'I' for Inactive)
REMARK    1  A    between atoms: C_1  and  C_2
REMARK    2  A    between atoms: C_10  and  C_11
REMARK    3  A    between atoms: C_14  and  N_15
REMARK    4  A    between atoms: C_20  and  C_22
REMARK                            x       y       z     vdW  Elec       q    Type
REMARK                         _______ _______ _______ _____ _____    ______ ____
ROOT
ATOM      1  C   UNL     1      -0.109   0.959  -1.535  0.00  0.00    +0.000 C 
ATOM      2  C   UNL     1       0.735  -0.320  -1.533  0.00  0.00    +0.000 C 
ATOM      3  C   UNL     1       1.903  -0.143  -2.541  0.00  0.00    +0.000 C 
ATOM      4  C   UNL     1       1.548  -0.691  -3.903  0.00  0.00    +0.000 A 
ATOM      5  C   UNL     1       1.298   0.140  -5.003  0.00  0.00    +0.000 A 
ATOM      6  C   UNL     1       0.890  -0.463  -6.177  0.00  0.00    +0.000 A 
ATOM      7  C   UNL     1       0.761  -1.830  -6.297  0.00  0.00    +0.000 A 
ATOM      8  C   UNL     1       1.015  -2.680  -5.249  0.00  0.00    +0.000 A 
ATOM      9  C   UNL     1       1.389  -2.089  -4.040  0.00  0.00    +0.000 A 
ATOM     10  C   UNL     1       1.534  -2.946  -2.829  0.00  0.00    +0.000 C 
ATOM     11  N   UNL     1       0.835  -2.751  -1.742  0.00  0.00    +0.000 NA
ATOM     12  N   UNL     1       0.017  -1.620  -1.733  0.00  0.00    +0.000 N 
ATOM     13  C   UNL     1      -1.375  -1.795  -1.606  0.00  0.00    +0.000 C 
ATOM     14  O   UNL     1      -2.192  -0.893  -1.478  0.00  0.00    +0.000 OA
ATOM     15  O   UNL     1       0.327  -2.207  -7.529  0.00  0.00    +0.000 OA
ATOM     16  C   UNL     1       0.057  -0.920  -8.118  0.00  0.00    +0.000 C 
ATOM     17  O   UNL     1       0.538   0.184  -7.322  0.00  0.00    +0.000 OA
ENDROOT
BRANCH  10  18
ATOM     18  C   UNL     1       2.514  -4.065  -2.897  0.00  0.00    +0.000 A 
ATOM     19  C   UNL     1       3.681  -3.935  -3.662  0.00  0.00    +0.000 A 
ATOM     20  C   UNL     1       4.564  -5.007  -3.782  0.00  0.00    +0.000 A 
ATOM     21  C   UNL     1       4.279  -6.231  -3.172  0.00  0.00    +0.000 A 
ATOM     22  C   UNL     1       3.177  -6.314  -2.315  0.00  0.00    +0.000 A 
ATOM     23  C   UNL     1       2.284  -5.244  -2.187  0.00  0.00    +0.000 A 
BRANCH  21  24
ATOM     24  N   UNL     1       5.207  -7.275  -3.239  0.00  0.00    +0.000 N 
ATOM     25  H   UNL     1       5.981  -7.209  -3.844  0.00  0.00    +0.000 HD
ATOM     26  H   UNL     1       5.087  -8.077  -2.680  0.00  0.00    +0.000 HD
ENDBRANCH  21  24
ENDBRANCH  10  18
BRANCH  13  27
ATOM     27  C   UNL     1      -1.871  -3.217  -1.712  0.00  0.00    +0.000 C 
ATOM     28  C   UNL     1      -2.754  -3.615  -2.878  0.00  0.00    +0.000 C 
ATOM     29  C   UNL     1      -3.315  -3.608  -1.486  0.00  0.00    +0.000 C 
ENDBRANCH  13  27
TORSDOF 3
