REMARK  Name = 
REMARK  5 active torsions:
REMARK  status: ('A' for Active; 'I' for Inactive)
REMARK    1  A    between atoms: C_1  and  N_2
REMARK    2  A    between atoms: C_5  and  C_6
REMARK    3  A    between atoms: C_7  and  O_8
REMARK    4  A    between atoms: C_10  and  O_11
REMARK    5  A    between atoms: C_16  and  C_17
REMARK                            x       y       z     vdW  Elec       q    Type
REMARK                         _______ _______ _______ _____ _____    ______ ____
ROOT
ATOM      1  C   UNL     1       0.647  -5.600  -0.449  0.00  0.00    +0.000 A 
ATOM      2  C   UNL     1      -0.420  -6.348   0.078  0.00  0.00    +0.000 A 
ATOM      3  C   UNL     1      -0.397  -7.740   0.061  0.00  0.00    +0.000 A 
ATOM      4  C   UNL     1       0.702  -8.402  -0.484  0.00  0.00    +0.000 A 
ATOM      5  C   UNL     1       1.776  -7.677  -1.019  0.00  0.00    +0.000 A 
ATOM      6  C   UNL     1       2.959  -8.340  -1.603  0.00  0.00    +0.000 A 
ATOM      7  O   UNL     1       3.150  -9.547  -1.625  0.00  0.00    +0.000 OA
ATOM      8  C   UNL     1       3.978  -7.461  -2.204  0.00  0.00    +0.000 A 
ATOM      9  C   UNL     1       3.814  -6.131  -2.177  0.00  0.00    +0.000 A 
ATOM     10  O   UNL     1       2.747  -5.508  -1.554  0.00  0.00    +0.000 OA
ATOM     11  C   UNL     1       1.742  -6.278  -1.013  0.00  0.00    +0.000 A 
ENDROOT
BRANCH   1  16
ATOM     12  C   UNL     1       0.128   0.089   0.004  0.00  0.00    +0.000 C 
ATOM     13  N   UNL     1       0.673  -1.223  -0.370  0.00  0.00    +0.000 N 
ATOM     14  C   UNL     1       0.983  -1.983   0.846  0.00  0.00    +0.000 C 
ATOM     15  C   UNL     1       1.072  -3.467   0.684  0.00  0.00    +0.000 C 
ATOM     16  C   UNL     1       0.611  -4.122  -0.393  0.00  0.00    +0.000 C 
ATOM     17  C   UNL     1      -0.011  -3.395  -1.547  0.00  0.00    +0.000 C 
ATOM     18  C   UNL     1      -0.257  -1.896  -1.288  0.00  0.00    +0.000 C 
ATOM     19  H   UNL     1       1.553  -1.130  -0.879  0.00  0.00    +0.000 HD
ENDBRANCH   1  16
BRANCH   9  20
ATOM     20  C   UNL     1       4.785  -5.211  -2.809  0.00  0.00    +0.000 A 
ATOM     21  C   UNL     1       5.496  -5.577  -3.967  0.00  0.00    +0.000 A 
ATOM     22  C   UNL     1       6.397  -4.697  -4.572  0.00  0.00    +0.000 A 
ATOM     23  C   UNL     1       6.596  -3.429  -4.035  0.00  0.00    +0.000 A 
ATOM     24  C   UNL     1       5.892  -3.047  -2.895  0.00  0.00    +0.000 A 
ATOM     25 CL   UNL     1       6.134  -1.475  -2.236  0.00  0.00    +0.000 Cl
ATOM     26  C   UNL     1       4.992  -3.925  -2.285  0.00  0.00    +0.000 A 
ENDBRANCH   9  20
BRANCH   2  27
ATOM     27  O   UNL     1      -1.505  -5.698   0.607  0.00  0.00    +0.000 OA
ATOM     28  H   UNL     1      -1.529  -4.761   0.623  0.00  0.00    +0.000 HD
ENDBRANCH   2  27
BRANCH   4  29
ATOM     29  O   UNL     1       0.706  -9.768  -0.496  0.00  0.00    +0.000 OA
ATOM     30  H   UNL     1      -0.017 -10.241  -0.135  0.00  0.00    +0.000 HD
ENDBRANCH   4  29
TORSDOF 4
