REMARK  Name = 
REMARK  11 active torsions:
REMARK  status: ('A' for Active; 'I' for Inactive)
REMARK    1  A    between atoms: C_1  and  C_2
REMARK    2  A    between atoms: C_2  and  C_3
REMARK    3  A    between atoms: C_3  and  O_4
REMARK    4  A    between atoms: O_4  and  C_5
REMARK    5  A    between atoms: C_5  and  C_6
REMARK    6  A    between atoms: C_6  and  N_7
REMARK    7  A    between atoms: C_9  and  C_10
REMARK    8  A    between atoms: C_19  and  C_20
REMARK    9  A    between atoms: C_23  and  C_24
REMARK   10  A    between atoms: C_27  and  O_28
REMARK   11  A    between atoms: O_28  and  C_29
REMARK                            x       y       z     vdW  Elec       q    Type
REMARK                         _______ _______ _______ _____ _____    ______ ____
ROOT
ATOM      1  N   UNL     1       3.261  -0.218  -1.638  0.00  0.00    +0.000 N 
ATOM      2  C   UNL     1       2.895   0.705  -0.571  0.00  0.00    +0.000 C 
ATOM      3  C   UNL     1       2.412   1.978  -1.277  0.00  0.00    +0.000 C 
ATOM      4  C   UNL     1       3.233   2.006  -2.574  0.00  0.00    +0.000 C 
ATOM      5  C   UNL     1       3.578   0.534  -2.864  0.00  0.00    +0.000 C 
ATOM      6  H   UNL     1       4.106  -0.668  -1.286  0.00  0.00    +0.000 HD
ENDROOT
BRANCH   3   7
ATOM      7  C   UNL     1       2.509   3.255  -0.450  0.00  0.00    +0.000 A 
ATOM      8  C   UNL     1       1.323   3.972  -0.155  0.00  0.00    +0.000 A 
ATOM      9  C   UNL     1       1.347   5.158   0.590  0.00  0.00    +0.000 A 
ATOM     10  C   UNL     1       2.566   5.614   1.033  0.00  0.00    +0.000 A 
ATOM     11  C   UNL     1       3.730   4.940   0.752  0.00  0.00    +0.000 A 
ATOM     12  C   UNL     1       3.737   3.765   0.018  0.00  0.00    +0.000 A 
ATOM     13  O   UNL     1       4.823   5.565   1.271  0.00  0.00    +0.000 OA
ATOM     14  C   UNL     1       4.210   6.704   1.914  0.00  0.00    +0.000 C 
ATOM     15  O   UNL     1       2.776   6.742   1.764  0.00  0.00    +0.000 OA
ENDBRANCH   3   7
BRANCH   5  16
ATOM     16  C   UNL     1       5.067   0.362  -3.173  0.00  0.00    +0.000 A 
ATOM     17  C   UNL     1       5.977   0.116  -2.133  0.00  0.00    +0.000 A 
ATOM     18  C   UNL     1       7.330  -0.062  -2.382  0.00  0.00    +0.000 A 
ATOM     19  C   UNL     1       7.820   0.030  -3.676  0.00  0.00    +0.000 A 
ATOM     20  C   UNL     1       6.931   0.292  -4.724  0.00  0.00    +0.000 A 
ATOM     21  C   UNL     1       5.559   0.460  -4.477  0.00  0.00    +0.000 A 
BRANCH  19  22
ATOM     22  O   UNL     1       9.135  -0.121  -4.028  0.00  0.00    +0.000 OA
ATOM     23  C   UNL     1      10.033  -0.393  -2.955  0.00  0.00    +0.000 C 
ENDBRANCH  19  22
ENDBRANCH   5  16
BRANCH   4  24
ATOM     24  C   UNL     1       2.407   2.567  -3.700  0.00  0.00    +0.000 C 
ATOM     25  O   UNL     1       1.313   2.170  -4.071  0.00  0.00    +0.000 OA
ATOM     26  O   UNL     1       2.991   3.612  -4.317  0.00  0.00    +0.000 OA
ENDBRANCH   4  24
BRANCH   1  27
ATOM     27  C   UNL     1       2.542  -1.475  -1.813  0.00  0.00    +0.000 C 
BRANCH  27  28
ATOM     28  C   UNL     1       3.094  -2.593  -0.900  0.00  0.00    +0.000 C 
BRANCH  28  29
ATOM     29  O   UNL     1       2.492  -3.880  -1.075  0.00  0.00    +0.000 OA
BRANCH  29  30
ATOM     30  C   UNL     1       2.628  -4.506  -2.347  0.00  0.00    +0.000 C 
BRANCH  30  32
ATOM     31  C   UNL     1       4.804  -5.777  -1.871  0.00  0.00    +0.000 C 
ATOM     32  C   UNL     1       4.055  -4.828  -2.798  0.00  0.00    +0.000 C 
ENDBRANCH  30  32
ENDBRANCH  29  30
ENDBRANCH  28  29
ENDBRANCH  27  28
ENDBRANCH   1  27
TORSDOF 9
