REMARK  Name = 
REMARK  9 active torsions:
REMARK  status: ('A' for Active; 'I' for Inactive)
REMARK    1  A    between atoms: C_1  and  C_2
REMARK    2  A    between atoms: C_2  and  C_3
REMARK    3  A    between atoms: C_3  and  C_4
REMARK    4  A    between atoms: C_16  and  C_17
REMARK    5  A    between atoms: C_16  and  C_18
REMARK    6  A    between atoms: C_22  and  C_23
REMARK    7  A    between atoms: C_23  and  C_24
REMARK    8  A    between atoms: C_25  and  C_26
REMARK    9  A    between atoms: C_27  and  O_28
REMARK                            x       y       z     vdW  Elec       q    Type
REMARK                         _______ _______ _______ _____ _____    ______ ____
ROOT
ATOM      1  C   UNL     1       0.236   1.175   1.288  0.00  0.00    +0.000 A 
ATOM      2  C   UNL     1      -0.250   0.269   0.405  0.00  0.00    +0.000 A 
ATOM      3  C   UNL     1      -0.952   0.618  -0.829  0.00  0.00    +0.000 A 
ATOM      4  O   UNL     1      -1.410  -0.230  -1.574  0.00  0.00    +0.000 OA
ATOM      5  O   UNL     1      -1.070   1.944  -1.057  0.00  0.00    +0.000 OA
ATOM      6  C   UNL     1      -0.046   2.692  -0.487  0.00  0.00    +0.000 A 
ATOM      7  C   UNL     1       0.626   3.500  -1.346  0.00  0.00    +0.000 A 
ATOM      8  C   UNL     1       1.123   4.693  -0.863  0.00  0.00    +0.000 A 
ATOM      9  C   UNL     1       1.200   4.861   0.531  0.00  0.00    +0.000 A 
ATOM     10  C   UNL     1       0.930   3.758   1.391  0.00  0.00    +0.000 A 
ATOM     11  C   UNL     1       0.314   2.597   0.854  0.00  0.00    +0.000 A 
ATOM     12  O   UNL     1       1.205   3.828   2.740  0.00  0.00    +0.000 OA
ATOM     13  C   UNL     1       1.973   4.970   3.233  0.00  0.00    +0.000 C 
ATOM     14  C   UNL     1       1.437   5.352   4.618  0.00  0.00    +0.000 C 
ATOM     15  C   UNL     1       3.442   4.541   3.367  0.00  0.00    +0.000 C 
ATOM     16  C   UNL     1       1.918   6.203   2.364  0.00  0.00    +0.000 C 
ATOM     17  C   UNL     1       1.577   6.155   1.079  0.00  0.00    +0.000 C 
ATOM     18  O   UNL     1       1.415   5.713  -1.731  0.00  0.00    +0.000 OA
ATOM     19  C   UNL     1       1.549   5.354  -3.129  0.00  0.00    +0.000 C 
ATOM     20  C   UNL     1       0.598   4.240  -3.630  0.00  0.00    +0.000 C 
ATOM     21  C   UNL     1      -0.901   4.582  -3.619  0.00  0.00    +0.000 C 
ATOM     22  C   UNL     1       0.832   3.046  -2.745  0.00  0.00    +0.000 C 
ENDROOT
BRANCH  19  23
ATOM     23  C   UNL     1       1.371   6.611  -3.983  0.00  0.00    +0.000 C 
ATOM     24  C   UNL     1       2.426   7.659  -3.679  0.00  0.00    +0.000 C 
ENDBRANCH  19  23
BRANCH  22  25
ATOM     25  O   UNL     1       2.182   2.590  -2.863  0.00  0.00    +0.000 OA
ATOM     26  H   UNL     1       2.788   3.305  -2.614  0.00  0.00    +0.000 HD
ENDBRANCH  22  25
BRANCH   1  27
ATOM     27  C   UNL     1       0.961   0.608   2.471  0.00  0.00    +0.000 C 
BRANCH  27  29
ATOM     28  C   UNL     1      -1.233  -0.249   3.550  0.00  0.00    +0.000 C 
ATOM     29  C   UNL     1       0.113   0.452   3.732  0.00  0.00    +0.000 C 
ENDBRANCH  27  29
ENDBRANCH   1  27
TORSDOF 4
