REMARK  Name = 
REMARK  9 active torsions:
REMARK  status: ('A' for Active; 'I' for Inactive)
REMARK    1  A    between atoms: C_1  and  O_2
REMARK    2  A    between atoms: O_2  and  C_3
REMARK    3  A    between atoms: C_8  and  O_9
REMARK    4  A    between atoms: N_18  and  C_19
REMARK    5  A    between atoms: C_19  and  C_20
REMARK    6  A    between atoms: C_20  and  O_21
REMARK    7  A    between atoms: O_21  and  C_22
REMARK    8  A    between atoms: N_24  and  C_25
REMARK    9  A    between atoms: C_25  and  C_26
REMARK                            x       y       z     vdW  Elec       q    Type
REMARK                         _______ _______ _______ _____ _____    ______ ____
ROOT
ATOM      1  C   UNL     1      -0.652   0.230   1.149  0.00  0.00    +0.000 A 
ATOM      2  C   UNL     1      -1.326  -0.819   1.763  0.00  0.00    +0.000 A 
ATOM      3  C   UNL     1      -2.705  -0.874   1.688  0.00  0.00    +0.000 A 
ATOM      4  C   UNL     1      -3.429   0.099   0.968  0.00  0.00    +0.000 A 
ATOM      5  C   UNL     1      -2.784   1.113   0.233  0.00  0.00    +0.000 A 
ATOM      6  C   UNL     1      -1.374   1.168   0.391  0.00  0.00    +0.000 A 
ATOM      7  C   UNL     1      -3.613   2.080  -0.539  0.00  0.00    +0.000 A 
ATOM      8  C   UNL     1      -3.105   2.966  -1.510  0.00  0.00    +0.000 A 
ATOM      9  C   UNL     1      -3.882   3.987  -2.081  0.00  0.00    +0.000 A 
ATOM     10  C   UNL     1      -5.198   4.175  -1.677  0.00  0.00    +0.000 A 
ATOM     11  C   UNL     1      -5.727   3.305  -0.735  0.00  0.00    +0.000 A 
ATOM     12  C   UNL     1      -4.981   2.202  -0.249  0.00  0.00    +0.000 A 
ATOM     13  C   UNL     1      -5.731   1.271   0.698  0.00  0.00    +0.000 C 
ATOM     14  C   UNL     1      -4.922   0.019   1.078  0.00  0.00    +0.000 C 
ATOM     15  N   UNL     1      -6.288   2.012   1.878  0.00  0.00    +0.000 N 
ATOM     16  C   UNL     1      -6.588   3.426   1.519  0.00  0.00    +0.000 C 
ATOM     17  C   UNL     1      -6.982   3.630   0.040  0.00  0.00    +0.000 C 
ATOM     18  H   UNL     1      -5.566   1.975   2.598  0.00  0.00    +0.000 HD
ENDROOT
BRANCH   1  20
ATOM     19  C   UNL     1       1.280  -0.029   2.471  0.00  0.00    +0.000 C 
ATOM     20  O   UNL     1       0.704   0.402   1.243  0.00  0.00    +0.000 OA
ENDBRANCH   1  20
BRANCH   6  21
ATOM     21  O   UNL     1      -0.658   2.243  -0.093  0.00  0.00    +0.000 OA
ATOM     22  H   UNL     1      -1.087   2.900  -0.605  0.00  0.00    +0.000 HD
ENDBRANCH   6  21
BRANCH  15  23
ATOM     23  C   UNL     1      -7.510   1.390   2.429  0.00  0.00    +0.000 C 
BRANCH  23  24
ATOM     24  C   UNL     1      -7.303   0.093   3.213  0.00  0.00    +0.000 C 
BRANCH  24  25
ATOM     25  O   UNL     1      -8.505  -0.217   3.935  0.00  0.00    +0.000 OA
BRANCH  25  26
ATOM     26  C   UNL     1      -9.277  -1.169   3.365  0.00  0.00    +0.000 C 
ATOM     27  O   UNL     1      -9.066  -1.729   2.298  0.00  0.00    +0.000 OA
ATOM     28  N   UNL     1     -10.345  -1.503   4.148  0.00  0.00    +0.000 N 
ATOM     29  H   UNL     1     -10.629  -2.445   4.169  0.00  0.00    +0.000 HD
BRANCH  28  30
ATOM     30  C   UNL     1     -11.083  -0.544   4.950  0.00  0.00    +0.000 C 
BRANCH  30  31
ATOM     31  C   UNL     1     -12.355  -0.113   4.223  0.00  0.00    +0.000 C 
ATOM     32 CL   UNL     1     -13.436  -1.514   3.972  0.00  0.00    +0.000 Cl
ENDBRANCH  30  31
ENDBRANCH  28  30
ENDBRANCH  25  26
ENDBRANCH  24  25
ENDBRANCH  23  24
ENDBRANCH  15  23
TORSDOF 8
