REMARK  Name = 
REMARK  11 active torsions:
REMARK  status: ('A' for Active; 'I' for Inactive)
REMARK    1  A    between atoms: C_1  and  C_2
REMARK    2  A    between atoms: C_2  and  C_3
REMARK    3  A    between atoms: C_3  and  C_4
REMARK    4  A    between atoms: C_4  and  C_5
REMARK    5  A    between atoms: C_5  and  C_6
REMARK    6  A    between atoms: C_6  and  N_7
REMARK    7  A    between atoms: C_9  and  C_10
REMARK    8  A    between atoms: C_19  and  C_20
REMARK    9  A    between atoms: C_23  and  C_24
REMARK   10  A    between atoms: C_27  and  O_28
REMARK   11  A    between atoms: O_28  and  C_29
REMARK                            x       y       z     vdW  Elec       q    Type
REMARK                         _______ _______ _______ _____ _____    ______ ____
ROOT
ATOM      1  N   UNL     1      -1.070  -1.068  -5.019  0.00  0.00    +0.000 N 
ATOM      2  C   UNL     1      -1.840  -2.313  -5.292  0.00  0.00    +0.000 C 
ATOM      3  C   UNL     1      -1.073  -3.411  -4.572  0.00  0.00    +0.000 C 
ATOM      4  C   UNL     1       0.385  -3.018  -4.838  0.00  0.00    +0.000 C 
ATOM      5  C   UNL     1       0.362  -1.491  -4.970  0.00  0.00    +0.000 C 
ATOM      6  H   UNL     1      -1.203  -0.355  -5.735  0.00  0.00    +0.000 HD
ENDROOT
BRANCH   3   7
ATOM      7  C   UNL     1      -1.309  -4.855  -4.967  0.00  0.00    +0.000 A 
ATOM      8  C   UNL     1      -1.077  -5.312  -6.286  0.00  0.00    +0.000 A 
ATOM      9  C   UNL     1      -0.986  -6.679  -6.568  0.00  0.00    +0.000 A 
ATOM     10  C   UNL     1      -1.162  -7.562  -5.525  0.00  0.00    +0.000 A 
ATOM     11  C   UNL     1      -1.457  -7.131  -4.255  0.00  0.00    +0.000 A 
ATOM     12  C   UNL     1      -1.547  -5.792  -3.946  0.00  0.00    +0.000 A 
ATOM     13  O   UNL     1      -1.570  -8.155  -3.369  0.00  0.00    +0.000 OA
ATOM     14  C   UNL     1      -1.294  -9.282  -4.225  0.00  0.00    +0.000 C 
ATOM     15  O   UNL     1      -1.033  -8.913  -5.596  0.00  0.00    +0.000 OA
ENDBRANCH   3   7
BRANCH   5  16
ATOM     16  C   UNL     1       1.115  -1.045  -6.224  0.00  0.00    +0.000 A 
ATOM     17  C   UNL     1       0.495  -0.942  -7.479  0.00  0.00    +0.000 A 
ATOM     18  C   UNL     1       1.210  -0.545  -8.615  0.00  0.00    +0.000 A 
ATOM     19  C   UNL     1       2.567  -0.249  -8.517  0.00  0.00    +0.000 A 
ATOM     20  C   UNL     1       3.195  -0.360  -7.280  0.00  0.00    +0.000 A 
ATOM     21  C   UNL     1       2.485  -0.760  -6.144  0.00  0.00    +0.000 A 
BRANCH  19  22
ATOM     22  O   UNL     1       3.371   0.155  -9.551  0.00  0.00    +0.000 OA
ATOM     23  C   UNL     1       2.744   0.279 -10.823  0.00  0.00    +0.000 C 
ENDBRANCH  19  22
ENDBRANCH   5  16
BRANCH   4  24
ATOM     24  C   UNL     1       1.274  -3.493  -3.721  0.00  0.00    +0.000 C 
ATOM     25  O   UNL     1       0.980  -3.611  -2.543  0.00  0.00    +0.000 OA
ATOM     26  O   UNL     1       2.503  -3.842  -4.150  0.00  0.00    +0.000 OA
ENDBRANCH   4  24
BRANCH   1  27
ATOM     27  C   UNL     1      -1.531  -0.444  -3.762  0.00  0.00    +0.000 C 
BRANCH  27  28
ATOM     28  C   UNL     1      -0.827   0.846  -3.297  0.00  0.00    +0.000 C 
BRANCH  28  29
ATOM     29  C   UNL     1      -0.840   2.037  -4.256  0.00  0.00    +0.000 C 
BRANCH  29  30
ATOM     30  C   UNL     1      -2.244   2.547  -4.584  0.00  0.00    +0.000 C 
BRANCH  30  32
ATOM     31  C   UNL     1      -3.567   4.297  -5.827  0.00  0.00    +0.000 C 
ATOM     32  C   UNL     1      -2.179   3.793  -5.469  0.00  0.00    +0.000 C 
ENDBRANCH  30  32
ENDBRANCH  29  30
ENDBRANCH  28  29
ENDBRANCH  27  28
ENDBRANCH   1  27
TORSDOF 9
