REMARK  Name = 
REMARK  7 active torsions:
REMARK  status: ('A' for Active; 'I' for Inactive)
REMARK    1  A    between atoms: C_1  and  O_2
REMARK    2  A    between atoms: O_2  and  C_3
REMARK    3  A    between atoms: C_7  and  N_8
REMARK    4  A    between atoms: N_11  and  C_12
REMARK    5  A    between atoms: C_21  and  N_22
REMARK    6  A    between atoms: C_25  and  O_26
REMARK    7  A    between atoms: O_26  and  C_27
REMARK                            x       y       z     vdW  Elec       q    Type
REMARK                         _______ _______ _______ _____ _____    ______ ____
ROOT
ATOM      1  C   UNL     1       0.802   1.667   1.749  0.00  0.00    +0.000 A 
ATOM      2  C   UNL     1      -0.174   1.883   2.730  0.00  0.00    +0.000 A 
ATOM      3  C   UNL     1       0.148   2.030   4.070  0.00  0.00    +0.000 A 
ATOM      4  N   UNL     1      -0.857   2.224   4.939  0.00  0.00    +0.000 NA
ATOM      5  C   UNL     1      -0.589   2.371   6.254  0.00  0.00    +0.000 A 
ATOM      6  C   UNL     1       0.719   2.301   6.709  0.00  0.00    +0.000 A 
ATOM      7  C   UNL     1       1.786   2.155   5.822  0.00  0.00    +0.000 A 
ATOM      8  C   UNL     1       1.499   1.974   4.455  0.00  0.00    +0.000 A 
ATOM      9  C   UNL     1       2.485   1.740   3.469  0.00  0.00    +0.000 A 
ATOM     10  C   UNL     1       2.144   1.559   2.127  0.00  0.00    +0.000 A 
ENDROOT
BRANCH   5  11
ATOM     11  N   UNL     1      -1.640   2.641   7.095  0.00  0.00    +0.000 N 
ATOM     12  C   UNL     1      -2.947   2.010   6.849  0.00  0.00    +0.000 C 
ATOM     13  C   UNL     1      -4.100   2.996   7.160  0.00  0.00    +0.000 C 
ATOM     14  N   UNL     1      -3.918   3.569   8.508  0.00  0.00    +0.000 N 
ATOM     15  C   UNL     1      -2.619   4.236   8.701  0.00  0.00    +0.000 C 
ATOM     16  C   UNL     1      -1.472   3.241   8.423  0.00  0.00    +0.000 C 
BRANCH  14  17
ATOM     17  C   UNL     1      -4.967   3.793   9.373  0.00  0.00    +0.000 A 
ATOM     18  C   UNL     1      -4.755   3.811  10.763  0.00  0.00    +0.000 A 
ATOM     19  C   UNL     1      -5.807   3.969  11.669  0.00  0.00    +0.000 A 
ATOM     20  C   UNL     1      -7.105   4.121  11.202  0.00  0.00    +0.000 A 
ATOM     21  C   UNL     1      -7.346   4.119   9.833  0.00  0.00    +0.000 A 
ATOM     22  C   UNL     1      -6.287   3.956   8.934  0.00  0.00    +0.000 A 
ENDBRANCH  14  17
ENDBRANCH   5  11
BRANCH   7  23
ATOM     23  N   UNL     1       3.077   1.973   6.362  0.00  0.00    +0.000 N 
ATOM     24  H   UNL     1       3.232   2.110   7.324  0.00  0.00    +0.000 HD
ATOM     25  H   UNL     1       3.822   1.708   5.776  0.00  0.00    +0.000 HD
ENDBRANCH   7  23
BRANCH   1  27
ATOM     26  C   UNL     1      -0.682   2.141  -0.033  0.00  0.00    +0.000 C 
ATOM     27  O   UNL     1       0.505   1.496   0.419  0.00  0.00    +0.000 OA
ENDBRANCH   1  27
BRANCH  10  28
ATOM     28  O   UNL     1       3.066   1.327   1.138  0.00  0.00    +0.000 OA
ATOM     29  C   UNL     1       4.286   0.717   1.549  0.00  0.00    +0.000 C 
ENDBRANCH  10  28
TORSDOF 5
