REMARK  Name = 
REMARK  10 active torsions:
REMARK  status: ('A' for Active; 'I' for Inactive)
REMARK    1  A    between atoms: C_1  and  C_2
REMARK    2  A    between atoms: C_2  and  C_3
REMARK    3  A    between atoms: C_3  and  C_4
REMARK    4  A    between atoms: C_4  and  C_5
REMARK    5  A    between atoms: C_5  and  C_6
REMARK    6  A    between atoms: C_6  and  C_7
REMARK    7  A    between atoms: C_7  and  C_8
REMARK    8  A    between atoms: C_7  and  N_11
REMARK    9  A    between atoms: C_16  and  C_17
REMARK   10  A    between atoms: C_22  and  S_23
REMARK                            x       y       z     vdW  Elec       q    Type
REMARK                         _______ _______ _______ _____ _____    ______ ____
ROOT
ATOM      1  N   UNL     1      -1.398  -6.018  -1.435  0.00  0.00    +0.000 N 
ATOM      2  C   UNL     1      -1.099  -7.354  -1.527  0.00  0.00    +0.000 A 
ATOM      3  N   UNL     1      -1.333  -7.828  -2.729  0.00  0.00    +0.000 NA
ATOM      4  C   UNL     1      -1.863  -6.776  -3.432  0.00  0.00    +0.000 A 
ATOM      5  C   UNL     1      -2.307  -6.737  -4.767  0.00  0.00    +0.000 A 
ATOM      6  C   UNL     1      -3.020  -5.624  -5.243  0.00  0.00    +0.000 A 
ATOM      7  C   UNL     1      -3.092  -4.497  -4.394  0.00  0.00    +0.000 A 
ATOM      8  C   UNL     1      -2.544  -4.464  -3.102  0.00  0.00    +0.000 A 
ATOM      9  C   UNL     1      -1.968  -5.643  -2.631  0.00  0.00    +0.000 A 
ENDROOT
BRANCH   6  10
ATOM     10  C   UNL     1      -3.694  -5.595  -6.571  0.00  0.00    +0.000 A 
ATOM     11  C   UNL     1      -3.587  -4.402  -7.334  0.00  0.00    +0.000 A 
ATOM     12  C   UNL     1      -4.260  -4.209  -8.545  0.00  0.00    +0.000 A 
ATOM     13  C   UNL     1      -5.041  -5.225  -9.069  0.00  0.00    +0.000 A 
ATOM     14  C   UNL     1      -5.144  -6.427  -8.377  0.00  0.00    +0.000 A 
ATOM     15  C   UNL     1      -4.493  -6.617  -7.134  0.00  0.00    +0.000 A 
BRANCH  15  16
ATOM     16  S   UNL     1      -4.832  -8.196  -6.365  0.00  0.00    +0.000 S 
ATOM     17  O   UNL     1      -6.150  -8.618  -6.795  0.00  0.00    +0.000 OA
ATOM     18  O   UNL     1      -3.679  -9.043  -6.570  0.00  0.00    +0.000 OA
ATOM     19  O   UNL     1      -4.946  -7.944  -4.777  0.00  0.00    +0.000 OA
ENDBRANCH  15  16
ENDBRANCH   6  10
BRANCH   1  20
ATOM     20  C   UNL     1      -1.078  -5.188  -0.275  0.00  0.00    +0.000 C 
BRANCH  20  21
ATOM     21  C   UNL     1      -2.330  -4.722   0.438  0.00  0.00    +0.000 C 
ATOM     22  O   UNL     1      -3.160  -3.924   0.035  0.00  0.00    +0.000 OA
ATOM     23  O   UNL     1      -2.442  -5.243   1.680  0.00  0.00    +0.000 OA
ENDBRANCH  20  21
BRANCH  20  24
ATOM     24  C   UNL     1      -0.154  -4.010  -0.634  0.00  0.00    +0.000 C 
BRANCH  24  25
ATOM     25  C   UNL     1       0.354  -3.243   0.594  0.00  0.00    +0.000 C 
BRANCH  25  26
ATOM     26  C   UNL     1       1.262  -2.085   0.172  0.00  0.00    +0.000 C 
BRANCH  26  27
ATOM     27  C   UNL     1       1.779  -1.300   1.379  0.00  0.00    +0.000 C 
BRANCH  27  29
ATOM     28  C   UNL     1       3.210   0.634   2.137  0.00  0.00    +0.000 C 
ATOM     29  C   UNL     1       2.686  -0.148   0.943  0.00  0.00    +0.000 C 
ENDBRANCH  27  29
ENDBRANCH  26  27
ENDBRANCH  25  26
ENDBRANCH  24  25
ENDBRANCH  20  24
ENDBRANCH   1  20
TORSDOF 9
