REMARK  Name = 
REMARK  10 active torsions:
REMARK  status: ('A' for Active; 'I' for Inactive)
REMARK    1  A    between atoms: C_2  and  C_3
REMARK    2  A    between atoms: C_3  and  N_4
REMARK    3  A    between atoms: N_4  and  C_5
REMARK    4  A    between atoms: N_4  and  C_18
REMARK    5  A    between atoms: C_5  and  C_6
REMARK    6  A    between atoms: C_11  and  C_12
REMARK    7  A    between atoms: C_14  and  O_15
REMARK    8  A    between atoms: C_21  and  C_22
REMARK    9  A    between atoms: N_24  and  C_25
REMARK   10  A    between atoms: C_25  and  C_26
REMARK                            x       y       z     vdW  Elec       q    Type
REMARK                         _______ _______ _______ _____ _____    ______ ____
ROOT
ATOM      1  N   UNL     1      -2.051  -0.651   1.307  0.00  0.00    +0.000 N 
ENDROOT
BRANCH   1   2
ATOM      2  C   UNL     1      -1.595  -1.940   1.673  0.00  0.00    +0.000 A 
ATOM      3  C   UNL     1      -0.597  -2.654   0.995  0.00  0.00    +0.000 A 
ATOM      4  C   UNL     1      -0.451  -4.061   1.063  0.00  0.00    +0.000 A 
ATOM      5  C   UNL     1      -1.189  -4.810   1.970  0.00  0.00    +0.000 A 
ATOM      6  C   UNL     1      -1.965  -4.096   2.875  0.00  0.00    +0.000 A 
ATOM      7  C   UNL     1      -2.158  -2.693   2.728  0.00  0.00    +0.000 A 
BRANCH   5   8
ATOM      8  C   UNL     1      -1.123  -6.317   1.880  0.00  0.00    +0.000 C 
ATOM      9  O   UNL     1      -0.403  -6.844   1.043  0.00  0.00    +0.000 OA
ATOM     10  N   UNL     1      -1.918  -7.052   2.730  0.00  0.00    +0.000 N 
ATOM     11  H   UNL     1      -2.421  -6.581   3.433  0.00  0.00    +0.000 HD
BRANCH  10  12
ATOM     12  C   UNL     1      -2.043  -8.498   2.631  0.00  0.00    +0.000 C 
BRANCH  12  13
ATOM     13  C   UNL     1      -1.587  -9.120   3.904  0.00  0.00    +0.000 A 
ATOM     14  C   UNL     1      -0.293  -9.054   4.485  0.00  0.00    +0.000 A 
ATOM     15  C   UNL     1      -0.324  -9.820   5.622  0.00  0.00    +0.000 A 
ATOM     16  O   UNL     1      -1.558 -10.352   5.801  0.00  0.00    +0.000 OA
ATOM     17  C   UNL     1      -2.328  -9.935   4.758  0.00  0.00    +0.000 A 
ENDBRANCH  12  13
ENDBRANCH  10  12
ENDBRANCH   5   8
ENDBRANCH   1   2
BRANCH   1  18
ATOM     18  C   UNL     1      -1.762   0.078  -0.008  0.00  0.00    +0.000 C 
BRANCH  18  20
ATOM     19  C   UNL     1      -1.108  -1.901  -1.913  0.00  0.00    +0.000 C 
ATOM     20  C   UNL     1      -1.410  -0.987  -1.033  0.00  0.00    +0.000 C 
ENDBRANCH  18  20
ENDBRANCH   1  18
BRANCH   1  21
ATOM     21  C   UNL     1      -3.083   0.034   2.112  0.00  0.00    +0.000 C 
BRANCH  21  22
ATOM     22  C   UNL     1      -4.531  -0.344   1.809  0.00  0.00    +0.000 A 
ATOM     23  C   UNL     1      -4.913  -1.607   1.347  0.00  0.00    +0.000 A 
ATOM     24  C   UNL     1      -6.255  -2.006   1.357  0.00  0.00    +0.000 A 
ATOM     25  C   UNL     1      -7.270  -1.145   1.722  0.00  0.00    +0.000 A 
ATOM     26  N   UNL     1      -8.534  -1.589   1.702  0.00  0.00    +0.000 NA
ATOM     27  C   UNL     1      -9.514  -0.707   1.947  0.00  0.00    +0.000 A 
ATOM     28  C   UNL     1     -10.915  -1.224   1.841  0.00  0.00    +0.000 C 
ATOM     29  N   UNL     1      -9.326   0.595   2.220  0.00  0.00    +0.000 NA
ATOM     30  C   UNL     1      -8.041   0.978   2.271  0.00  0.00    +0.000 A 
ATOM     31  C   UNL     1      -6.934   0.165   2.060  0.00  0.00    +0.000 A 
ATOM     32  C   UNL     1      -5.562   0.554   2.135  0.00  0.00    +0.000 A 
BRANCH  30  33
ATOM     33  O   UNL     1      -7.897   2.318   2.471  0.00  0.00    +0.000 OA
ATOM     34  H   UNL     1      -8.653   2.855   2.612  0.00  0.00    +0.000 HD
ENDBRANCH  30  33
ENDBRANCH  21  22
ENDBRANCH   1  21
TORSDOF 9
