REMARK  Name = 
REMARK  12 active torsions:
REMARK  status: ('A' for Active; 'I' for Inactive)
REMARK    1  A    between atoms: C_1  and  C_2
REMARK    2  A    between atoms: C_2  and  C_3
REMARK    3  A    between atoms: C_3  and  C_4
REMARK    4  A    between atoms: C_10  and  C_11
REMARK    5  A    between atoms: C_11  and  C_13
REMARK    6  A    between atoms: C_13  and  C_14
REMARK    7  A    between atoms: C_13  and  C_15
REMARK    8  A    between atoms: C_15  and  C_16
REMARK    9  A    between atoms: C_15  and  O_17
REMARK   10  A    between atoms: C_18  and  O_19
REMARK   11  A    between atoms: C_24  and  C_25
REMARK   12  A    between atoms: C_24  and  C_26
REMARK                            x       y       z     vdW  Elec       q    Type
REMARK                         _______ _______ _______ _____ _____    ______ ____
ROOT
ATOM      1  C   UNL     1       1.920  -5.047  -0.892  0.00  0.00    +0.000 A 
ATOM      2  C   UNL     1       0.739  -5.335  -0.285  0.00  0.00    +0.000 A 
ATOM      3  C   UNL     1       0.387  -4.082   0.478  0.00  0.00    +0.000 A 
ATOM      4  O   UNL     1       0.203  -4.074   1.675  0.00  0.00    +0.000 OA
ATOM      5  O   UNL     1       0.358  -2.943  -0.330  0.00  0.00    +0.000 OA
ATOM      6  C   UNL     1       0.575  -3.206  -1.709  0.00  0.00    +0.000 A 
ATOM      7  C   UNL     1      -0.452  -2.908  -2.625  0.00  0.00    +0.000 A 
ATOM      8  C   UNL     1      -0.224  -3.378  -3.933  0.00  0.00    +0.000 A 
ATOM      9  C   UNL     1       1.014  -3.977  -4.313  0.00  0.00    +0.000 A 
ATOM     10  C   UNL     1       1.967  -4.337  -3.348  0.00  0.00    +0.000 A 
ATOM     11  C   UNL     1       1.669  -4.070  -2.012  0.00  0.00    +0.000 A 
ATOM     12  O   UNL     1       3.093  -5.053  -3.660  0.00  0.00    +0.000 OA
ATOM     13  C   UNL     1       3.525  -5.080  -5.045  0.00  0.00    +0.000 C 
ATOM     14  C   UNL     1       4.576  -3.984  -5.273  0.00  0.00    +0.000 C 
ATOM     15  C   UNL     1       4.187  -6.450  -5.264  0.00  0.00    +0.000 C 
ATOM     16  C   UNL     1       2.409  -4.916  -6.042  0.00  0.00    +0.000 C 
ATOM     17  C   UNL     1       1.225  -4.405  -5.701  0.00  0.00    +0.000 C 
ENDROOT
BRANCH   7  18
ATOM     18  C   UNL     1      -1.811  -2.615  -2.018  0.00  0.00    +0.000 C 
ATOM     19  O   UNL     1      -2.092  -3.276  -1.008  0.00  0.00    +0.000 OA
BRANCH  18  20
ATOM     20  C   UNL     1      -2.876  -1.608  -2.497  0.00  0.00    +0.000 C 
ATOM     21  C   UNL     1      -2.878  -0.357  -1.621  0.00  0.00    +0.000 C 
BRANCH  20  22
ATOM     22  C   UNL     1      -2.977  -1.394  -4.002  0.00  0.00    +0.000 C 
ATOM     23  C   UNL     1      -3.924  -0.316  -4.510  0.00  0.00    +0.000 C 
BRANCH  22  24
ATOM     24  O   UNL     1      -3.467  -2.647  -4.526  0.00  0.00    +0.000 OA
ATOM     25  H   UNL     1      -4.349  -2.826  -4.166  0.00  0.00    +0.000 HD
ENDBRANCH  22  24
ENDBRANCH  20  22
ENDBRANCH  18  20
ENDBRANCH   7  18
BRANCH   8  26
ATOM     26  O   UNL     1      -1.177  -3.442  -4.905  0.00  0.00    +0.000 OA
ATOM     27  H   UNL     1      -2.027  -3.077  -4.753  0.00  0.00    +0.000 HD
ENDBRANCH   8  26
BRANCH   1  28
ATOM     28  C   UNL     1       3.164  -5.075  -0.041  0.00  0.00    +0.000 C 
BRANCH  28  30
ATOM     29  C   UNL     1       4.938  -6.361  -1.351  0.00  0.00    +0.000 C 
ATOM     30  C   UNL     1       3.980  -6.368  -0.176  0.00  0.00    +0.000 C 
ENDBRANCH  28  30
ENDBRANCH   1  28
TORSDOF 7
