REMARK  Name = 
REMARK  9 active torsions:
REMARK  status: ('A' for Active; 'I' for Inactive)
REMARK    1  A    between atoms: C_1  and  C_2
REMARK    2  A    between atoms: C_2  and  C_3
REMARK    3  A    between atoms: C_3  and  C_4
REMARK    4  A    between atoms: C_4  and  C_5
REMARK    5  A    between atoms: C_11  and  O_12
REMARK    6  A    between atoms: N_14  and  C_15
REMARK    7  A    between atoms: C_15  and  C_16
REMARK    8  A    between atoms: C_19  and  C_20
REMARK    9  A    between atoms: C_25  and  C_26
REMARK                            x       y       z     vdW  Elec       q    Type
REMARK                         _______ _______ _______ _____ _____    ______ ____
ROOT
ATOM      1  C   UNL     1      -1.378  -3.511   2.606  0.00  0.00    +0.000 C 
ENDROOT
BRANCH   1  10
ATOM      2  C   UNL     1      -1.017  -1.016   2.961  0.00  0.00    +0.000 A 
ATOM      3  N   UNL     1      -1.739   0.088   2.957  0.00  0.00    +0.000 NA
ATOM      4  C   UNL     1      -2.985  -0.270   2.515  0.00  0.00    +0.000 A 
ATOM      5  C   UNL     1      -4.119   0.517   2.314  0.00  0.00    +0.000 A 
ATOM      6  N   UNL     1      -5.233  -0.062   1.813  0.00  0.00    +0.000 NA
ATOM      7  N   UNL     1      -5.251  -1.400   1.487  0.00  0.00    +0.000 NA
ATOM      8  C   UNL     1      -4.173  -2.181   1.686  0.00  0.00    +0.000 A 
ATOM      9  C   UNL     1      -3.031  -1.629   2.226  0.00  0.00    +0.000 A 
ATOM     10  N   UNL     1      -1.792  -2.110   2.606  0.00  0.00    +0.000 N 
BRANCH   8  11
ATOM     11  O   UNL     1      -4.300  -3.480   1.287  0.00  0.00    +0.000 OA
ATOM     12  H   UNL     1      -5.110  -3.783   0.928  0.00  0.00    +0.000 HD
ENDBRANCH   8  11
BRANCH   2  13
ATOM     13  C   UNL     1       0.433  -1.049   3.325  0.00  0.00    +0.000 C 
BRANCH  13  14
ATOM     14  C   UNL     1       1.370  -0.916   2.118  0.00  0.00    +0.000 C 
BRANCH  14  16
ATOM     15  C   UNL     1       2.244   0.513   0.232  0.00  0.00    +0.000 C 
ATOM     16  C   UNL     1       1.233   0.411   1.366  0.00  0.00    +0.000 C 
ENDBRANCH  14  16
ENDBRANCH  13  14
ENDBRANCH   2  13
ENDBRANCH   1  10
BRANCH   1  17
ATOM     17  C   UNL     1      -1.725  -4.209   3.903  0.00  0.00    +0.000 A 
ATOM     18  C   UNL     1      -2.996  -4.748   4.106  0.00  0.00    +0.000 A 
ATOM     19  C   UNL     1      -3.372  -5.254   5.356  0.00  0.00    +0.000 A 
ATOM     20  C   UNL     1      -2.487  -5.284   6.451  0.00  0.00    +0.000 A 
ATOM     21  C   UNL     1      -1.173  -4.872   6.188  0.00  0.00    +0.000 A 
ATOM     22  C   UNL     1      -0.806  -4.311   4.953  0.00  0.00    +0.000 A 
BRANCH  20  23
ATOM     23  C   UNL     1      -2.970  -5.698   7.802  0.00  0.00    +0.000 A 
ATOM     24  C   UNL     1      -3.958  -6.712   7.885  0.00  0.00    +0.000 A 
ATOM     25  C   UNL     1      -4.560  -7.084   9.092  0.00  0.00    +0.000 A 
ATOM     26  C   UNL     1      -4.163  -6.490  10.277  0.00  0.00    +0.000 A 
ATOM     27  C   UNL     1      -3.162  -5.522  10.251  0.00  0.00    +0.000 A 
ATOM     28  C   UNL     1      -2.570  -5.117   9.034  0.00  0.00    +0.000 A 
BRANCH  28  29
ATOM     29  C   UNL     1      -1.600  -3.997   9.145  0.00  0.00    +0.000 C 
ATOM     30  O   UNL     1      -1.478  -3.032   8.415  0.00  0.00    +0.000 OA
ATOM     31  O   UNL     1      -0.793  -4.150  10.215  0.00  0.00    +0.000 OA
ENDBRANCH  28  29
ENDBRANCH  20  23
ENDBRANCH   1  17
TORSDOF 8
