REMARK  Name = 
REMARK  6 active torsions:
REMARK  status: ('A' for Active; 'I' for Inactive)
REMARK    1  A    between atoms: C_1  and  N_2
REMARK    2  A    between atoms: N_2  and  C_3
REMARK    3  A    between atoms: N_2  and  C_4
REMARK    4  A    between atoms: C_9  and  S_10
REMARK    5  A    between atoms: S_10  and  N_13
REMARK    6  A    between atoms: C_20  and  O_21
REMARK                            x       y       z     vdW  Elec       q    Type
REMARK                         _______ _______ _______ _____ _____    ______ ____
ROOT
ATOM      1  S   UNL     1       0.280  -7.384  -1.782  0.00  0.00    +0.000 S 
ATOM      2  O   UNL     1       1.710  -7.193  -1.628  0.00  0.00    +0.000 OA
ATOM      3  O   UNL     1      -0.352  -8.513  -1.123  0.00  0.00    +0.000 OA
ENDROOT
BRANCH   1   9
ATOM      4  C   UNL     1       0.282  -2.258  -0.514  0.00  0.00    +0.000 A 
ATOM      5  C   UNL     1       1.434  -2.120  -1.311  0.00  0.00    +0.000 A 
ATOM      6  C   UNL     1       1.843  -3.116  -2.188  0.00  0.00    +0.000 A 
ATOM      7  C   UNL     1       1.171  -4.329  -2.221  0.00  0.00    +0.000 A 
ATOM      8  C   UNL     1       0.071  -4.591  -1.382  0.00  0.00    +0.000 A 
ATOM      9  C   UNL     1      -0.566  -5.866  -1.314  0.00  0.00    +0.000 A 
ATOM     10  C   UNL     1      -1.772  -6.025  -0.621  0.00  0.00    +0.000 A 
ATOM     11  C   UNL     1      -2.343  -4.940   0.029  0.00  0.00    +0.000 A 
ATOM     12  C   UNL     1      -1.674  -3.714   0.056  0.00  0.00    +0.000 A 
ATOM     13  C   UNL     1      -0.437  -3.505  -0.593  0.00  0.00    +0.000 A 
BRANCH   4  15
ATOM     14  C   UNL     1       0.300   0.165  -0.075  0.00  0.00    +0.000 C 
ATOM     15  N   UNL     1      -0.149  -1.179   0.310  0.00  0.00    +0.000 N 
ATOM     16  C   UNL     1      -0.069  -1.430   1.757  0.00  0.00    +0.000 C 
ENDBRANCH   4  15
ENDBRANCH   1   9
BRANCH   1  17
ATOM     17  N   UNL     1       0.022  -7.608  -3.422  0.00  0.00    +0.000 N 
ATOM     18  C   UNL     1      -1.274  -8.046  -3.784  0.00  0.00    +0.000 A 
ATOM     19  N   UNL     1      -2.067  -7.052  -4.221  0.00  0.00    +0.000 NA
ATOM     20  C   UNL     1      -3.295  -7.449  -4.645  0.00  0.00    +0.000 A 
ATOM     21  C   UNL     1      -3.716  -8.773  -4.608  0.00  0.00    +0.000 A 
ATOM     22 BR   UNL     1      -5.443  -9.215  -5.247  0.00  0.00    +0.000 Br
ATOM     23  N   UNL     1      -2.927  -9.770  -4.147  0.00  0.00    +0.000 NA
ATOM     24  C   UNL     1      -1.706  -9.381  -3.725  0.00  0.00    +0.000 A 
ATOM     25  H   UNL     1       0.726  -7.445  -4.091  0.00  0.00    +0.000 HD
BRANCH  24  26
ATOM     26  O   UNL     1      -0.905 -10.382  -3.248  0.00  0.00    +0.000 OA
ATOM     27  H   UNL     1      -1.222 -11.263  -3.221  0.00  0.00    +0.000 HD
ENDBRANCH  24  26
ENDBRANCH   1  17
TORSDOF 4
