REMARK  Name = 
REMARK  6 active torsions:
REMARK  status: ('A' for Active; 'I' for Inactive)
REMARK    1  A    between atoms: C_3  and  C_4
REMARK    2  A    between atoms: C_13  and  P_14
REMARK    3  A    between atoms: P_14  and  O_16
REMARK    4  A    between atoms: P_14  and  O_23
REMARK    5  A    between atoms: O_16  and  C_17
REMARK    6  A    between atoms: O_23  and  C_24
REMARK                            x       y       z     vdW  Elec       q    Type
REMARK                         _______ _______ _______ _____ _____    ______ ____
ROOT
ATOM      1 CL   UNL     1      -0.218  -0.675  -0.551  0.00  0.00    +0.000 Cl
ATOM      2  H   UNL     1       1.010  -0.675  -0.551  0.00  0.00    +0.000 HD
ENDROOT
TORSDOF 0
REMARK  Name = 
REMARK  6 active torsions:
REMARK  status: ('A' for Active; 'I' for Inactive)
REMARK    1  A    between atoms: C_3  and  C_4
REMARK    2  A    between atoms: C_13  and  P_14
REMARK    3  A    between atoms: P_14  and  O_16
REMARK    4  A    between atoms: P_14  and  O_23
REMARK    5  A    between atoms: O_16  and  C_17
REMARK    6  A    between atoms: O_23  and  C_24
REMARK                            x       y       z     vdW  Elec       q    Type
REMARK                         _______ _______ _______ _____ _____    ______ ____
ROOT
ATOM      1  P   UNL     1       5.366   3.743   1.957  0.00  0.00    +0.000 P 
ATOM      2  O   UNL     1       5.967   5.153   1.711  0.00  0.00    +0.000 OA
ENDROOT
BRANCH   1   9
ATOM      3  O   UNL     1       4.823  -0.307   0.037  0.00  0.00    +0.000 OA
ATOM      4  C   UNL     1       4.496   0.843   0.315  0.00  0.00    +0.000 C 
ATOM      5  N   UNL     1       5.397   1.863  -0.035  0.00  0.00    +0.000 N 
ATOM      6  C   UNL     1       6.592   1.483  -0.747  0.00  0.00    +0.000 C 
ATOM      7  C   UNL     1       7.600   2.547  -0.420  0.00  0.00    +0.000 C 
ATOM      8  C   UNL     1       6.727   3.772  -0.528  0.00  0.00    +0.000 C 
ATOM      9  C   UNL     1       5.404   3.346   0.171  0.00  0.00    +0.000 C 
BRANCH   4  10
ATOM     10  C   UNL     1       3.081   0.932   0.920  0.00  0.00    +0.000 C 
ATOM     11  C   UNL     1       2.610  -0.385   1.579  0.00  0.00    +0.000 C 
ATOM     12  C   UNL     1       3.282  -0.280   2.927  0.00  0.00    +0.000 C 
ATOM     13  C   UNL     1       2.986   1.155   3.272  0.00  0.00    +0.000 C 
ATOM     14  N   UNL     1       2.965   1.904   2.003  0.00  0.00    +0.000 N 
ATOM     15  H   UNL     1       3.747   2.557   1.970  0.00  0.00    +0.000 HD
ATOM     16  H   UNL     1       2.100   2.438   1.915  0.00  0.00    +0.000 HD
ENDBRANCH   4  10
ENDBRANCH   1   9
BRANCH   1  17
ATOM     17  O   UNL     1       3.741   4.330   1.510  0.00  0.00    +0.000 OA
BRANCH  17  18
ATOM     18  C   UNL     1       2.738   5.227   1.801  0.00  0.00    +0.000 A 
ATOM     19  C   UNL     1       2.882   6.343   2.641  0.00  0.00    +0.000 A 
ATOM     20  C   UNL     1       1.732   7.012   3.118  0.00  0.00    +0.000 A 
ATOM     21  C   UNL     1       0.446   6.564   2.777  0.00  0.00    +0.000 A 
ATOM     22  C   UNL     1       0.300   5.493   1.901  0.00  0.00    +0.000 A 
ATOM     23  C   UNL     1       1.433   4.846   1.398  0.00  0.00    +0.000 A 
ENDBRANCH  17  18
ENDBRANCH   1  17
BRANCH   1  24
ATOM     24  O   UNL     1       5.331   4.118   3.646  0.00  0.00    +0.000 OA
BRANCH  24  25
ATOM     25  C   UNL     1       4.361   4.096   4.646  0.00  0.00    +0.000 A 
ATOM     26  C   UNL     1       4.748   4.181   6.012  0.00  0.00    +0.000 A 
ATOM     27  C   UNL     1       3.784   4.280   7.045  0.00  0.00    +0.000 A 
ATOM     28  C   UNL     1       2.424   4.346   6.742  0.00  0.00    +0.000 A 
ATOM     29  C   UNL     1       2.021   4.202   5.432  0.00  0.00    +0.000 A 
ATOM     30  C   UNL     1       2.970   4.023   4.435  0.00  0.00    +0.000 A 
ENDBRANCH  24  25
ENDBRANCH   1  24
TORSDOF 6
