REMARK  Name = 
REMARK  17 active torsions:
REMARK  status: ('A' for Active; 'I' for Inactive)
REMARK    1  A    between atoms: C_1  and  O_2
REMARK    2  A    between atoms: O_2  and  C_3
REMARK    3  A    between atoms: C_3  and  C_5
REMARK    4  A    between atoms: C_5  and  C_6
REMARK    5  A    between atoms: C_6  and  C_7
REMARK    6  A    between atoms: C_8  and  C_9
REMARK    7  A    between atoms: C_9  and  C_10
REMARK    8  A    between atoms: C_10  and  C_11
REMARK    9  A    between atoms: C_15  and  O_16
REMARK   10  A    between atoms: C_17  and  C_18
REMARK   11  A    between atoms: C_19  and  C_20
REMARK   12  A    between atoms: C_20  and  C_21
REMARK   13  A    between atoms: C_21  and  C_22
REMARK   14  A    between atoms: C_21  and  O_23
REMARK   15  A    between atoms: C_21  and  C_24
REMARK   16  A    between atoms: C_24  and  C_25
REMARK   17  A    between atoms: C_25  and  C_26
REMARK                            x       y       z     vdW  Elec       q    Type
REMARK                         _______ _______ _______ _____ _____    ______ ____
ROOT
ATOM      1  C   UNL     1      -0.879   4.034  -6.370  0.00  0.00    +0.000 C 
ATOM      2  C   UNL     1      -1.499   2.680  -6.128  0.00  0.00    +0.000 C 
ATOM      3  O   UNL     1      -1.975   2.334  -5.053  0.00  0.00    +0.000 OA
ATOM      4  C   UNL     1      -1.465   1.793  -7.344  0.00  0.00    +0.000 C 
ATOM      5  C   UNL     1      -0.591   2.580  -8.321  0.00  0.00    +0.000 C 
ATOM      6  C   UNL     1       0.120   3.671  -7.492  0.00  0.00    +0.000 C 
ENDROOT
BRANCH   5   7
ATOM      7  O   UNL     1      -1.396   3.205  -9.320  0.00  0.00    +0.000 OA
ATOM      8  H   UNL     1      -2.035   3.799  -8.896  0.00  0.00    +0.000 HD
ENDBRANCH   5   7
BRANCH   6   9
ATOM      9  C   UNL     1       1.484   3.211  -7.003  0.00  0.00    +0.000 C 
ATOM     10  C   UNL     1       1.747   2.482  -5.906  0.00  0.00    +0.000 C 
BRANCH  10  11
ATOM     11  C   UNL     1       3.129   2.203  -5.374  0.00  0.00    +0.000 C 
BRANCH  11  12
ATOM     12  C   UNL     1       3.759   0.827  -5.720  0.00  0.00    +0.000 C 
ATOM     13  C   UNL     1       5.036   0.679  -4.874  0.00  0.00    +0.000 C 
BRANCH  12  14
ATOM     14  O   UNL     1       2.862  -0.220  -5.335  0.00  0.00    +0.000 OA
ATOM     15  H   UNL     1       2.664  -0.145  -4.388  0.00  0.00    +0.000 HD
ENDBRANCH  12  14
BRANCH  12  16
ATOM     16  C   UNL     1       4.063   0.689  -7.236  0.00  0.00    +0.000 C 
BRANCH  16  17
ATOM     17  C   UNL     1       4.646  -0.678  -7.621  0.00  0.00    +0.000 C 
BRANCH  17  18
ATOM     18  C   UNL     1       4.992  -0.808  -9.081  0.00  0.00    +0.000 C 
ATOM     19  C   UNL     1       3.976  -0.807 -10.196  0.00  0.00    +0.000 C 
ATOM     20  C   UNL     1       4.613  -2.096  -9.771  0.00  0.00    +0.000 C 
ENDBRANCH  17  18
ENDBRANCH  16  17
ENDBRANCH  12  16
ENDBRANCH  11  12
ENDBRANCH  10  11
ENDBRANCH   6   9
BRANCH   1  21
ATOM     21  C   UNL     1      -1.958   5.037  -6.809  0.00  0.00    +0.000 C 
BRANCH  21  22
ATOM     22  C   UNL     1      -2.995   5.308  -5.712  0.00  0.00    +0.000 C 
BRANCH  22  24
ATOM     23  C   UNL     1      -5.356   6.239  -5.813  0.00  0.00    +0.000 C 
ATOM     24  C   UNL     1      -4.064   6.255  -6.184  0.00  0.00    +0.000 C 
BRANCH  23  25
ATOM     25  C   UNL     1      -6.003   5.311  -4.822  0.00  0.00    +0.000 C 
BRANCH  25  26
ATOM     26  C   UNL     1      -5.468   5.484  -3.404  0.00  0.00    +0.000 C 
BRANCH  26  27
ATOM     27  C   UNL     1      -6.190   4.581  -2.429  0.00  0.00    +0.000 C 
ATOM     28  O   UNL     1      -7.344   4.201  -2.555  0.00  0.00    +0.000 OA
BRANCH  27  30
ATOM     29  C   UNL     1      -5.966   3.440  -0.401  0.00  0.00    +0.000 C 
ATOM     30  O   UNL     1      -5.375   4.299  -1.380  0.00  0.00    +0.000 OA
ENDBRANCH  27  30
ENDBRANCH  26  27
ENDBRANCH  25  26
ENDBRANCH  23  25
ENDBRANCH  22  24
ENDBRANCH  21  22
ENDBRANCH   1  21
TORSDOF 15
