REMARK  Name = 
REMARK  13 active torsions:
REMARK  status: ('A' for Active; 'I' for Inactive)
REMARK    1  A    between atoms: C_1  and  C_2
REMARK    2  A    between atoms: C_2  and  C_3
REMARK    3  A    between atoms: C_3  and  C_4
REMARK    4  A    between atoms: C_10  and  C_11
REMARK    5  A    between atoms: C_11  and  C_13
REMARK    6  A    between atoms: C_13  and  C_14
REMARK    7  A    between atoms: C_13  and  C_15
REMARK    8  A    between atoms: C_15  and  C_16
REMARK    9  A    between atoms: C_15  and  C_17
REMARK   10  A    between atoms: C_15  and  O_18
REMARK   11  A    between atoms: C_19  and  O_20
REMARK   12  A    between atoms: C_25  and  C_26
REMARK   13  A    between atoms: C_25  and  C_27
REMARK                            x       y       z     vdW  Elec       q    Type
REMARK                         _______ _______ _______ _____ _____    ______ ____
ROOT
ATOM      1  C   UNL     1       1.116   1.028  -2.425  0.00  0.00    +0.000 A 
ATOM      2  C   UNL     1       0.163   0.059  -2.380  0.00  0.00    +0.000 A 
ATOM      3  C   UNL     1       0.716  -1.199  -2.946  0.00  0.00    +0.000 A 
ATOM      4  O   UNL     1       0.136  -1.814  -3.837  0.00  0.00    +0.000 OA
ATOM      5  O   UNL     1       1.913  -1.568  -2.395  0.00  0.00    +0.000 OA
ATOM      6  C   UNL     1       2.452  -0.690  -1.425  0.00  0.00    +0.000 A 
ATOM      7  C   UNL     1       2.916  -1.255  -0.235  0.00  0.00    +0.000 A 
ATOM      8  C   UNL     1       3.653  -0.431   0.600  0.00  0.00    +0.000 A 
ATOM      9  C   UNL     1       3.930   0.900   0.195  0.00  0.00    +0.000 A 
ATOM     10  C   UNL     1       3.228   1.497  -0.886  0.00  0.00    +0.000 A 
ATOM     11  C   UNL     1       2.337   0.702  -1.620  0.00  0.00    +0.000 A 
ATOM     12  O   UNL     1       3.374   2.831  -1.185  0.00  0.00    +0.000 OA
ATOM     13  C   UNL     1       4.572   3.515  -0.714  0.00  0.00    +0.000 C 
ATOM     14  C   UNL     1       5.574   3.613  -1.874  0.00  0.00    +0.000 C 
ATOM     15  C   UNL     1       4.158   4.932  -0.293  0.00  0.00    +0.000 C 
ATOM     16  C   UNL     1       5.247   2.882   0.477  0.00  0.00    +0.000 C 
ATOM     17  C   UNL     1       4.920   1.677   0.935  0.00  0.00    +0.000 C 
ENDROOT
BRANCH   7  18
ATOM     18  C   UNL     1       2.168  -2.487   0.143  0.00  0.00    +0.000 C 
ATOM     19  O   UNL     1       0.959  -2.477  -0.148  0.00  0.00    +0.000 OA
BRANCH  18  20
ATOM     20  C   UNL     1       2.690  -3.709   0.876  0.00  0.00    +0.000 C 
ATOM     21  C   UNL     1       1.948  -3.739   2.227  0.00  0.00    +0.000 C 
BRANCH  20  22
ATOM     22  C   UNL     1       4.197  -4.020   0.973  0.00  0.00    +0.000 C 
ATOM     23  C   UNL     1       4.390  -5.501   1.353  0.00  0.00    +0.000 C 
ATOM     24  C   UNL     1       4.978  -3.749  -0.315  0.00  0.00    +0.000 C 
BRANCH  22  25
ATOM     25  O   UNL     1       4.771  -3.221   2.012  0.00  0.00    +0.000 OA
ATOM     26  H   UNL     1       4.292  -3.376   2.841  0.00  0.00    +0.000 HD
ENDBRANCH  22  25
ENDBRANCH  20  22
ENDBRANCH  18  20
ENDBRANCH   7  18
BRANCH   8  27
ATOM     27  O   UNL     1       4.080  -0.796   1.847  0.00  0.00    +0.000 OA
ATOM     28  H   UNL     1       3.921  -1.665   2.161  0.00  0.00    +0.000 HD
ENDBRANCH   8  27
BRANCH   1  29
ATOM     29  C   UNL     1       0.562   2.355  -2.854  0.00  0.00    +0.000 C 
BRANCH  29  31
ATOM     30  C   UNL     1       1.737   2.338  -5.152  0.00  0.00    +0.000 C 
ATOM     31  C   UNL     1       1.282   3.146  -3.944  0.00  0.00    +0.000 C 
ENDBRANCH  29  31
ENDBRANCH   1  29
TORSDOF 7
