REMARK  Name = 
REMARK  13 active torsions:
REMARK  status: ('A' for Active; 'I' for Inactive)
REMARK    1  A    between atoms: C_1  and  C_2
REMARK    2  A    between atoms: C_2  and  C_3
REMARK    3  A    between atoms: C_4  and  C_5
REMARK    4  A    between atoms: C_5  and  C_6
REMARK    5  A    between atoms: C_6  and  O_8
REMARK    6  A    between atoms: O_8  and  C_9
REMARK    7  A    between atoms: C_9  and  C_10
REMARK    8  A    between atoms: C_9  and  C_15
REMARK    9  A    between atoms: C_10  and  C_11
REMARK   10  A    between atoms: C_12  and  C_13
REMARK   11  A    between atoms: C_12  and  C_14
REMARK   12  A    between atoms: C_20  and  O_21
REMARK   13  A    between atoms: C_24  and  O_25
REMARK                            x       y       z     vdW  Elec       q    Type
REMARK                         _______ _______ _______ _____ _____    ______ ____
ROOT
ATOM      1  C   UNL     1       0.264  -5.894   4.629  0.00  0.00    +0.000 C 
ATOM      2  C   UNL     1      -0.443  -7.025   4.751  0.00  0.00    +0.000 C 
ATOM      3  C   UNL     1       0.146  -8.315   5.129  0.00  0.00    +0.000 C 
ATOM      4  O   UNL     1      -0.532  -9.336   5.190  0.00  0.00    +0.000 OA
ATOM      5  C   UNL     1       1.571  -8.371   5.476  0.00  0.00    +0.000 A 
ATOM      6  C   UNL     1       2.134  -9.566   5.937  0.00  0.00    +0.000 A 
ATOM      7  C   UNL     1       3.480  -9.643   6.281  0.00  0.00    +0.000 A 
ATOM      8  C   UNL     1       4.279  -8.504   6.162  0.00  0.00    +0.000 A 
ATOM      9  C   UNL     1       3.723  -7.312   5.703  0.00  0.00    +0.000 A 
ATOM     10  C   UNL     1       2.362  -7.219   5.361  0.00  0.00    +0.000 A 
ATOM     11  C   UNL     1       1.739  -5.947   4.889  0.00  0.00    +0.000 C 
ATOM     12  O   UNL     1       2.427  -4.945   4.726  0.00  0.00    +0.000 OA
ENDROOT
BRANCH   6  13
ATOM     13  O   UNL     1       1.423 -10.730   6.082  0.00  0.00    +0.000 OA
ATOM     14  H   UNL     1       0.511 -10.752   5.869  0.00  0.00    +0.000 HD
ENDBRANCH   6  13
BRANCH   9  15
ATOM     15  O   UNL     1       4.548  -6.223   5.608  0.00  0.00    +0.000 OA
ATOM     16  H   UNL     1       5.453  -6.299   5.840  0.00  0.00    +0.000 HD
ENDBRANCH   9  15
BRANCH   1  17
ATOM     17  C   UNL     1      -0.405  -4.556   4.305  0.00  0.00    +0.000 C 
BRANCH  17  18
ATOM     18  O   UNL     1      -1.686  -4.802   3.635  0.00  0.00    +0.000 OA
BRANCH  18  19
ATOM     19  C   UNL     1      -2.844  -4.370   4.240  0.00  0.00    +0.000 C 
ATOM     20  O   UNL     1      -2.892  -3.766   5.300  0.00  0.00    +0.000 OA
BRANCH  19  21
ATOM     21  C   UNL     1      -4.057  -4.790   3.402  0.00  0.00    +0.000 C 
BRANCH  21  23
ATOM     22  C   UNL     1      -5.055  -6.234   5.272  0.00  0.00    +0.000 C 
ATOM     23  C   UNL     1      -5.068  -5.733   4.026  0.00  0.00    +0.000 C 
BRANCH  22  25
ATOM     24  C   UNL     1      -5.187  -8.495   6.275  0.00  0.00    +0.000 C 
ATOM     25  C   UNL     1      -5.991  -7.303   5.769  0.00  0.00    +0.000 C 
ENDBRANCH  22  25
ENDBRANCH  21  23
ENDBRANCH  19  21
ENDBRANCH  18  19
ENDBRANCH  17  18
BRANCH  17  26
ATOM     26  C   UNL     1       0.366  -3.510   3.458  0.00  0.00    +0.000 C 
BRANCH  26  27
ATOM     27  C   UNL     1       0.935  -3.967   2.134  0.00  0.00    +0.000 C 
ATOM     28  C   UNL     1       0.685  -3.480   0.903  0.00  0.00    +0.000 C 
ATOM     29  C   UNL     1       1.558  -3.883  -0.257  0.00  0.00    +0.000 C 
ATOM     30  C   UNL     1      -0.383  -2.480   0.560  0.00  0.00    +0.000 C 
ENDBRANCH  26  27
ENDBRANCH  17  26
ENDBRANCH   1  17
TORSDOF 10
