REMARK  Name = 
REMARK  6 active torsions:
REMARK  status: ('A' for Active; 'I' for Inactive)
REMARK    1  A    between atoms: C_3  and  C_4
REMARK    2  A    between atoms: C_13  and  P_14
REMARK    3  A    between atoms: P_14  and  O_16
REMARK    4  A    between atoms: P_14  and  O_23
REMARK    5  A    between atoms: O_16  and  C_17
REMARK    6  A    between atoms: O_23  and  C_24
REMARK                            x       y       z     vdW  Elec       q    Type
REMARK                         _______ _______ _______ _____ _____    ______ ____
ROOT
ATOM      1 CL   UNL     1      -0.387   2.239  -1.725  0.00  0.00    +0.000 Cl
ATOM      2  H   UNL     1       0.841   2.239  -1.725  0.00  0.00    +0.000 HD
ENDROOT
TORSDOF 0
REMARK  Name = 
REMARK  6 active torsions:
REMARK  status: ('A' for Active; 'I' for Inactive)
REMARK    1  A    between atoms: C_3  and  C_4
REMARK    2  A    between atoms: C_13  and  P_14
REMARK    3  A    between atoms: P_14  and  O_16
REMARK    4  A    between atoms: P_14  and  O_23
REMARK    5  A    between atoms: O_16  and  C_17
REMARK    6  A    between atoms: O_23  and  C_24
REMARK                            x       y       z     vdW  Elec       q    Type
REMARK                         _______ _______ _______ _____ _____    ______ ____
ROOT
ATOM      1  P   UNL     1       5.694  -0.093  -0.866  0.00  0.00    +0.000 P 
ATOM      2  O   UNL     1       5.646   0.872  -2.085  0.00  0.00    +0.000 OA
ENDROOT
BRANCH   1   9
ATOM      3  O   UNL     1       1.118   0.331   0.096  0.00  0.00    +0.000 OA
ATOM      4  C   UNL     1       2.272  -0.062   0.176  0.00  0.00    +0.000 C 
ATOM      5  N   UNL     1       2.913  -0.513  -0.954  0.00  0.00    +0.000 N 
ATOM      6  C   UNL     1       2.277  -0.549  -2.252  0.00  0.00    +0.000 C 
ATOM      7  C   UNL     1       2.750  -1.864  -2.836  0.00  0.00    +0.000 C 
ATOM      8  C   UNL     1       4.199  -1.905  -2.375  0.00  0.00    +0.000 C 
ATOM      9  C   UNL     1       4.184  -1.222  -0.983  0.00  0.00    +0.000 C 
BRANCH   4  10
ATOM     10  C   UNL     1       2.930   0.010   1.544  0.00  0.00    +0.000 C 
ATOM     11  C   UNL     1       2.220  -0.769   2.651  0.00  0.00    +0.000 C 
ATOM     12  C   UNL     1       2.900  -0.153   3.854  0.00  0.00    +0.000 C 
ATOM     13  C   UNL     1       2.845   1.322   3.490  0.00  0.00    +0.000 C 
ATOM     14  N   UNL     1       2.994   1.403   2.028  0.00  0.00    +0.000 N 
ATOM     15  H   UNL     1       3.891   1.824   1.784  0.00  0.00    +0.000 HD
ATOM     16  H   UNL     1       2.268   1.982   1.606  0.00  0.00    +0.000 HD
ENDBRANCH   4  10
ENDBRANCH   1   9
BRANCH   1  17
ATOM     17  O   UNL     1       5.922   0.986   0.457  0.00  0.00    +0.000 OA
BRANCH  17  18
ATOM     18  C   UNL     1       6.783   0.773   1.479  0.00  0.00    +0.000 A 
ATOM     19  C   UNL     1       7.501   1.860   1.994  0.00  0.00    +0.000 A 
ATOM     20  C   UNL     1       8.402   1.677   3.047  0.00  0.00    +0.000 A 
ATOM     21  C   UNL     1       8.580   0.407   3.601  0.00  0.00    +0.000 A 
ATOM     22  C   UNL     1       7.861  -0.683   3.098  0.00  0.00    +0.000 A 
ATOM     23  C   UNL     1       6.970  -0.504   2.034  0.00  0.00    +0.000 A 
ENDBRANCH  17  18
ENDBRANCH   1  17
BRANCH   1  24
ATOM     24  O   UNL     1       7.162  -0.947  -1.142  0.00  0.00    +0.000 OA
BRANCH  24  25
ATOM     25  C   UNL     1       8.409  -0.429  -1.342  0.00  0.00    +0.000 A 
ATOM     26  C   UNL     1       8.687   0.953  -1.314  0.00  0.00    +0.000 A 
ATOM     27  C   UNL     1       9.985   1.421  -1.535  0.00  0.00    +0.000 A 
ATOM     28  C   UNL     1      11.019   0.518  -1.789  0.00  0.00    +0.000 A 
ATOM     29  C   UNL     1      10.758  -0.854  -1.822  0.00  0.00    +0.000 A 
ATOM     30  C   UNL     1       9.455  -1.324  -1.599  0.00  0.00    +0.000 A 
ENDBRANCH  24  25
ENDBRANCH   1  24
TORSDOF 6
