REMARK  Name = 
REMARK  10 active torsions:
REMARK  status: ('A' for Active; 'I' for Inactive)
REMARK    1  A    between atoms: C_1  and  O_2
REMARK    2  A    between atoms: O_2  and  C_3
REMARK    3  A    between atoms: C_3  and  C_5
REMARK    4  A    between atoms: C_10  and  O_11
REMARK    5  A    between atoms: O_11  and  C_12
REMARK    6  A    between atoms: C_12  and  C_13
REMARK    7  A    between atoms: C_13  and  C_14
REMARK    8  A    between atoms: C_14  and  O_15
REMARK    9  A    between atoms: O_15  and  C_16
REMARK   10  A    between atoms: C_21  and  O_22
REMARK                            x       y       z     vdW  Elec       q    Type
REMARK                         _______ _______ _______ _____ _____    ______ ____
ROOT
ATOM      1  C   UNL     1       3.208   2.557   2.215  0.00  0.00    +0.000 C 
ENDROOT
BRANCH   1   2
ATOM      2  C   UNL     1       3.080   3.995   1.660  0.00  0.00    +0.000 C 
BRANCH   2   3
ATOM      3  O   UNL     1       4.093   4.821   2.289  0.00  0.00    +0.000 OA
BRANCH   3   9
ATOM      4  C   UNL     1       3.215   7.108   1.828  0.00  0.00    +0.000 A 
ATOM      5  C   UNL     1       2.910   8.383   2.365  0.00  0.00    +0.000 A 
ATOM      6  C   UNL     1       3.318   8.730   3.647  0.00  0.00    +0.000 A 
ATOM      7  C   UNL     1       4.006   7.796   4.405  0.00  0.00    +0.000 A 
ATOM      8  C   UNL     1       4.193   6.493   3.918  0.00  0.00    +0.000 A 
ATOM      9  C   UNL     1       3.758   6.106   2.636  0.00  0.00    +0.000 A 
BRANCH   4  10
ATOM     10  C   UNL     1       3.234   7.045   0.345  0.00  0.00    +0.000 C 
ATOM     11  O   UNL     1       2.725   6.217  -0.365  0.00  0.00    +0.000 OA
BRANCH  10  13
ATOM     12  C   UNL     1       4.139   8.429  -1.410  0.00  0.00    +0.000 C 
ATOM     13  O   UNL     1       3.956   8.143  -0.027  0.00  0.00    +0.000 OA
ENDBRANCH  10  13
ENDBRANCH   4  10
ENDBRANCH   3   9
ENDBRANCH   2   3
ENDBRANCH   1   2
BRANCH   1  14
ATOM     14  C   UNL     1       2.237   1.512   1.630  0.00  0.00    +0.000 C 
BRANCH  14  15
ATOM     15  O   UNL     1       2.516   1.238   0.252  0.00  0.00    +0.000 OA
BRANCH  15  16
ATOM     16  C   UNL     1       1.597   0.512  -0.477  0.00  0.00    +0.000 A 
ATOM     17  C   UNL     1       1.896   0.453  -1.850  0.00  0.00    +0.000 A 
ATOM     18  C   UNL     1       1.001  -0.168  -2.703  0.00  0.00    +0.000 A 
ATOM     19  C   UNL     1      -0.213  -0.669  -2.259  0.00  0.00    +0.000 A 
ATOM     20  C   UNL     1      -0.503  -0.702  -0.909  0.00  0.00    +0.000 A 
ATOM     21  C   UNL     1       0.428  -0.138  -0.015  0.00  0.00    +0.000 A 
ATOM     22  C   UNL     1      -1.013  -1.064  -3.445  0.00  0.00    +0.000 C 
ATOM     23  C   UNL     1       0.167  -1.345  -4.369  0.00  0.00    +0.000 C 
ATOM     24  O   UNL     1       1.194  -0.365  -4.051  0.00  0.00    +0.000 OA
BRANCH  21  25
ATOM     25  O   UNL     1       0.170  -0.251   1.324  0.00  0.00    +0.000 OA
ATOM     26  H   UNL     1      -0.609  -0.683   1.616  0.00  0.00    +0.000 HD
ENDBRANCH  21  25
ENDBRANCH  15  16
ENDBRANCH  14  15
ENDBRANCH   1  14
TORSDOF 9
