REMARK  Name = 
REMARK  7 active torsions:
REMARK  status: ('A' for Active; 'I' for Inactive)
REMARK    1  A    between atoms: C_1  and  O_2
REMARK    2  A    between atoms: O_2  and  C_3
REMARK    3  A    between atoms: N_10  and  S_11
REMARK    4  A    between atoms: S_11  and  C_14
REMARK    5  A    between atoms: C_19  and  N_20
REMARK    6  A    between atoms: N_20  and  C_21
REMARK    7  A    between atoms: N_20  and  C_22
REMARK                            x       y       z     vdW  Elec       q    Type
REMARK                         _______ _______ _______ _____ _____    ______ ____
ROOT
ATOM      1  S   UNL     1       2.384   1.153   0.866  0.00  0.00    +0.000 S 
ATOM      2  O   UNL     1       2.886   1.808  -0.326  0.00  0.00    +0.000 OA
ATOM      3  O   UNL     1       2.753  -0.215   1.161  0.00  0.00    +0.000 OA
ENDROOT
BRANCH   1   4
ATOM      4  C   UNL     1       0.603   1.348   0.832  0.00  0.00    +0.000 A 
ATOM      5  C   UNL     1       0.190   2.685   0.848  0.00  0.00    +0.000 A 
ATOM      6  C   UNL     1      -1.153   2.984   0.894  0.00  0.00    +0.000 A 
ATOM      7  C   UNL     1      -2.085   1.951   0.968  0.00  0.00    +0.000 A 
ATOM      8  C   UNL     1      -1.754   0.576   0.884  0.00  0.00    +0.000 A 
ATOM      9  C   UNL     1      -2.750  -0.476   0.925  0.00  0.00    +0.000 A 
ATOM     10  C   UNL     1      -2.297  -1.798   0.749  0.00  0.00    +0.000 A 
ATOM     11  C   UNL     1      -0.958  -2.101   0.556  0.00  0.00    +0.000 A 
ATOM     12  C   UNL     1      -0.005  -1.087   0.582  0.00  0.00    +0.000 A 
ATOM     13  C   UNL     1      -0.350   0.272   0.770  0.00  0.00    +0.000 A 
BRANCH   9  14
ATOM     14  N   UNL     1      -4.118  -0.285   1.156  0.00  0.00    +0.000 N 
ATOM     15  C   UNL     1      -4.916   0.774   0.561  0.00  0.00    +0.000 C 
ATOM     16  C   UNL     1      -4.864  -1.267   1.945  0.00  0.00    +0.000 C 
ENDBRANCH   9  14
ENDBRANCH   1   4
BRANCH   1  24
ATOM     17  C   UNL     1       4.128   0.583   3.650  0.00  0.00    +0.000 A 
ATOM     18  N   UNL     1       4.160  -0.254   4.711  0.00  0.00    +0.000 NA
ATOM     19  C   UNL     1       3.077  -0.149   5.516  0.00  0.00    +0.000 A 
ATOM     20 CL   UNL     1       2.995  -1.308   6.785  0.00  0.00    +0.000 Cl
ATOM     21  C   UNL     1       2.063   0.773   5.325  0.00  0.00    +0.000 A 
ATOM     22  N   UNL     1       2.002   1.574   4.230  0.00  0.00    +0.000 NA
ATOM     23  C   UNL     1       3.046   1.443   3.388  0.00  0.00    +0.000 A 
ATOM     24  N   UNL     1       2.913   2.144   2.156  0.00  0.00    +0.000 N 
ATOM     25  H   UNL     1       3.106   3.104   2.056  0.00  0.00    +0.000 HD
BRANCH  17  27
ATOM     26  C   UNL     1       6.109  -0.384   2.795  0.00  0.00    +0.000 C 
ATOM     27  O   UNL     1       5.251   0.748   2.853  0.00  0.00    +0.000 OA
ENDBRANCH  17  27
ENDBRANCH   1  24
TORSDOF 4
