REMARK  Name = 
REMARK  15 active torsions:
REMARK  status: ('A' for Active; 'I' for Inactive)
REMARK    1  A    between atoms: C_1  and  C_2
REMARK    2  A    between atoms: C_2  and  C_3
REMARK    3  A    between atoms: C_3  and  C_4
REMARK    4  A    between atoms: C_4  and  C_5
REMARK    5  A    between atoms: C_5  and  C_6
REMARK    6  A    between atoms: C_6  and  C_7
REMARK    7  A    between atoms: C_7  and  O_9
REMARK    8  A    between atoms: O_9  and  C_10
REMARK    9  A    between atoms: C_10  and  C_11
REMARK   10  A    between atoms: C_10  and  C_16
REMARK   11  A    between atoms: C_11  and  C_12
REMARK   12  A    between atoms: C_13  and  C_14
REMARK   13  A    between atoms: C_13  and  C_15
REMARK   14  A    between atoms: C_21  and  O_22
REMARK   15  A    between atoms: C_25  and  O_26
REMARK                            x       y       z     vdW  Elec       q    Type
REMARK                         _______ _______ _______ _____ _____    ______ ____
ROOT
ATOM      1  C   UNL     1      -0.062   6.557  -3.998  0.00  0.00    +0.000 C 
ATOM      2  C   UNL     1      -0.800   7.425  -4.711  0.00  0.00    +0.000 C 
ATOM      3  C   UNL     1      -1.046   8.816  -4.276  0.00  0.00    +0.000 C 
ATOM      4  O   UNL     1      -1.774   9.554  -4.925  0.00  0.00    +0.000 OA
ATOM      5  C   UNL     1      -0.369   9.303  -3.062  0.00  0.00    +0.000 A 
ATOM      6  C   UNL     1      -0.547  10.632  -2.635  0.00  0.00    +0.000 A 
ATOM      7  C   UNL     1       0.131  11.119  -1.515  0.00  0.00    +0.000 A 
ATOM      8  C   UNL     1       1.024  10.291  -0.837  0.00  0.00    +0.000 A 
ATOM      9  C   UNL     1       1.206   8.971  -1.262  0.00  0.00    +0.000 A 
ATOM     10  C   UNL     1       0.482   8.456  -2.354  0.00  0.00    +0.000 A 
ATOM     11  C   UNL     1       0.595   7.024  -2.746  0.00  0.00    +0.000 C 
ATOM     12  O   UNL     1       1.208   6.220  -2.067  0.00  0.00    +0.000 OA
ENDROOT
BRANCH   6  13
ATOM     13  O   UNL     1      -1.370  11.525  -3.262  0.00  0.00    +0.000 OA
ATOM     14  H   UNL     1      -1.855  11.263  -4.020  0.00  0.00    +0.000 HD
ENDBRANCH   6  13
BRANCH   9  15
ATOM     15  O   UNL     1       2.130   8.208  -0.613  0.00  0.00    +0.000 OA
ATOM     16  H   UNL     1       2.605   8.563   0.112  0.00  0.00    +0.000 HD
ENDBRANCH   9  15
BRANCH   1  17
ATOM     17  C   UNL     1       0.305   5.138  -4.418  0.00  0.00    +0.000 C 
BRANCH  17  18
ATOM     18  O   UNL     1      -0.119   4.882  -5.788  0.00  0.00    +0.000 OA
BRANCH  18  19
ATOM     19  C   UNL     1       0.771   4.152  -6.525  0.00  0.00    +0.000 C 
ATOM     20  O   UNL     1       1.789   3.633  -6.086  0.00  0.00    +0.000 OA
BRANCH  19  21
ATOM     21  C   UNL     1       0.447   4.162  -7.995  0.00  0.00    +0.000 C 
BRANCH  21  22
ATOM     22  C   UNL     1      -0.897   3.582  -8.420  0.00  0.00    +0.000 C 
BRANCH  22  23
ATOM     23  C   UNL     1      -1.098   2.069  -8.257  0.00  0.00    +0.000 C 
BRANCH  23  24
ATOM     24  C   UNL     1      -1.363   1.533  -6.847  0.00  0.00    +0.000 C 
BRANCH  24  26
ATOM     25  C   UNL     1      -3.931   1.609  -6.842  0.00  0.00    +0.000 C 
ATOM     26  C   UNL     1      -2.637   2.024  -6.154  0.00  0.00    +0.000 C 
ENDBRANCH  24  26
ENDBRANCH  23  24
ENDBRANCH  22  23
ENDBRANCH  21  22
ENDBRANCH  19  21
ENDBRANCH  18  19
ENDBRANCH  17  18
BRANCH  17  27
ATOM     27  C   UNL     1       0.008   3.900  -3.508  0.00  0.00    +0.000 C 
BRANCH  27  28
ATOM     28  C   UNL     1      -1.308   3.433  -2.923  0.00  0.00    +0.000 C 
ATOM     29  C   UNL     1      -2.522   3.977  -2.727  0.00  0.00    +0.000 C 
ATOM     30  C   UNL     1      -3.681   3.121  -2.269  0.00  0.00    +0.000 C 
ATOM     31  C   UNL     1      -2.876   5.404  -2.974  0.00  0.00    +0.000 C 
ENDBRANCH  27  28
ENDBRANCH  17  27
ENDBRANCH   1  17
TORSDOF 12
