REMARK  Name = 
REMARK  4 active torsions:
REMARK  status: ('A' for Active; 'I' for Inactive)
REMARK    1  A    between atoms: C_1  and  C_2
REMARK    2  A    between atoms: C_10  and  C_11
REMARK    3  A    between atoms: C_14  and  N_15
REMARK    4  A    between atoms: C_20  and  C_22
REMARK                            x       y       z     vdW  Elec       q    Type
REMARK                         _______ _______ _______ _____ _____    ______ ____
ROOT
ATOM      1  C   UNL     1       1.710   1.630   1.469  0.00  0.00    +0.000 C 
ATOM      2  C   UNL     1       0.350   0.969   1.209  0.00  0.00    +0.000 C 
ATOM      3  C   UNL     1      -0.641   2.069   0.745  0.00  0.00    +0.000 C 
ATOM      4  C   UNL     1      -1.269   2.755   1.937  0.00  0.00    +0.000 A 
ATOM      5  C   UNL     1      -0.897   4.041   2.340  0.00  0.00    +0.000 A 
ATOM      6  C   UNL     1      -1.434   4.520   3.519  0.00  0.00    +0.000 A 
ATOM      7  C   UNL     1      -2.331   3.792   4.271  0.00  0.00    +0.000 A 
ATOM      8  C   UNL     1      -2.742   2.535   3.899  0.00  0.00    +0.000 A 
ATOM      9  C   UNL     1      -2.183   2.018   2.728  0.00  0.00    +0.000 A 
ATOM     10  C   UNL     1      -2.481   0.619   2.331  0.00  0.00    +0.000 C 
ATOM     11  N   UNL     1      -1.547  -0.274   2.138  0.00  0.00    +0.000 NA
ATOM     12  N   UNL     1      -0.226   0.134   2.313  0.00  0.00    +0.000 N 
ATOM     13  C   UNL     1       0.563  -0.507   3.298  0.00  0.00    +0.000 C 
ATOM     14  O   UNL     1       1.741  -0.232   3.525  0.00  0.00    +0.000 OA
ATOM     15  O   UNL     1      -2.708   4.440   5.405  0.00  0.00    +0.000 OA
ATOM     16  C   UNL     1      -1.844   5.593   5.350  0.00  0.00    +0.000 C 
ATOM     17  O   UNL     1      -1.133   5.714   4.100  0.00  0.00    +0.000 OA
ENDROOT
BRANCH  10  18
ATOM     18  C   UNL     1      -3.913   0.245   2.153  0.00  0.00    +0.000 A 
ATOM     19  C   UNL     1      -4.821   1.168   1.625  0.00  0.00    +0.000 A 
ATOM     20  C   UNL     1      -6.175   0.838   1.521  0.00  0.00    +0.000 A 
ATOM     21  C   UNL     1      -6.642  -0.397   1.974  0.00  0.00    +0.000 A 
ATOM     22  C   UNL     1      -5.710  -1.353   2.399  0.00  0.00    +0.000 A 
ATOM     23  C   UNL     1      -4.356  -1.026   2.503  0.00  0.00    +0.000 A 
BRANCH  21  24
ATOM     24  N   UNL     1      -7.985  -0.747   1.790  0.00  0.00    +0.000 N 
ATOM     25  H   UNL     1      -8.634  -0.069   1.491  0.00  0.00    +0.000 HD
ATOM     26  H   UNL     1      -8.281  -1.670   1.959  0.00  0.00    +0.000 HD
ENDBRANCH  21  24
ENDBRANCH  10  18
BRANCH  13  27
ATOM     27  C   UNL     1      -0.068  -1.530   4.196  0.00  0.00    +0.000 A 
ATOM     28  C   UNL     1      -0.984  -2.473   3.720  0.00  0.00    +0.000 A 
ATOM     29  C   UNL     1      -1.636  -3.344   4.594  0.00  0.00    +0.000 A 
ATOM     30  C   UNL     1      -1.314  -3.338   5.948  0.00  0.00    +0.000 A 
ATOM     31  C   UNL     1      -0.325  -2.476   6.422  0.00  0.00    +0.000 A 
ATOM     32  C   UNL     1       0.295  -1.572   5.552  0.00  0.00    +0.000 A 
ENDBRANCH  13  27
TORSDOF 3
