REMARK  Name = 
REMARK  4 active torsions:
REMARK  status: ('A' for Active; 'I' for Inactive)
REMARK    1  A    between atoms: O_1  and  C_2
REMARK    2  A    between atoms: C_10  and  N_11
REMARK    3  A    between atoms: N_19  and  C_20
REMARK    4  A    between atoms: C_20  and  C_21
REMARK                            x       y       z     vdW  Elec       q    Type
REMARK                         _______ _______ _______ _____ _____    ______ ____
ROOT
ATOM      1  C   UNL     1       2.741   7.263  -1.203  0.00  0.00    +0.000 A 
ATOM      2  C   UNL     1       3.852   6.423  -1.346  0.00  0.00    +0.000 A 
ATOM      3  C   UNL     1       3.798   5.065  -0.937  0.00  0.00    +0.000 A 
ATOM      4  C   UNL     1       2.617   4.530  -0.422  0.00  0.00    +0.000 A 
ATOM      5  C   UNL     1       1.524   5.349  -0.452  0.00  0.00    +0.000 A 
ATOM      6  C   UNL     1       1.564   6.701  -0.781  0.00  0.00    +0.000 A 
ATOM      7  O   UNL     1       0.345   7.315  -0.485  0.00  0.00    +0.000 OA
ATOM      8  C   UNL     1      -0.121   6.356   0.496  0.00  0.00    +0.000 C 
ATOM      9  C   UNL     1      -1.503   6.358   1.132  0.00  0.00    +0.000 C 
ATOM     10  C   UNL     1      -1.310   5.553   2.455  0.00  0.00    +0.000 C 
ATOM     11  C   UNL     1      -0.584   4.184   2.305  0.00  0.00    +0.000 C 
ATOM     12  C   UNL     1      -0.102   3.854   0.889  0.00  0.00    +0.000 C 
ATOM     13  C   UNL     1       0.958   2.774   0.581  0.00  0.00    +0.000 C 
ATOM     14  C   UNL     1       2.447   3.232   0.312  0.00  0.00    +0.000 C 
ATOM     15  N   UNL     1       0.464   2.058  -0.629  0.00  0.00    +0.000 N 
ATOM     16  C   UNL     1      -0.127   2.936  -1.684  0.00  0.00    +0.000 C 
ATOM     17  C   UNL     1      -0.489   4.455  -1.402  0.00  0.00    +0.000 C 
ATOM     18  C   UNL     1       0.143   4.972  -0.088  0.00  0.00    +0.000 C 
ATOM     19  H   UNL     1       1.254   1.678  -1.151  0.00  0.00    +0.000 HD
ENDROOT
BRANCH   9  20
ATOM     20  N   UNL     1      -1.943   7.725   1.461  0.00  0.00    +0.000 NA
ATOM     21  C   UNL     1      -2.619   8.215   0.630  0.00  0.00    +0.000 C 
ATOM     22  S   UNL     1      -3.547   8.834  -0.503  0.00  0.00    +0.000 S 
ENDBRANCH   9  20
BRANCH   1  23
ATOM     23  O   UNL     1       2.881   8.600  -1.398  0.00  0.00    +0.000 OA
ATOM     24  H   UNL     1       3.701   8.948  -1.687  0.00  0.00    +0.000 HD
ENDBRANCH   1  23
BRANCH  15  25
ATOM     25  C   UNL     1      -0.363   0.928  -0.176  0.00  0.00    +0.000 C 
BRANCH  25  26
ATOM     26  C   UNL     1      -0.815  -0.012  -1.241  0.00  0.00    +0.000 C 
ATOM     27  C   UNL     1       0.154  -0.854  -2.025  0.00  0.00    +0.000 C 
ATOM     28  C   UNL     1      -0.721  -1.499  -0.986  0.00  0.00    +0.000 C 
ENDBRANCH  25  26
ENDBRANCH  15  25
TORSDOF 4
