REMARK  Name = 
REMARK  6 active torsions:
REMARK  status: ('A' for Active; 'I' for Inactive)
REMARK    1  A    between atoms: C_1  and  N_2
REMARK    2  A    between atoms: N_2  and  C_3
REMARK    3  A    between atoms: N_2  and  C_4
REMARK    4  A    between atoms: C_9  and  S_10
REMARK    5  A    between atoms: S_10  and  N_13
REMARK    6  A    between atoms: N_13  and  C_14
REMARK                            x       y       z     vdW  Elec       q    Type
REMARK                         _______ _______ _______ _____ _____    ______ ____
ROOT
ATOM      1  C   UNL     1       0.382  -2.224  -0.566  0.00  0.00    +0.000 A 
ATOM      2  C   UNL     1       1.508  -2.068  -1.396  0.00  0.00    +0.000 A 
ATOM      3  C   UNL     1       1.899  -3.053  -2.293  0.00  0.00    +0.000 A 
ATOM      4  C   UNL     1       1.246  -4.277  -2.303  0.00  0.00    +0.000 A 
ATOM      5  C   UNL     1       0.160  -4.545  -1.444  0.00  0.00    +0.000 A 
ATOM      6  C   UNL     1      -0.488  -5.815  -1.359  0.00  0.00    +0.000 A 
ATOM      7  C   UNL     1      -1.720  -5.955  -0.709  0.00  0.00    +0.000 A 
ATOM      8  C   UNL     1      -2.292  -4.856  -0.092  0.00  0.00    +0.000 A 
ATOM      9  C   UNL     1      -1.600  -3.650  -0.044  0.00  0.00    +0.000 A 
ATOM     10  C   UNL     1      -0.342  -3.463  -0.658  0.00  0.00    +0.000 A 
ENDROOT
BRANCH   1  12
ATOM     11  C   UNL     1       0.494   0.173   0.018  0.00  0.00    +0.000 C 
ATOM     12  N   UNL     1      -0.016  -1.172   0.307  0.00  0.00    +0.000 N 
ATOM     13  C   UNL     1      -0.004  -1.514   1.738  0.00  0.00    +0.000 C 
ENDBRANCH   1  12
BRANCH   6  14
ATOM     14  S   UNL     1       0.235  -7.318  -2.039  0.00  0.00    +0.000 S 
ATOM     15  O   UNL     1      -0.582  -8.436  -1.615  0.00  0.00    +0.000 OA
ATOM     16  O   UNL     1       0.483  -7.084  -3.442  0.00  0.00    +0.000 OA
BRANCH  14  17
ATOM     17  N   UNL     1       1.736  -7.491  -1.291  0.00  0.00    +0.000 N 
ATOM     18  H   UNL     1       2.573  -7.462  -1.807  0.00  0.00    +0.000 HD
BRANCH  17  19
ATOM     19  C   UNL     1       1.739  -7.679   0.108  0.00  0.00    +0.000 A 
ATOM     20  C   UNL     1       1.607  -8.930   0.687  0.00  0.00    +0.000 A 
ATOM     21  C   UNL     1       1.679  -9.021   2.077  0.00  0.00    +0.000 A 
ATOM     22  C   UNL     1       1.856  -7.855   2.794  0.00  0.00    +0.000 A 
ATOM     23 CL   UNL     1       1.943  -7.849   4.502  0.00  0.00    +0.000 Cl
ATOM     24  N   UNL     1       1.973  -6.647   2.199  0.00  0.00    +0.000 NA
ATOM     25  N   UNL     1       1.919  -6.561   0.835  0.00  0.00    +0.000 NA
ENDBRANCH  17  19
ENDBRANCH  14  17
ENDBRANCH   6  14
TORSDOF 4
