REMARK  Name = 
REMARK  16 active torsions:
REMARK  status: ('A' for Active; 'I' for Inactive)
REMARK    1  A    between atoms: C_1  and  C_2
REMARK    2  A    between atoms: C_2  and  C_3
REMARK    3  A    between atoms: C_2  and  C_4
REMARK    4  A    between atoms: C_2  and  C_26
REMARK    5  A    between atoms: C_4  and  C_5
REMARK    6  A    between atoms: C_5  and  C_6
REMARK    7  A    between atoms: C_6  and  O_7
REMARK    8  A    between atoms: O_7  and  C_8
REMARK    9  A    between atoms: C_11  and  S_12
REMARK   10  A    between atoms: S_12  and  C_15
REMARK   11  A    between atoms: C_15  and  C_16
REMARK   12  A    between atoms: C_16  and  C_17
REMARK   13  A    between atoms: C_17  and  C_18
REMARK   14  A    between atoms: C_18  and  C_19
REMARK   15  A    between atoms: C_18  and  C_20
REMARK   16  A    between atoms: C_18  and  C_21
REMARK                            x       y       z     vdW  Elec       q    Type
REMARK                         _______ _______ _______ _____ _____    ______ ____
ROOT
ATOM      1  C   UNL     1      -1.644  -0.500   4.359  0.00  0.00    +0.000 A 
ATOM      2  C   UNL     1      -2.164   0.660   3.774  0.00  0.00    +0.000 A 
ATOM      3  C   UNL     1      -1.920   1.930   4.337  0.00  0.00    +0.000 A 
ATOM      4  C   UNL     1      -1.182   2.056   5.521  0.00  0.00    +0.000 A 
ATOM      5  C   UNL     1      -0.709   0.895   6.144  0.00  0.00    +0.000 A 
ATOM      6  C   UNL     1      -0.950  -0.371   5.570  0.00  0.00    +0.000 A 
ENDROOT
BRANCH   4   7
ATOM      7  S   UNL     1      -0.537   3.660   6.004  0.00  0.00    +0.000 S 
ATOM      8  O   UNL     1       0.672   3.420   6.767  0.00  0.00    +0.000 OA
ATOM      9  O   UNL     1      -0.466   4.437   4.774  0.00  0.00    +0.000 OA
BRANCH   7  10
ATOM     10  C   UNL     1      -1.706   4.483   7.051  0.00  0.00    +0.000 C 
BRANCH  10  11
ATOM     11  C   UNL     1      -1.809   3.979   8.496  0.00  0.00    +0.000 C 
BRANCH  11  12
ATOM     12  C   UNL     1      -2.704   4.939   9.320  0.00  0.00    +0.000 C 
BRANCH  12  13
ATOM     13  C   UNL     1      -3.014   4.593  10.807  0.00  0.00    +0.000 C 
ATOM     14  C   UNL     1      -1.736   4.407  11.636  0.00  0.00    +0.000 C 
ATOM     15  C   UNL     1      -3.812   5.779  11.402  0.00  0.00    +0.000 C 
BRANCH  13  16
ATOM     16  C   UNL     1      -3.884   3.357  11.011  0.00  0.00    +0.000 C 
ATOM     17  O   UNL     1      -4.318   2.959  12.082  0.00  0.00    +0.000 OA
ATOM     18  O   UNL     1      -4.172   2.669   9.894  0.00  0.00    +0.000 OA
ENDBRANCH  13  16
ENDBRANCH  12  13
ENDBRANCH  11  12
ENDBRANCH  10  11
ENDBRANCH   7  10
ENDBRANCH   4   7
BRANCH   1  19
ATOM     19  O   UNL     1      -1.717  -1.774   3.825  0.00  0.00    +0.000 OA
BRANCH  19  20
ATOM     20  C   UNL     1      -2.089  -1.852   2.439  0.00  0.00    +0.000 C 
BRANCH  20  21
ATOM     21  C   UNL     1      -1.682  -3.165   1.742  0.00  0.00    +0.000 C 
BRANCH  21  22
ATOM     22  C   UNL     1      -2.206  -4.526   2.237  0.00  0.00    +0.000 C 
BRANCH  22  24
ATOM     23  C   UNL     1      -4.331  -4.613   0.798  0.00  0.00    +0.000 C 
ATOM     24  C   UNL     1      -3.730  -4.814   2.200  0.00  0.00    +0.000 C 
ATOM     25  C   UNL     1      -3.986  -6.286   2.596  0.00  0.00    +0.000 C 
BRANCH  24  26
ATOM     26  C   UNL     1      -4.444  -3.932   3.210  0.00  0.00    +0.000 C 
ATOM     27  O   UNL     1      -5.335  -3.129   2.978  0.00  0.00    +0.000 OA
ATOM     28  O   UNL     1      -3.967  -4.073   4.461  0.00  0.00    +0.000 OA
ENDBRANCH  24  26
ENDBRANCH  22  24
ENDBRANCH  21  22
ENDBRANCH  20  21
ENDBRANCH  19  20
ENDBRANCH   1  19
TORSDOF 12
