REMARK  Name = 
REMARK  4 active torsions:
REMARK  status: ('A' for Active; 'I' for Inactive)
REMARK    1  A    between atoms: C_1  and  C_2
REMARK    2  A    between atoms: C_7  and  O_8
REMARK    3  A    between atoms: C_11  and  S_12
REMARK    4  A    between atoms: S_12  and  C_15
REMARK                            x       y       z     vdW  Elec       q    Type
REMARK                         _______ _______ _______ _____ _____    ______ ____
ROOT
ATOM      1  C   UNL     1       1.422  -0.298  -0.575  0.00  0.00    +0.000 C 
ATOM      2  C   UNL     1       0.667   0.700  -1.417  0.00  0.00    +0.000 C 
ATOM      3  O   UNL     1      -0.173   0.324  -2.239  0.00  0.00    +0.000 OA
ATOM      4  N   UNL     1       0.863   2.032  -1.225  0.00  0.00    +0.000 N 
ATOM      5  C   UNL     1       1.813   2.655  -0.437  0.00  0.00    +0.000 A 
ATOM      6  N   UNL     1       2.889   1.976  -0.035  0.00  0.00    +0.000 NA
ATOM      7  C   UNL     1       3.723   2.636   0.763  0.00  0.00    +0.000 A 
ATOM      8  C   UNL     1       3.535   3.924   1.220  0.00  0.00    +0.000 A 
ATOM      9  C   UNL     1       4.398   4.567   2.127  0.00  0.00    +0.000 A 
ATOM     10  C   UNL     1       4.081   5.842   2.579  0.00  0.00    +0.000 A 
ATOM     11  C   UNL     1       2.919   6.474   2.136  0.00  0.00    +0.000 A 
ATOM     12  C   UNL     1       2.095   5.825   1.205  0.00  0.00    +0.000 A 
ATOM     13  C   UNL     1       2.383   4.546   0.736  0.00  0.00    +0.000 A 
ATOM     14  N   UNL     1       1.552   3.933  -0.122  0.00  0.00    +0.000 NA
ATOM     15  H   UNL     1       0.250   2.630  -1.711  0.00  0.00    +0.000 HD
ENDROOT
BRANCH  10  16
ATOM     16  S   UNL     1       5.118   6.611   3.801  0.00  0.00    +0.000 S 
ATOM     17  O   UNL     1       4.265   7.480   4.592  0.00  0.00    +0.000 OA
ATOM     18  O   UNL     1       5.889   5.561   4.439  0.00  0.00    +0.000 OA
BRANCH  16  19
ATOM     19  C   UNL     1       6.253   7.638   2.904  0.00  0.00    +0.000 A 
ATOM     20  C   UNL     1       7.461   7.102   2.453  0.00  0.00    +0.000 A 
ATOM     21  C   UNL     1       8.355   7.921   1.762  0.00  0.00    +0.000 A 
ATOM     22  C   UNL     1       8.048   9.269   1.512  0.00  0.00    +0.000 A 
ATOM     23  C   UNL     1       8.928  10.097   0.799  0.00  0.00    +0.000 A 
ATOM     24  C   UNL     1       8.600  11.428   0.538  0.00  0.00    +0.000 A 
ATOM     25  C   UNL     1       7.398  11.954   1.000  0.00  0.00    +0.000 A 
ATOM     26  C   UNL     1       6.518  11.150   1.727  0.00  0.00    +0.000 A 
ATOM     27  C   UNL     1       6.825   9.805   1.982  0.00  0.00    +0.000 A 
ATOM     28  C   UNL     1       5.938   8.982   2.690  0.00  0.00    +0.000 A 
ENDBRANCH  16  19
ENDBRANCH  10  16
BRANCH   7  29
ATOM     29  O   UNL     1       4.801   1.900   1.143  0.00  0.00    +0.000 OA
ATOM     30  H   UNL     1       4.909   1.027   0.821  0.00  0.00    +0.000 HD
ENDBRANCH   7  29
TORSDOF 3
