REMARK  Name = 
REMARK  5 active torsions:
REMARK  status: ('A' for Active; 'I' for Inactive)
REMARK    1  A    between atoms: C_1  and  N_2
REMARK    2  A    between atoms: C_5  and  C_6
REMARK    3  A    between atoms: C_7  and  O_8
REMARK    4  A    between atoms: C_10  and  O_11
REMARK    5  A    between atoms: C_16  and  C_17
REMARK                            x       y       z     vdW  Elec       q    Type
REMARK                         _______ _______ _______ _____ _____    ______ ____
ROOT
ATOM      1  C   UNL     1      -1.469  -4.723  -0.145  0.00  0.00    +0.000 A 
ATOM      2  C   UNL     1      -1.445  -5.872   0.660  0.00  0.00    +0.000 A 
ATOM      3  C   UNL     1      -2.081  -7.044   0.257  0.00  0.00    +0.000 A 
ATOM      4  C   UNL     1      -2.763  -7.075  -0.962  0.00  0.00    +0.000 A 
ATOM      5  C   UNL     1      -2.819  -5.936  -1.777  0.00  0.00    +0.000 A 
ATOM      6  C   UNL     1      -3.552  -5.911  -3.067  0.00  0.00    +0.000 A 
ATOM      7  O   UNL     1      -4.130  -6.872  -3.557  0.00  0.00    +0.000 OA
ATOM      8  C   UNL     1      -3.573  -4.629  -3.790  0.00  0.00    +0.000 A 
ATOM      9  C   UNL     1      -2.903  -3.590  -3.288  0.00  0.00    +0.000 A 
ATOM     10  O   UNL     1      -2.178  -3.610  -2.118  0.00  0.00    +0.000 OA
ATOM     11  C   UNL     1      -2.168  -4.765  -1.368  0.00  0.00    +0.000 A 
ENDROOT
BRANCH   1  16
ATOM     12  C   UNL     1       1.421  -1.003   2.520  0.00  0.00    +0.000 C 
ATOM     13  N   UNL     1       0.627  -1.127   1.305  0.00  0.00    +0.000 N 
ATOM     14  C   UNL     1       1.243  -2.032   0.339  0.00  0.00    +0.000 C 
ATOM     15  C   UNL     1       0.479  -3.247  -0.069  0.00  0.00    +0.000 C 
ATOM     16  C   UNL     1      -0.787  -3.490   0.290  0.00  0.00    +0.000 C 
ATOM     17  C   UNL     1      -1.564  -2.538   1.138  0.00  0.00    +0.000 C 
ATOM     18  C   UNL     1      -0.803  -1.278   1.584  0.00  0.00    +0.000 C 
ATOM     19  H   UNL     1       0.640  -0.240   0.800  0.00  0.00    +0.000 HD
ENDBRANCH   1  16
BRANCH   9  20
ATOM     20  C   UNL     1      -2.882  -2.295  -3.984  0.00  0.00    +0.000 A 
ATOM     21  C   UNL     1      -1.871  -2.059  -4.930  0.00  0.00    +0.000 A 
ATOM     22  C   UNL     1      -1.818  -0.850  -5.628  0.00  0.00    +0.000 A 
ATOM     23  C   UNL     1      -2.774   0.134  -5.391  0.00  0.00    +0.000 A 
ATOM     24  C   UNL     1      -3.782  -0.086  -4.452  0.00  0.00    +0.000 A 
ATOM     25  C   UNL     1      -3.835  -1.292  -3.747  0.00  0.00    +0.000 A 
ATOM     26 CL   UNL     1      -5.105  -1.495  -2.590  0.00  0.00    +0.000 Cl
ENDBRANCH   9  20
BRANCH   2  27
ATOM     27  O   UNL     1      -0.790  -5.836   1.864  0.00  0.00    +0.000 OA
ATOM     28  H   UNL     1      -0.361  -5.051   2.140  0.00  0.00    +0.000 HD
ENDBRANCH   2  27
BRANCH   4  29
ATOM     29  O   UNL     1      -3.383  -8.234  -1.332  0.00  0.00    +0.000 OA
ATOM     30  H   UNL     1      -3.337  -8.988  -0.777  0.00  0.00    +0.000 HD
ENDBRANCH   4  29
TORSDOF 4
