REMARK  Name = 
REMARK  5 active torsions:
REMARK  status: ('A' for Active; 'I' for Inactive)
REMARK    1  A    between atoms: C_1  and  N_2
REMARK    2  A    between atoms: C_5  and  C_6
REMARK    3  A    between atoms: C_7  and  O_8
REMARK    4  A    between atoms: C_10  and  O_11
REMARK    5  A    between atoms: C_16  and  C_17
REMARK                            x       y       z     vdW  Elec       q    Type
REMARK                         _______ _______ _______ _____ _____    ______ ____
ROOT
ATOM      1  C   UNL     1      -0.210   4.638  -0.023  0.00  0.00    +0.000 A 
ATOM      2  C   UNL     1      -0.797   4.551  -1.296  0.00  0.00    +0.000 A 
ATOM      3  C   UNL     1      -1.377   5.651  -1.938  0.00  0.00    +0.000 A 
ATOM      4  C   UNL     1      -1.408   6.881  -1.301  0.00  0.00    +0.000 A 
ATOM      5  C   UNL     1      -0.872   7.019  -0.018  0.00  0.00    +0.000 A 
ATOM      6  C   UNL     1      -0.903   8.308   0.709  0.00  0.00    +0.000 A 
ATOM      7  O   UNL     1      -1.359   9.349   0.259  0.00  0.00    +0.000 OA
ATOM      8  C   UNL     1      -0.350   8.315   2.069  0.00  0.00    +0.000 A 
ATOM      9  C   UNL     1       0.172   7.182   2.559  0.00  0.00    +0.000 A 
ATOM     10  O   UNL     1       0.238   5.991   1.885  0.00  0.00    +0.000 OA
ATOM     11  C   UNL     1      -0.286   5.906   0.612  0.00  0.00    +0.000 A 
ENDROOT
BRANCH   1  16
ATOM     12  C   UNL     1       1.027  -0.277   0.182  0.00  0.00    +0.000 C 
ATOM     13  N   UNL     1       0.408   0.788  -0.601  0.00  0.00    +0.000 N 
ATOM     14  C   UNL     1       1.375   1.807  -1.027  0.00  0.00    +0.000 C 
ATOM     15  C   UNL     1       1.709   2.854   0.029  0.00  0.00    +0.000 C 
ATOM     16  C   UNL     1       0.476   3.474   0.701  0.00  0.00    +0.000 C 
ATOM     17  C   UNL     1      -0.447   2.355   1.132  0.00  0.00    +0.000 C 
ATOM     18  O   UNL     1      -0.918   2.313   2.272  0.00  0.00    +0.000 OA
ATOM     19  C   UNL     1      -0.792   1.306   0.091  0.00  0.00    +0.000 C 
ATOM     20  H   UNL     1       0.074   0.398  -1.482  0.00  0.00    +0.000 HD
ENDBRANCH   1  16
BRANCH   9  21
ATOM     21  C   UNL     1       0.726   7.148   3.918  0.00  0.00    +0.000 A 
ATOM     22  C   UNL     1      -0.131   6.825   4.983  0.00  0.00    +0.000 A 
ATOM     23  C   UNL     1       0.343   6.811   6.297  0.00  0.00    +0.000 A 
ATOM     24  C   UNL     1       1.676   7.115   6.561  0.00  0.00    +0.000 A 
ATOM     25  C   UNL     1       2.541   7.424   5.511  0.00  0.00    +0.000 A 
ATOM     26  C   UNL     1       2.071   7.441   4.194  0.00  0.00    +0.000 A 
ATOM     27 CL   UNL     1       3.195   7.834   2.940  0.00  0.00    +0.000 Cl
ENDBRANCH   9  21
BRANCH   2  28
ATOM     28  O   UNL     1      -0.844   3.369  -1.964  0.00  0.00    +0.000 OA
ATOM     29  H   UNL     1      -0.471   2.599  -1.581  0.00  0.00    +0.000 HD
ENDBRANCH   2  28
BRANCH   4  30
ATOM     30  O   UNL     1      -1.981   7.929  -1.963  0.00  0.00    +0.000 OA
ATOM     31  H   UNL     1      -2.331   7.805  -2.823  0.00  0.00    +0.000 HD
ENDBRANCH   4  30
TORSDOF 4
