REMARK  Name = 
REMARK  10 active torsions:
REMARK  status: ('A' for Active; 'I' for Inactive)
REMARK    1  A    between atoms: C_1  and  C_2
REMARK    2  A    between atoms: C_2  and  C_3
REMARK    3  A    between atoms: C_3  and  C_4
REMARK    4  A    between atoms: C_5  and  C_6
REMARK    5  A    between atoms: C_6  and  N_7
REMARK    6  A    between atoms: C_9  and  C_10
REMARK    7  A    between atoms: C_19  and  C_20
REMARK    8  A    between atoms: C_23  and  C_24
REMARK    9  A    between atoms: C_27  and  O_28
REMARK   10  A    between atoms: O_28  and  C_29
REMARK                            x       y       z     vdW  Elec       q    Type
REMARK                         _______ _______ _______ _____ _____    ______ ____
ROOT
ATOM      1  N   UNL     1      -1.981  -1.681   4.725  0.00  0.00    +0.000 N 
ATOM      2  C   UNL     1      -2.492  -0.932   5.882  0.00  0.00    +0.000 C 
ATOM      3  C   UNL     1      -2.397  -1.897   7.062  0.00  0.00    +0.000 C 
ATOM      4  C   UNL     1      -2.769  -3.240   6.434  0.00  0.00    +0.000 C 
ATOM      5  C   UNL     1      -2.320  -3.114   4.966  0.00  0.00    +0.000 C 
ATOM      6  H   UNL     1      -2.400  -1.386   3.843  0.00  0.00    +0.000 HD
ENDROOT
BRANCH   3   7
ATOM      7  C   UNL     1      -3.266  -1.484   8.230  0.00  0.00    +0.000 A 
ATOM      8  C   UNL     1      -4.672  -1.379   8.104  0.00  0.00    +0.000 A 
ATOM      9  C   UNL     1      -5.468  -0.987   9.183  0.00  0.00    +0.000 A 
ATOM     10  C   UNL     1      -4.833  -0.700  10.369  0.00  0.00    +0.000 A 
ATOM     11  C   UNL     1      -3.471  -0.796  10.505  0.00  0.00    +0.000 A 
ATOM     12  C   UNL     1      -2.659  -1.188   9.461  0.00  0.00    +0.000 A 
ATOM     13  O   UNL     1      -3.048  -0.465  11.754  0.00  0.00    +0.000 OA
ATOM     14  C   UNL     1      -4.304  -0.128  12.381  0.00  0.00    +0.000 C 
ATOM     15  O   UNL     1      -5.444  -0.301  11.514  0.00  0.00    +0.000 OA
ENDBRANCH   3   7
BRANCH   5  16
ATOM     16  C   UNL     1      -3.429  -3.546   4.006  0.00  0.00    +0.000 A 
ATOM     17  C   UNL     1      -4.673  -2.894   3.995  0.00  0.00    +0.000 A 
ATOM     18  C   UNL     1      -5.687  -3.269   3.116  0.00  0.00    +0.000 A 
ATOM     19  C   UNL     1      -5.483  -4.310   2.217  0.00  0.00    +0.000 A 
ATOM     20  C   UNL     1      -4.252  -4.973   2.216  0.00  0.00    +0.000 A 
ATOM     21  C   UNL     1      -3.232  -4.597   3.100  0.00  0.00    +0.000 A 
BRANCH  19  22
ATOM     22  O   UNL     1      -6.398  -4.762   1.305  0.00  0.00    +0.000 OA
ATOM     23  C   UNL     1      -7.646  -4.076   1.273  0.00  0.00    +0.000 C 
ENDBRANCH  19  22
ENDBRANCH   5  16
BRANCH   4  24
ATOM     24  C   UNL     1      -2.074  -4.390   7.111  0.00  0.00    +0.000 C 
ATOM     25  O   UNL     1      -0.996  -4.367   7.680  0.00  0.00    +0.000 OA
ATOM     26  O   UNL     1      -2.780  -5.535   7.035  0.00  0.00    +0.000 OA
ENDBRANCH   4  24
BRANCH   1  27
ATOM     27  C   UNL     1      -0.542  -1.438   4.586  0.00  0.00    +0.000 C 
BRANCH  27  29
ATOM     28  C   UNL     1       0.562  -2.819   2.384  0.00  0.00    +0.000 C 
ATOM     29  C   UNL     1       0.052  -2.181   3.401  0.00  0.00    +0.000 C 
BRANCH  28  30
ATOM     30  C   UNL     1       1.157  -3.562   1.199  0.00  0.00    +0.000 C 
BRANCH  30  32
ATOM     31  C   UNL     1       1.275  -3.592  -1.329  0.00  0.00    +0.000 C 
ATOM     32  C   UNL     1       0.708  -2.897  -0.102  0.00  0.00    +0.000 C 
ENDBRANCH  30  32
ENDBRANCH  28  30
ENDBRANCH  27  29
ENDBRANCH   1  27
TORSDOF 8
