REMARK  Name = 
REMARK  5 active torsions:
REMARK  status: ('A' for Active; 'I' for Inactive)
REMARK    1  A    between atoms: C_1  and  N_2
REMARK    2  A    between atoms: C_5  and  C_6
REMARK    3  A    between atoms: C_7  and  O_8
REMARK    4  A    between atoms: C_10  and  O_11
REMARK    5  A    between atoms: C_16  and  C_17
REMARK                            x       y       z     vdW  Elec       q    Type
REMARK                         _______ _______ _______ _____ _____    ______ ____
ROOT
ATOM      1  C   UNL     1       2.917   0.454  -4.796  0.00  0.00    +0.000 A 
ATOM      2  C   UNL     1       2.542  -0.091  -6.036  0.00  0.00    +0.000 A 
ATOM      3  C   UNL     1       3.366   0.025  -7.157  0.00  0.00    +0.000 A 
ATOM      4  C   UNL     1       4.579   0.708  -7.055  0.00  0.00    +0.000 A 
ATOM      5  C   UNL     1       4.975   1.276  -5.836  0.00  0.00    +0.000 A 
ATOM      6  C   UNL     1       6.241   2.031  -5.688  0.00  0.00    +0.000 A 
ATOM      7  O   UNL     1       7.084   2.177  -6.571  0.00  0.00    +0.000 OA
ATOM      8  C   UNL     1       6.485   2.657  -4.382  0.00  0.00    +0.000 A 
ATOM      9  C   UNL     1       5.613   2.457  -3.388  0.00  0.00    +0.000 A 
ATOM     10  O   UNL     1       4.489   1.664  -3.487  0.00  0.00    +0.000 OA
ATOM     11  C   UNL     1       4.147   1.141  -4.713  0.00  0.00    +0.000 A 
ENDROOT
BRANCH   1  16
ATOM     12  C   UNL     1      -1.077  -0.805  -1.330  0.00  0.00    +0.000 C 
ATOM     13  N   UNL     1       0.199  -0.107  -1.360  0.00  0.00    +0.000 N 
ATOM     14  C   UNL     1       1.334  -0.993  -1.584  0.00  0.00    +0.000 C 
ATOM     15  C   UNL     1       2.192  -0.744  -2.781  0.00  0.00    +0.000 C 
ATOM     16  C   UNL     1       2.051   0.303  -3.604  0.00  0.00    +0.000 C 
ATOM     17  C   UNL     1       1.008   1.349  -3.364  0.00  0.00    +0.000 C 
ATOM     18  C   UNL     1       0.145   1.151  -2.104  0.00  0.00    +0.000 C 
ATOM     19  H   UNL     1       0.399   0.227  -0.417  0.00  0.00    +0.000 HD
ENDBRANCH   1  16
BRANCH   9  20
ATOM     20  C   UNL     1       5.807   3.085  -2.074  0.00  0.00    +0.000 A 
ATOM     21  C   UNL     1       6.435   4.329  -1.960  0.00  0.00    +0.000 A 
ATOM     22  C   UNL     1       6.581   4.884  -0.704  0.00  0.00    +0.000 A 
ATOM     23  N   UNL     1       6.151   4.295   0.431  0.00  0.00    +0.000 NA
ATOM     24  C   UNL     1       5.547   3.095   0.300  0.00  0.00    +0.000 A 
ATOM     25  C   UNL     1       5.350   2.461  -0.911  0.00  0.00    +0.000 A 
ENDBRANCH   9  20
BRANCH   2  26
ATOM     26  O   UNL     1       1.340  -0.742  -6.157  0.00  0.00    +0.000 OA
ATOM     27  H   UNL     1       0.777  -0.828  -5.413  0.00  0.00    +0.000 HD
ENDBRANCH   2  26
BRANCH   4  28
ATOM     28  O   UNL     1       5.363   0.816  -8.168  0.00  0.00    +0.000 OA
ATOM     29  H   UNL     1       5.086   0.432  -8.976  0.00  0.00    +0.000 HD
ENDBRANCH   4  28
TORSDOF 4
