REMARK  Name = 
REMARK  9 active torsions:
REMARK  status: ('A' for Active; 'I' for Inactive)
REMARK    1  A    between atoms: C_1  and  O_2
REMARK    2  A    between atoms: O_2  and  C_3
REMARK    3  A    between atoms: C_7  and  C_8
REMARK    4  A    between atoms: C_8  and  S_9
REMARK    5  A    between atoms: S_9  and  C_11
REMARK    6  A    between atoms: C_15  and  O_16
REMARK    7  A    between atoms: O_16  and  C_17
REMARK    8  A    between atoms: C_17  and  C_18
REMARK    9  A    between atoms: C_26  and  C_27
REMARK                            x       y       z     vdW  Elec       q    Type
REMARK                         _______ _______ _______ _____ _____    ______ ____
ROOT
ATOM      1  C   UNL     1       4.298   3.038  -4.366  0.00  0.00    +0.000 A 
ATOM      2  N   UNL     1       5.253   2.497  -5.094  0.00  0.00    +0.000 NA
ATOM      3  C   UNL     1       4.629   1.517  -5.834  0.00  0.00    +0.000 A 
ATOM      4  C   UNL     1       5.158   0.622  -6.775  0.00  0.00    +0.000 A 
ATOM      5  C   UNL     1       4.296  -0.272  -7.428  0.00  0.00    +0.000 A 
ATOM      6  C   UNL     1       2.921  -0.238  -7.181  0.00  0.00    +0.000 A 
ATOM      7  C   UNL     1       2.376   0.631  -6.225  0.00  0.00    +0.000 A 
ATOM      8  C   UNL     1       3.266   1.479  -5.564  0.00  0.00    +0.000 A 
ATOM      9  N   UNL     1       3.096   2.413  -4.576  0.00  0.00    +0.000 N 
ATOM     10  H   UNL     1       2.256   2.602  -4.099  0.00  0.00    +0.000 HD
ENDROOT
BRANCH   1  11
ATOM     11  S   UNL     1       4.450   4.401  -3.303  0.00  0.00    +0.000 S 
ATOM     12  O   UNL     1       3.723   3.979  -1.974  0.00  0.00    +0.000 OA
BRANCH  11  13
ATOM     13  C   UNL     1       6.247   4.443  -3.103  0.00  0.00    +0.000 C 
BRANCH  13  18
ATOM     14  C   UNL     1       7.270   6.827  -0.293  0.00  0.00    +0.000 A 
ATOM     15  C   UNL     1       7.400   7.994  -1.041  0.00  0.00    +0.000 A 
ATOM     16  C   UNL     1       7.135   7.933  -2.393  0.00  0.00    +0.000 A 
ATOM     17  N   UNL     1       6.767   6.807  -3.034  0.00  0.00    +0.000 NA
ATOM     18  C   UNL     1       6.665   5.659  -2.308  0.00  0.00    +0.000 A 
ATOM     19  C   UNL     1       6.905   5.623  -0.923  0.00  0.00    +0.000 A 
ATOM     20  C   UNL     1       6.818   4.337  -0.148  0.00  0.00    +0.000 C 
BRANCH  14  22
ATOM     21  C   UNL     1       7.284   7.975   1.781  0.00  0.00    +0.000 C 
ATOM     22  O   UNL     1       7.528   6.774   1.055  0.00  0.00    +0.000 OA
ENDBRANCH  14  22
ENDBRANCH  13  18
ENDBRANCH  11  13
ENDBRANCH   1  11
BRANCH   5  23
ATOM     23  O   UNL     1       4.922  -1.127  -8.295  0.00  0.00    +0.000 OA
BRANCH  23  24
ATOM     24  C   UNL     1       4.270  -2.367  -8.599  0.00  0.00    +0.000 C 
BRANCH  24  25
ATOM     25  C   UNL     1       4.068  -3.319  -7.419  0.00  0.00    +0.000 C 
ATOM     26  F   UNL     1       4.630  -2.888  -6.272  0.00  0.00    +0.000 F 
ATOM     27  F   UNL     1       2.747  -3.507  -7.183  0.00  0.00    +0.000 F 
ATOM     28  F   UNL     1       4.598  -4.537  -7.691  0.00  0.00    +0.000 F 
ENDBRANCH  24  25
ENDBRANCH  23  24
ENDBRANCH   5  23
TORSDOF 7
