REMARK  Name = 
REMARK  4 active torsions:
REMARK  status: ('A' for Active; 'I' for Inactive)
REMARK    1  A    between atoms: C_1  and  C_2
REMARK    2  A    between atoms: C_2  and  N_3
REMARK    3  A    between atoms: N_3  and  C_4
REMARK    4  A    between atoms: C_14  and  C_16
REMARK                            x       y       z     vdW  Elec       q    Type
REMARK                         _______ _______ _______ _____ _____    ______ ____
ROOT
ATOM      1  C   UNL     1       0.548  -4.846   1.247  0.00  0.00    +0.000 A 
ATOM      2  C   UNL     1      -0.622  -5.320   0.652  0.00  0.00    +0.000 A 
ATOM      3  C   UNL     1      -1.835  -4.679   0.888  0.00  0.00    +0.000 A 
ATOM      4  C   UNL     1      -1.838  -3.600   1.749  0.00  0.00    +0.000 A 
ATOM      5  N   UNL     1      -0.740  -3.131   2.381  0.00  0.00    +0.000 NA
ATOM      6  C   UNL     1       0.445  -3.747   2.148  0.00  0.00    +0.000 A 
ATOM      7  N   UNL     1       1.583  -3.210   2.729  0.00  0.00    +0.000 N 
ATOM      8  C   UNL     1       1.559  -1.803   3.135  0.00  0.00    +0.000 C 
ATOM      9  C   UNL     1       2.980  -1.238   2.919  0.00  0.00    +0.000 C 
ATOM     10  N   UNL     1       4.026  -2.075   3.557  0.00  0.00    +0.000 N 
ATOM     11  C   UNL     1       5.190  -1.600   4.180  0.00  0.00    +0.000 C 
ATOM     12  O   UNL     1       5.960  -2.402   4.718  0.00  0.00    +0.000 OA
ATOM     13  C   UNL     1       3.899  -3.524   3.331  0.00  0.00    +0.000 C 
ATOM     14  C   UNL     1       2.461  -4.022   3.580  0.00  0.00    +0.000 C 
ENDROOT
BRANCH  11  15
ATOM     15  C   UNL     1       5.447  -0.157   4.191  0.00  0.00    +0.000 A 
ATOM     16  N   UNL     1       5.077   0.683   3.244  0.00  0.00    +0.000 NA
ATOM     17  C   UNL     1       5.436   1.971   3.593  0.00  0.00    +0.000 A 
ATOM     18  C   UNL     1       5.162   3.133   2.845  0.00  0.00    +0.000 A 
ATOM     19  C   UNL     1       5.569   4.381   3.326  0.00  0.00    +0.000 A 
ATOM     20  C   UNL     1       6.249   4.483   4.536  0.00  0.00    +0.000 A 
ATOM     21  C   UNL     1       6.538   3.343   5.295  0.00  0.00    +0.000 A 
ATOM     22  C   UNL     1       6.119   2.096   4.804  0.00  0.00    +0.000 A 
ATOM     23  S   UNL     1       6.315   0.535   5.498  0.00  0.00    +0.000 S 
ENDBRANCH  11  15
BRANCH   1  24
ATOM     24  N   UNL     1       1.804  -5.349   0.835  0.00  0.00    +0.000 N 
ATOM     25  H   UNL     1       2.533  -4.744   0.566  0.00  0.00    +0.000 HD
BRANCH  24  27
ATOM     26  C   UNL     1       3.466  -7.127   0.842  0.00  0.00    +0.000 C 
ATOM     27  C   UNL     1       1.980  -6.797   0.824  0.00  0.00    +0.000 C 
ENDBRANCH  24  27
ENDBRANCH   1  24
TORSDOF 3
