REMARK  Name = 
REMARK  7 active torsions:
REMARK  status: ('A' for Active; 'I' for Inactive)
REMARK    1  A    between atoms: C_1  and  C_2
REMARK    2  A    between atoms: C_2  and  C_3
REMARK    3  A    between atoms: C_3  and  C_4
REMARK    4  A    between atoms: C_4  and  N_5
REMARK    5  A    between atoms: C_10  and  C_11
REMARK    6  A    between atoms: C_14  and  N_15
REMARK    7  A    between atoms: C_25  and  C_26
REMARK                            x       y       z     vdW  Elec       q    Type
REMARK                         _______ _______ _______ _____ _____    ______ ____
ROOT
ATOM      1  N   UNL     1      -2.787  -0.128   4.313  0.00  0.00    +0.000 N 
ATOM      2  C   UNL     1      -1.702   0.708   4.200  0.00  0.00    +0.000 C 
ATOM      3  O   UNL     1      -1.385   1.257   3.148  0.00  0.00    +0.000 OA
ATOM      4  N   UNL     1      -1.000   0.852   5.408  0.00  0.00    +0.000 N 
ATOM      5  N   UNL     1      -1.456   0.225   6.556  0.00  0.00    +0.000 NA
ATOM      6  C   UNL     1      -0.655  -0.676   7.060  0.00  0.00    +0.000 C 
ATOM      7  C   UNL     1       0.597  -1.111   6.378  0.00  0.00    +0.000 A 
ATOM      8  C   UNL     1       0.716  -2.461   6.015  0.00  0.00    +0.000 A 
ATOM      9  C   UNL     1       1.806  -2.803   5.257  0.00  0.00    +0.000 A 
ATOM     10  C   UNL     1       2.765  -1.884   4.897  0.00  0.00    +0.000 A 
ATOM     11  C   UNL     1       2.692  -0.556   5.268  0.00  0.00    +0.000 A 
ATOM     12  C   UNL     1       1.567  -0.148   5.993  0.00  0.00    +0.000 A 
ATOM     13  C   UNL     1       1.313   1.310   6.303  0.00  0.00    +0.000 C 
ATOM     14  C   UNL     1       0.085   1.848   5.532  0.00  0.00    +0.000 C 
ATOM     15  C   UNL     1      -0.436   3.134   6.186  0.00  0.00    +0.000 C 
ATOM     16  O   UNL     1       3.728  -2.436   4.109  0.00  0.00    +0.000 OA
ATOM     17  C   UNL     1       3.163  -3.744   3.877  0.00  0.00    +0.000 C 
ATOM     18  O   UNL     1       2.047  -4.039   4.740  0.00  0.00    +0.000 OA
ATOM     19  H   UNL     1      -2.918  -0.595   5.169  0.00  0.00    +0.000 HD
ENDROOT
BRANCH   6  20
ATOM     20  C   UNL     1      -1.026  -1.325   8.347  0.00  0.00    +0.000 A 
ATOM     21  C   UNL     1      -2.370  -1.433   8.703  0.00  0.00    +0.000 A 
ATOM     22  C   UNL     1      -2.731  -2.021   9.916  0.00  0.00    +0.000 A 
ATOM     23  C   UNL     1      -1.752  -2.454  10.818  0.00  0.00    +0.000 A 
ATOM     24  C   UNL     1      -0.411  -2.399  10.431  0.00  0.00    +0.000 A 
ATOM     25  C   UNL     1      -0.040  -1.815   9.217  0.00  0.00    +0.000 A 
BRANCH  23  26
ATOM     26  N   UNL     1      -2.119  -3.135  11.982  0.00  0.00    +0.000 N 
ATOM     27  H   UNL     1      -3.065  -3.172  12.253  0.00  0.00    +0.000 HD
ATOM     28  H   UNL     1      -1.432  -3.577  12.531  0.00  0.00    +0.000 HD
ENDBRANCH  23  26
ENDBRANCH   6  20
BRANCH   1  29
ATOM     29  C   UNL     1      -3.748  -0.369   3.262  0.00  0.00    +0.000 C 
BRANCH  29  30
ATOM     30  C   UNL     1      -3.497  -1.670   2.500  0.00  0.00    +0.000 C 
BRANCH  30  32
ATOM     31  C   UNL     1      -3.274  -4.178   2.594  0.00  0.00    +0.000 C 
ATOM     32  C   UNL     1      -3.527  -2.909   3.396  0.00  0.00    +0.000 C 
ENDBRANCH  30  32
ENDBRANCH  29  30
ENDBRANCH   1  29
TORSDOF 5
