REMARK  Name = 
REMARK  11 active torsions:
REMARK  status: ('A' for Active; 'I' for Inactive)
REMARK    1  A    between atoms: C_1  and  O_2
REMARK    2  A    between atoms: O_2  and  C_3
REMARK    3  A    between atoms: C_6  and  C_7
REMARK    4  A    between atoms: C_8  and  C_9
REMARK    5  A    between atoms: C_12  and  C_13
REMARK    6  A    between atoms: N_23  and  C_24
REMARK    7  A    between atoms: C_24  and  C_25
REMARK    8  A    between atoms: C_26  and  C_27
REMARK    9  A    between atoms: C_27  and  C_28
REMARK   10  A    between atoms: C_28  and  C_29
REMARK   11  A    between atoms: C_28  and  C_30
REMARK                            x       y       z     vdW  Elec       q    Type
REMARK                         _______ _______ _______ _____ _____    ______ ____
ROOT
ATOM      1  C   UNL     1       2.032  -5.148   3.766  0.00  0.00    +0.000 C 
ATOM      2  C   UNL     1       3.070  -5.114   4.897  0.00  0.00    +0.000 C 
ATOM      3  C   UNL     1       3.529  -6.571   5.007  0.00  0.00    +0.000 C 
ATOM      4  C   UNL     1       3.210  -7.181   3.630  0.00  0.00    +0.000 C 
ATOM      5  N   UNL     1       2.552  -6.152   2.796  0.00  0.00    +0.000 N 
ATOM      6  H   UNL     1       1.778  -6.516   2.240  0.00  0.00    +0.000 HD
ENDROOT
BRANCH   3   7
ATOM      7  C   UNL     1       4.978  -6.758   5.429  0.00  0.00    +0.000 A 
ATOM      8  C   UNL     1       5.267  -7.514   6.592  0.00  0.00    +0.000 A 
ATOM      9  C   UNL     1       6.586  -7.775   6.984  0.00  0.00    +0.000 A 
ATOM     10  C   UNL     1       7.599  -7.286   6.192  0.00  0.00    +0.000 A 
ATOM     11  C   UNL     1       7.337  -6.542   5.068  0.00  0.00    +0.000 A 
ATOM     12  C   UNL     1       6.048  -6.249   4.671  0.00  0.00    +0.000 A 
ATOM     13  O   UNL     1       8.473  -6.175   4.414  0.00  0.00    +0.000 OA
ATOM     14  C   UNL     1       9.464  -6.888   5.185  0.00  0.00    +0.000 C 
ATOM     15  O   UNL     1       8.931  -7.478   6.389  0.00  0.00    +0.000 OA
ENDBRANCH   3   7
BRANCH   1  19
ATOM     16  C   UNL     1       0.794  -1.433   1.858  0.00  0.00    +0.000 A 
ATOM     17  C   UNL     1       2.044  -1.521   2.465  0.00  0.00    +0.000 A 
ATOM     18  C   UNL     1       2.441  -2.697   3.113  0.00  0.00    +0.000 A 
ATOM     19  C   UNL     1       1.604  -3.821   3.155  0.00  0.00    +0.000 A 
ATOM     20  C   UNL     1       0.342  -3.718   2.545  0.00  0.00    +0.000 A 
ATOM     21  C   UNL     1      -0.059  -2.536   1.911  0.00  0.00    +0.000 A 
BRANCH  16  23
ATOM     22  C   UNL     1       1.175   0.770   1.056  0.00  0.00    +0.000 C 
ATOM     23  O   UNL     1       0.300  -0.344   1.194  0.00  0.00    +0.000 OA
ENDBRANCH  16  23
ENDBRANCH   1  19
BRANCH   2  24
ATOM     24  C   UNL     1       2.425  -4.676   6.186  0.00  0.00    +0.000 C 
ATOM     25  O   UNL     1       1.429  -5.154   6.705  0.00  0.00    +0.000 OA
ATOM     26  O   UNL     1       3.097  -3.682   6.794  0.00  0.00    +0.000 OA
ENDBRANCH   2  24
BRANCH   5  27
ATOM     27  C   UNL     1       3.455  -5.626   1.762  0.00  0.00    +0.000 C 
BRANCH  27  28
ATOM     28  C   UNL     1       3.763  -6.687   0.734  0.00  0.00    +0.000 C 
ATOM     29  C   UNL     1       4.988  -7.145   0.416  0.00  0.00    +0.000 C 
BRANCH  29  30
ATOM     30  C   UNL     1       5.215  -8.233  -0.602  0.00  0.00    +0.000 C 
BRANCH  30  31
ATOM     31  C   UNL     1       5.866  -9.504  -0.021  0.00  0.00    +0.000 C 
ATOM     32  C   UNL     1       5.019 -10.136   1.087  0.00  0.00    +0.000 C 
ATOM     33  C   UNL     1       6.099 -10.531  -1.134  0.00  0.00    +0.000 C 
ENDBRANCH  30  31
ENDBRANCH  29  30
ENDBRANCH  27  28
ENDBRANCH   5  27
TORSDOF 8
