REMARK  Name = 
REMARK  12 active torsions:
REMARK  status: ('A' for Active; 'I' for Inactive)
REMARK    1  A    between atoms: C_1  and  C_2
REMARK    2  A    between atoms: C_2  and  C_3
REMARK    3  A    between atoms: C_4  and  C_5
REMARK    4  A    between atoms: C_5  and  O_7
REMARK    5  A    between atoms: O_7  and  C_8
REMARK    6  A    between atoms: C_8  and  C_9
REMARK    7  A    between atoms: C_8  and  C_14
REMARK    8  A    between atoms: C_9  and  C_10
REMARK    9  A    between atoms: C_11  and  C_12
REMARK   10  A    between atoms: C_11  and  C_13
REMARK   11  A    between atoms: C_19  and  O_20
REMARK   12  A    between atoms: C_23  and  O_24
REMARK                            x       y       z     vdW  Elec       q    Type
REMARK                         _______ _______ _______ _____ _____    ______ ____
ROOT
ATOM      1  C   UNL     1       2.126  -7.548   0.154  0.00  0.00    +0.000 C 
ATOM      2  C   UNL     1       1.197  -8.515   0.170  0.00  0.00    +0.000 C 
ATOM      3  C   UNL     1       1.053  -9.528  -0.887  0.00  0.00    +0.000 C 
ATOM      4  O   UNL     1       0.171 -10.379  -0.817  0.00  0.00    +0.000 OA
ATOM      5  C   UNL     1       1.988  -9.511  -2.018  0.00  0.00    +0.000 A 
ATOM      6  C   UNL     1       1.899 -10.490  -3.021  0.00  0.00    +0.000 A 
ATOM      7  C   UNL     1       2.794 -10.504  -4.087  0.00  0.00    +0.000 A 
ATOM      8  C   UNL     1       3.786  -9.534  -4.168  0.00  0.00    +0.000 A 
ATOM      9  C   UNL     1       3.879  -8.557  -3.174  0.00  0.00    +0.000 A 
ATOM     10  C   UNL     1       2.984  -8.538  -2.083  0.00  0.00    +0.000 A 
ATOM     11  C   UNL     1       3.107  -7.542  -0.986  0.00  0.00    +0.000 C 
ATOM     12  O   UNL     1       4.048  -6.761  -0.995  0.00  0.00    +0.000 OA
ENDROOT
BRANCH   6  13
ATOM     13  O   UNL     1       0.958 -11.485  -3.020  0.00  0.00    +0.000 OA
ATOM     14  H   UNL     1       0.327 -11.531  -2.329  0.00  0.00    +0.000 HD
ENDBRANCH   6  13
BRANCH   9  15
ATOM     15  O   UNL     1       4.871  -7.624  -3.294  0.00  0.00    +0.000 OA
ATOM     16  H   UNL     1       5.456  -7.653  -4.025  0.00  0.00    +0.000 HD
ENDBRANCH   9  15
BRANCH   1  17
ATOM     17  C   UNL     1       2.272  -6.487   1.273  0.00  0.00    +0.000 C 
BRANCH  17  18
ATOM     18  O   UNL     1       1.097  -6.439   2.176  0.00  0.00    +0.000 OA
BRANCH  18  19
ATOM     19  C   UNL     1      -0.074  -5.994   1.680  0.00  0.00    +0.000 C 
ATOM     20  O   UNL     1      -0.268  -5.661   0.513  0.00  0.00    +0.000 OA
BRANCH  19  22
ATOM     21  C   UNL     1      -1.238  -6.338   3.941  0.00  0.00    +0.000 C 
ATOM     22  C   UNL     1      -1.213  -6.001   2.639  0.00  0.00    +0.000 C 
BRANCH  21  24
ATOM     23  C   UNL     1      -3.797  -5.901   4.237  0.00  0.00    +0.000 C 
ATOM     24  C   UNL     1      -2.464  -6.343   4.837  0.00  0.00    +0.000 C 
ENDBRANCH  21  24
ENDBRANCH  19  22
ENDBRANCH  18  19
ENDBRANCH  17  18
BRANCH  17  25
ATOM     25  C   UNL     1       2.676  -5.068   0.794  0.00  0.00    +0.000 C 
BRANCH  25  26
ATOM     26  C   UNL     1       3.067  -4.029   1.815  0.00  0.00    +0.000 C 
ATOM     27  C   UNL     1       4.345  -3.640   2.041  0.00  0.00    +0.000 C 
ATOM     28  C   UNL     1       4.637  -2.315   2.694  0.00  0.00    +0.000 C 
ATOM     29  C   UNL     1       5.561  -4.405   1.572  0.00  0.00    +0.000 C 
ENDBRANCH  25  26
ENDBRANCH  17  25
ENDBRANCH   1  17
TORSDOF 9
