REMARK  Name = 
REMARK  17 active torsions:
REMARK  status: ('A' for Active; 'I' for Inactive)
REMARK    1  A    between atoms: C_1  and  O_2
REMARK    2  A    between atoms: O_2  and  C_3
REMARK    3  A    between atoms: C_3  and  C_5
REMARK    4  A    between atoms: C_5  and  C_6
REMARK    5  A    between atoms: C_6  and  C_7
REMARK    6  A    between atoms: C_8  and  C_9
REMARK    7  A    between atoms: C_9  and  C_10
REMARK    8  A    between atoms: C_10  and  C_11
REMARK    9  A    between atoms: C_15  and  O_16
REMARK   10  A    between atoms: C_17  and  C_18
REMARK   11  A    between atoms: C_19  and  C_20
REMARK   12  A    between atoms: C_20  and  C_21
REMARK   13  A    between atoms: C_21  and  C_22
REMARK   14  A    between atoms: C_21  and  O_23
REMARK   15  A    between atoms: C_21  and  C_24
REMARK   16  A    between atoms: C_24  and  C_25
REMARK   17  A    between atoms: C_25  and  C_26
REMARK                            x       y       z     vdW  Elec       q    Type
REMARK                         _______ _______ _______ _____ _____    ______ ____
ROOT
ATOM      1  C   UNL     1       5.346   2.162   1.094  0.00  0.00    +0.000 C 
ATOM      2  C   UNL     1       6.304   3.119   1.779  0.00  0.00    +0.000 C 
ATOM      3  O   UNL     1       6.907   2.861   2.812  0.00  0.00    +0.000 OA
ATOM      4  C   UNL     1       6.413   4.452   1.094  0.00  0.00    +0.000 C 
ATOM      5  C   UNL     1       5.743   4.168  -0.241  0.00  0.00    +0.000 C 
ATOM      6  C   UNL     1       4.700   3.067   0.027  0.00  0.00    +0.000 C 
ENDROOT
BRANCH   5   7
ATOM      7  O   UNL     1       6.682   3.760  -1.231  0.00  0.00    +0.000 OA
ATOM      8  H   UNL     1       7.134   2.955  -0.935  0.00  0.00    +0.000 HD
ENDBRANCH   5   7
BRANCH   6   9
ATOM      9  C   UNL     1       3.420   3.658   0.580  0.00  0.00    +0.000 C 
ATOM     10  C   UNL     1       2.221   3.568  -0.015  0.00  0.00    +0.000 C 
BRANCH  10  11
ATOM     11  C   UNL     1       1.007   4.278   0.517  0.00  0.00    +0.000 C 
BRANCH  11  12
ATOM     12  C   UNL     1       0.364   5.339  -0.422  0.00  0.00    +0.000 C 
ATOM     13  C   UNL     1      -0.898   5.889   0.287  0.00  0.00    +0.000 C 
BRANCH  12  14
ATOM     14  O   UNL     1      -0.076   4.687  -1.624  0.00  0.00    +0.000 OA
ATOM     15  H   UNL     1      -0.479   5.340  -2.217  0.00  0.00    +0.000 HD
ENDBRANCH  12  14
BRANCH  12  16
ATOM     16  C   UNL     1       1.290   6.528  -0.829  0.00  0.00    +0.000 C 
BRANCH  16  17
ATOM     17  C   UNL     1       2.508   6.174  -1.695  0.00  0.00    +0.000 C 
BRANCH  17  18
ATOM     18  C   UNL     1       3.289   7.400  -2.169  0.00  0.00    +0.000 C 
ATOM     19  C   UNL     1       4.613   7.045  -2.905  0.00  0.00    +0.000 C 
ATOM     20  C   UNL     1       5.291   8.210  -2.170  0.00  0.00    +0.000 C 
ATOM     21  C   UNL     1       4.159   8.155  -1.128  0.00  0.00    +0.000 C 
ENDBRANCH  17  18
ENDBRANCH  16  17
ENDBRANCH  12  16
ENDBRANCH  11  12
ENDBRANCH  10  11
ENDBRANCH   6   9
BRANCH   1  22
ATOM     22  C   UNL     1       6.051   0.932   0.500  0.00  0.00    +0.000 C 
BRANCH  22  23
ATOM     23  C   UNL     1       6.623  -0.049   1.546  0.00  0.00    +0.000 C 
BRANCH  23  25
ATOM     24  C   UNL     1       5.637  -1.659   3.281  0.00  0.00    +0.000 C 
ATOM     25  C   UNL     1       5.569  -0.594   2.471  0.00  0.00    +0.000 C 
BRANCH  24  26
ATOM     26  C   UNL     1       6.764  -2.631   3.474  0.00  0.00    +0.000 C 
BRANCH  26  27
ATOM     27  C   UNL     1       6.210  -4.054   3.495  0.00  0.00    +0.000 C 
BRANCH  27  28
ATOM     28  C   UNL     1       7.261  -5.077   3.843  0.00  0.00    +0.000 C 
ATOM     29  O   UNL     1       8.429  -4.836   4.117  0.00  0.00    +0.000 OA
BRANCH  28  31
ATOM     30  C   UNL     1       7.580  -7.379   4.182  0.00  0.00    +0.000 C 
ATOM     31  O   UNL     1       6.693  -6.317   3.828  0.00  0.00    +0.000 OA
ENDBRANCH  28  31
ENDBRANCH  27  28
ENDBRANCH  26  27
ENDBRANCH  24  26
ENDBRANCH  23  25
ENDBRANCH  22  23
ENDBRANCH   1  22
TORSDOF 15
