REMARK  Name = 
REMARK  14 active torsions:
REMARK  status: ('A' for Active; 'I' for Inactive)
REMARK    1  A    between atoms: C_1  and  C_2
REMARK    2  A    between atoms: C_2  and  C_3
REMARK    3  A    between atoms: C_3  and  C_4
REMARK    4  A    between atoms: C_4  and  C_5
REMARK    5  A    between atoms: C_5  and  C_6
REMARK    6  A    between atoms: C_6  and  O_8
REMARK    7  A    between atoms: O_8  and  C_9
REMARK    8  A    between atoms: C_9  and  C_10
REMARK    9  A    between atoms: C_9  and  C_15
REMARK   10  A    between atoms: C_10  and  C_11
REMARK   11  A    between atoms: C_12  and  C_13
REMARK   12  A    between atoms: C_12  and  C_14
REMARK   13  A    between atoms: C_20  and  O_21
REMARK   14  A    between atoms: C_24  and  O_25
REMARK                            x       y       z     vdW  Elec       q    Type
REMARK                         _______ _______ _______ _____ _____    ______ ____
ROOT
ATOM      1  C   UNL     1      -3.184   2.299  -4.879  0.00  0.00    +0.000 C 
ATOM      2  C   UNL     1      -4.109   1.675  -4.131  0.00  0.00    +0.000 C 
ATOM      3  C   UNL     1      -5.562   1.898  -4.302  0.00  0.00    +0.000 C 
ATOM      4  O   UNL     1      -6.377   1.400  -3.529  0.00  0.00    +0.000 OA
ATOM      5  C   UNL     1      -6.004   2.681  -5.463  0.00  0.00    +0.000 A 
ATOM      6  C   UNL     1      -7.367   2.780  -5.775  0.00  0.00    +0.000 A 
ATOM      7  C   UNL     1      -7.784   3.480  -6.905  0.00  0.00    +0.000 A 
ATOM      8  C   UNL     1      -6.839   4.056  -7.754  0.00  0.00    +0.000 A 
ATOM      9  C   UNL     1      -5.486   3.954  -7.439  0.00  0.00    +0.000 A 
ATOM     10  C   UNL     1      -5.061   3.308  -6.280  0.00  0.00    +0.000 A 
ATOM     11  C   UNL     1      -3.635   3.320  -5.864  0.00  0.00    +0.000 C 
ATOM     12  O   UNL     1      -2.863   4.176  -6.262  0.00  0.00    +0.000 OA
ENDROOT
BRANCH   6  13
ATOM     13  O   UNL     1      -8.355   2.212  -5.016  0.00  0.00    +0.000 OA
ATOM     14  H   UNL     1      -8.133   1.730  -4.244  0.00  0.00    +0.000 HD
ENDBRANCH   6  13
BRANCH   9  15
ATOM     15  O   UNL     1      -4.563   4.469  -8.314  0.00  0.00    +0.000 OA
ATOM     16  H   UNL     1      -4.848   4.904  -9.094  0.00  0.00    +0.000 HD
ENDBRANCH   9  15
BRANCH   1  17
ATOM     17  C   UNL     1      -1.668   2.175  -4.747  0.00  0.00    +0.000 C 
BRANCH  17  18
ATOM     18  O   UNL     1      -1.095   1.951  -6.074  0.00  0.00    +0.000 OA
BRANCH  18  19
ATOM     19  C   UNL     1      -0.117   2.827  -6.458  0.00  0.00    +0.000 C 
ATOM     20  O   UNL     1       0.427   3.631  -5.710  0.00  0.00    +0.000 OA
BRANCH  19  21
ATOM     21  C   UNL     1       0.194   2.764  -7.945  0.00  0.00    +0.000 C 
BRANCH  21  22
ATOM     22  C   UNL     1       0.979   1.553  -8.448  0.00  0.00    +0.000 C 
BRANCH  22  23
ATOM     23  C   UNL     1       0.256   0.205  -8.410  0.00  0.00    +0.000 C 
BRANCH  23  25
ATOM     24  C   UNL     1      -1.702  -1.179  -9.206  0.00  0.00    +0.000 C 
ATOM     25  C   UNL     1      -1.005   0.171  -9.274  0.00  0.00    +0.000 C 
ENDBRANCH  23  25
ENDBRANCH  22  23
ENDBRANCH  21  22
ENDBRANCH  19  21
ENDBRANCH  18  19
ENDBRANCH  17  18
BRANCH  17  26
ATOM     26  C   UNL     1      -1.144   1.096  -3.754  0.00  0.00    +0.000 C 
BRANCH  26  27
ATOM     27  C   UNL     1      -1.568  -0.325  -4.055  0.00  0.00    +0.000 C 
ATOM     28  C   UNL     1      -1.871  -1.305  -3.175  0.00  0.00    +0.000 C 
ATOM     29  C   UNL     1      -2.224  -2.683  -3.671  0.00  0.00    +0.000 C 
ATOM     30  C   UNL     1      -1.850  -1.165  -1.676  0.00  0.00    +0.000 C 
ENDBRANCH  26  27
ENDBRANCH  17  26
ENDBRANCH   1  17
TORSDOF 11
