REMARK  Name = 
REMARK  5 active torsions:
REMARK  status: ('A' for Active; 'I' for Inactive)
REMARK    1  A    between atoms: C_1  and  C_2
REMARK    2  A    between atoms: C_2  and  C_3
REMARK    3  A    between atoms: C_7  and  C_8
REMARK    4  A    between atoms: C_11  and  N_12
REMARK    5  A    between atoms: C_22  and  C_23
REMARK                            x       y       z     vdW  Elec       q    Type
REMARK                         _______ _______ _______ _____ _____    ______ ____
ROOT
ATOM      1  C   UNL     1       1.116   2.137  -1.467  0.00  0.00    +0.000 C 
ATOM      2  O   UNL     1       0.551   1.152  -0.987  0.00  0.00    +0.000 OA
ATOM      3  N   UNL     1       2.477   2.440  -1.263  0.00  0.00    +0.000 N 
ATOM      4  N   UNL     1       2.940   3.677  -1.725  0.00  0.00    +0.000 NA
ATOM      5  C   UNL     1       3.695   4.365  -0.906  0.00  0.00    +0.000 C 
ATOM      6  C   UNL     1       3.969   3.932   0.491  0.00  0.00    +0.000 A 
ATOM      7  C   UNL     1       3.590   4.758   1.550  0.00  0.00    +0.000 A 
ATOM      8  C   UNL     1       3.687   4.219   2.812  0.00  0.00    +0.000 A 
ATOM      9  C   UNL     1       4.166   2.941   3.027  0.00  0.00    +0.000 A 
ATOM     10  C   UNL     1       4.597   2.130   2.006  0.00  0.00    +0.000 A 
ATOM     11  C   UNL     1       4.491   2.633   0.702  0.00  0.00    +0.000 A 
ATOM     12  C   UNL     1       4.803   1.788  -0.509  0.00  0.00    +0.000 C 
ATOM     13  C   UNL     1       3.501   1.351  -1.220  0.00  0.00    +0.000 C 
ATOM     14  C   UNL     1       3.056   0.002  -0.646  0.00  0.00    +0.000 C 
ATOM     15  O   UNL     1       4.105   2.595   4.344  0.00  0.00    +0.000 OA
ATOM     16  C   UNL     1       3.425   3.741   4.897  0.00  0.00    +0.000 C 
ATOM     17  O   UNL     1       3.285   4.828   3.960  0.00  0.00    +0.000 OA
ENDROOT
BRANCH   5  18
ATOM     18  C   UNL     1       4.343   5.618  -1.391  0.00  0.00    +0.000 A 
ATOM     19  C   UNL     1       3.693   6.415  -2.335  0.00  0.00    +0.000 A 
ATOM     20  C   UNL     1       4.345   7.530  -2.872  0.00  0.00    +0.000 A 
ATOM     21  C   UNL     1       5.665   7.825  -2.521  0.00  0.00    +0.000 A 
ATOM     22  C   UNL     1       6.275   7.076  -1.512  0.00  0.00    +0.000 A 
ATOM     23  C   UNL     1       5.630   5.965  -0.963  0.00  0.00    +0.000 A 
BRANCH  21  24
ATOM     24  N   UNL     1       6.289   8.977  -3.014  0.00  0.00    +0.000 N 
ATOM     25  H   UNL     1       5.857   9.504  -3.725  0.00  0.00    +0.000 HD
ATOM     26  H   UNL     1       7.158   9.261  -2.650  0.00  0.00    +0.000 HD
ENDBRANCH  21  24
ENDBRANCH   5  18
BRANCH   1  28
ATOM     27  C   UNL     1      -1.052   2.711  -2.693  0.00  0.00    +0.000 C 
ATOM     28  C   UNL     1       0.369   3.132  -2.345  0.00  0.00    +0.000 C 
ENDBRANCH   1  28
TORSDOF 3
