REMARK  Name = 
REMARK  5 active torsions:
REMARK  status: ('A' for Active; 'I' for Inactive)
REMARK    1  A    between atoms: C_1  and  C_2
REMARK    2  A    between atoms: C_10  and  C_11
REMARK    3  A    between atoms: C_14  and  N_15
REMARK    4  A    between atoms: C_20  and  C_22
REMARK    5  A    between atoms: C_22  and  C_23
REMARK                            x       y       z     vdW  Elec       q    Type
REMARK                         _______ _______ _______ _____ _____    ______ ____
ROOT
ATOM      1  C   UNL     1       1.784   2.461   1.153  0.00  0.00    +0.000 C 
ATOM      2  C   UNL     1       0.570   1.726   0.563  0.00  0.00    +0.000 C 
ATOM      3  C   UNL     1       0.315   2.430  -0.808  0.00  0.00    +0.000 C 
ATOM      4  C   UNL     1      -0.475   3.705  -0.565  0.00  0.00    +0.000 A 
ATOM      5  C   UNL     1       0.125   4.967  -0.517  0.00  0.00    +0.000 A 
ATOM      6  C   UNL     1      -0.629   6.011  -0.012  0.00  0.00    +0.000 A 
ATOM      7  C   UNL     1      -1.944   5.857   0.368  0.00  0.00    +0.000 A 
ATOM      8  C   UNL     1      -2.593   4.651   0.276  0.00  0.00    +0.000 A 
ATOM      9  C   UNL     1      -1.825   3.573  -0.171  0.00  0.00    +0.000 A 
ATOM     10  C   UNL     1      -2.394   2.208  -0.123  0.00  0.00    +0.000 C 
ATOM     11  N   UNL     1      -1.856   1.263   0.602  0.00  0.00    +0.000 NA
ATOM     12  N   UNL     1      -0.710   1.615   1.374  0.00  0.00    +0.000 N 
ATOM     13  C   UNL     1      -0.860   1.229   2.720  0.00  0.00    +0.000 C 
ATOM     14  O   UNL     1      -1.921   0.748   3.153  0.00  0.00    +0.000 OA
ATOM     15  O   UNL     1      -2.473   6.996   0.887  0.00  0.00    +0.000 OA
ATOM     16  C   UNL     1      -1.300   7.830   0.941  0.00  0.00    +0.000 C 
ATOM     17  O   UNL     1      -0.167   7.266   0.244  0.00  0.00    +0.000 OA
ENDROOT
BRANCH  10  18
ATOM     18  C   UNL     1      -3.617   1.963  -0.945  0.00  0.00    +0.000 A 
ATOM     19  C   UNL     1      -3.797   2.647  -2.156  0.00  0.00    +0.000 A 
ATOM     20  C   UNL     1      -4.996   2.535  -2.859  0.00  0.00    +0.000 A 
ATOM     21  C   UNL     1      -6.044   1.759  -2.363  0.00  0.00    +0.000 A 
ATOM     22  C   UNL     1      -5.815   0.991  -1.217  0.00  0.00    +0.000 A 
ATOM     23  C   UNL     1      -4.616   1.099  -0.499  0.00  0.00    +0.000 A 
BRANCH  21  24
ATOM     24  N   UNL     1      -7.209   1.600  -3.118  0.00  0.00    +0.000 N 
ATOM     25  H   UNL     1      -7.354   2.150  -3.922  0.00  0.00    +0.000 HD
ATOM     26  H   UNL     1      -7.886   0.938  -2.846  0.00  0.00    +0.000 HD
ENDBRANCH  21  24
ENDBRANCH  10  18
BRANCH  13  27
ATOM     27  C   UNL     1       0.238   1.492   3.739  0.00  0.00    +0.000 C 
BRANCH  27  28
ATOM     28  C   UNL     1       1.332   0.449   3.807  0.00  0.00    +0.000 A 
ATOM     29  C   UNL     1       2.637   0.819   4.174  0.00  0.00    +0.000 A 
ATOM     30  C   UNL     1       3.678  -0.110   4.136  0.00  0.00    +0.000 A 
ATOM     31  C   UNL     1       3.416  -1.431   3.784  0.00  0.00    +0.000 A 
ATOM     32  C   UNL     1       2.110  -1.829   3.503  0.00  0.00    +0.000 A 
ATOM     33  C   UNL     1       1.072  -0.897   3.524  0.00  0.00    +0.000 A 
ENDBRANCH  27  28
ENDBRANCH  13  27
TORSDOF 4
