REMARK  Name = 
REMARK  11 active torsions:
REMARK  status: ('A' for Active; 'I' for Inactive)
REMARK    1  A    between atoms: C_1  and  C_2
REMARK    2  A    between atoms: C_2  and  C_3
REMARK    3  A    between atoms: C_3  and  C_4
REMARK    4  A    between atoms: C_4  and  C_5
REMARK    5  A    between atoms: C_5  and  C_15
REMARK    6  A    between atoms: C_6  and  C_7
REMARK    7  A    between atoms: C_7  and  N_8
REMARK    8  A    between atoms: C_19  and  O_20
REMARK    9  A    between atoms: O_20  and  C_21
REMARK   10  A    between atoms: C_24  and  O_25
REMARK   11  A    between atoms: O_25  and  C_26
REMARK                            x       y       z     vdW  Elec       q    Type
REMARK                         _______ _______ _______ _____ _____    ______ ____
ROOT
ATOM      1  C   UNL     1      -1.063  -1.340   2.476  0.00  0.00    +0.000 C 
ATOM      2  C   UNL     1      -1.658  -1.882   3.564  0.00  0.00    +0.000 C 
ENDROOT
BRANCH   1   3
ATOM      3  C   UNL     1      -1.932  -0.785   1.389  0.00  0.00    +0.000 A 
ATOM      4  C   UNL     1      -1.564   0.392   0.722  0.00  0.00    +0.000 A 
ATOM      5  C   UNL     1      -2.459   1.074  -0.100  0.00  0.00    +0.000 A 
ATOM      6  C   UNL     1      -3.714   0.540  -0.345  0.00  0.00    +0.000 A 
ATOM      7  C   UNL     1      -4.017  -0.745   0.105  0.00  0.00    +0.000 A 
ATOM      8  C   UNL     1      -3.159  -1.377   1.018  0.00  0.00    +0.000 A 
BRANCH   7   9
ATOM      9  O   UNL     1      -5.146  -1.435  -0.295  0.00  0.00    +0.000 OA
BRANCH   9  10
ATOM     10  C   UNL     1      -5.646  -1.207  -1.566  0.00  0.00    +0.000 A 
ATOM     11  C   UNL     1      -4.853  -0.896  -2.677  0.00  0.00    +0.000 A 
ATOM     12  C   UNL     1      -5.440  -0.532  -3.894  0.00  0.00    +0.000 A 
ATOM     13  C   UNL     1      -6.826  -0.557  -4.034  0.00  0.00    +0.000 A 
ATOM     14  C   UNL     1      -7.611  -0.983  -2.958  0.00  0.00    +0.000 A 
ATOM     15  C   UNL     1      -7.027  -1.304  -1.726  0.00  0.00    +0.000 A 
BRANCH  13  16
ATOM     16  O   UNL     1      -7.523  -0.198  -5.155  0.00  0.00    +0.000 OA
ATOM     17  C   UNL     1      -6.771   0.340  -6.236  0.00  0.00    +0.000 C 
ENDBRANCH  13  16
ENDBRANCH   9  10
ENDBRANCH   7   9
ENDBRANCH   1   3
BRANCH   1  18
ATOM     18  C   UNL     1       0.449  -1.198   2.342  0.00  0.00    +0.000 C 
BRANCH  18  19
ATOM     19  C   UNL     1       1.017   0.094   2.959  0.00  0.00    +0.000 C 
BRANCH  19  21
ATOM     20  C   UNL     1       3.352  -0.783   3.506  0.00  0.00    +0.000 C 
ATOM     21  C   UNL     1       2.528   0.262   2.772  0.00  0.00    +0.000 C 
ENDBRANCH  19  21
ENDBRANCH  18  19
ENDBRANCH   1  18
BRANCH   2  22
ATOM     22  C   UNL     1      -1.013  -2.418   4.810  0.00  0.00    +0.000 C 
BRANCH  22  23
ATOM     23  N   UNL     1      -1.603  -1.758   5.968  0.00  0.00    +0.000 N 
ATOM     24  O   UNL     1      -1.353  -0.350   6.022  0.00  0.00    +0.000 OA
ATOM     25  C   UNL     1      -1.169  -0.018   7.340  0.00  0.00    +0.000 A 
ATOM     26  O   UNL     1      -0.889   1.094   7.754  0.00  0.00    +0.000 OA
ATOM     27  N   UNL     1      -1.280  -1.134   8.083  0.00  0.00    +0.000 N 
ATOM     28  C   UNL     1      -1.307  -2.203   7.256  0.00  0.00    +0.000 A 
ATOM     29  O   UNL     1      -1.035  -3.345   7.593  0.00  0.00    +0.000 OA
ATOM     30  H   UNL     1      -1.334  -1.167   9.066  0.00  0.00    +0.000 HD
ENDBRANCH  22  23
ENDBRANCH   2  22
TORSDOF 9
