REMARK  Name = 
REMARK  10 active torsions:
REMARK  status: ('A' for Active; 'I' for Inactive)
REMARK    1  A    between atoms: C_1  and  C_2
REMARK    2  A    between atoms: C_2  and  C_3
REMARK    3  A    between atoms: C_3  and  C_4
REMARK    4  A    between atoms: C_4  and  C_5
REMARK    5  A    between atoms: C_13  and  C_14
REMARK    6  A    between atoms: C_14  and  C_15
REMARK    7  A    between atoms: C_19  and  C_20
REMARK    8  A    between atoms: C_20  and  C_21
REMARK    9  A    between atoms: C_22  and  C_23
REMARK   10  A    between atoms: C_23  and  N_24
REMARK                            x       y       z     vdW  Elec       q    Type
REMARK                         _______ _______ _______ _____ _____    ______ ____
ROOT
ATOM      1  C   UNL     1      -0.918  -0.279   1.960  0.00  0.00    +0.000 A 
ATOM      2  C   UNL     1       0.480  -0.351   1.953  0.00  0.00    +0.000 A 
ATOM      3  C   UNL     1       1.200   0.051   3.078  0.00  0.00    +0.000 A 
ATOM      4  C   UNL     1       0.532   0.555   4.199  0.00  0.00    +0.000 A 
ATOM      5  C   UNL     1      -0.868   0.621   4.241  0.00  0.00    +0.000 A 
ATOM      6  C   UNL     1      -1.571   0.162   3.121  0.00  0.00    +0.000 A 
ENDROOT
BRANCH   5   7
ATOM      7  C   UNL     1      -1.600   1.254   5.368  0.00  0.00    +0.000 C 
ATOM      8  C   UNL     1      -2.887   1.987   5.062  0.00  0.00    +0.000 C 
ATOM      9  C   UNL     1      -1.113   1.192   6.629  0.00  0.00    +0.000 C 
BRANCH   9  10
ATOM     10  C   UNL     1      -1.707   1.822   7.855  0.00  0.00    +0.000 C 
BRANCH  10  11
ATOM     11  N   UNL     1      -0.768   2.810   8.350  0.00  0.00    +0.000 N 
ATOM     12  O   UNL     1      -0.618   3.956   7.499  0.00  0.00    +0.000 OA
ATOM     13  C   UNL     1      -0.406   5.036   8.314  0.00  0.00    +0.000 A 
ATOM     14  O   UNL     1      -0.255   6.184   7.933  0.00  0.00    +0.000 OA
ATOM     15  N   UNL     1      -0.449   4.627   9.591  0.00  0.00    +0.000 N 
ATOM     16  C   UNL     1      -0.884   3.348   9.629  0.00  0.00    +0.000 A 
ATOM     17  O   UNL     1      -1.358   2.799  10.612  0.00  0.00    +0.000 OA
ATOM     18  H   UNL     1      -0.202   5.170  10.374  0.00  0.00    +0.000 HD
ENDBRANCH  10  11
ENDBRANCH   9  10
ENDBRANCH   5   7
BRANCH   1  19
ATOM     19  C   UNL     1      -1.734  -0.442   0.705  0.00  0.00    +0.000 C 
BRANCH  19  28
ATOM     20  C   UNL     1      -2.577  -2.911   0.979  0.00  0.00    +0.000 A 
ATOM     21  O   UNL     1      -2.673  -3.991   0.146  0.00  0.00    +0.000 OA
ATOM     22  C   UNL     1      -2.013  -3.691  -1.001  0.00  0.00    +0.000 A 
ATOM     23  C   UNL     1      -1.887  -4.528  -2.107  0.00  0.00    +0.000 A 
ATOM     24  C   UNL     1      -1.121  -4.046  -3.174  0.00  0.00    +0.000 A 
ATOM     25  C   UNL     1      -0.523  -2.785  -3.120  0.00  0.00    +0.000 A 
ATOM     26  C   UNL     1      -0.699  -1.954  -2.006  0.00  0.00    +0.000 A 
ATOM     27  C   UNL     1      -1.469  -2.420  -0.920  0.00  0.00    +0.000 A 
ATOM     28  C   UNL     1      -1.907  -1.872   0.335  0.00  0.00    +0.000 A 
BRANCH  20  29
ATOM     29  C   UNL     1      -3.121  -3.151   2.347  0.00  0.00    +0.000 C 
BRANCH  29  30
ATOM     30  C   UNL     1      -4.562  -2.711   2.604  0.00  0.00    +0.000 C 
BRANCH  30  32
ATOM     31  C   UNL     1      -5.782  -4.878   1.899  0.00  0.00    +0.000 C 
ATOM     32  C   UNL     1      -5.676  -3.365   1.777  0.00  0.00    +0.000 C 
ENDBRANCH  30  32
ENDBRANCH  29  30
ENDBRANCH  20  29
ENDBRANCH  19  28
ENDBRANCH   1  19
TORSDOF 8
