REMARK  Name = 
REMARK  9 active torsions:
REMARK  status: ('A' for Active; 'I' for Inactive)
REMARK    1  A    between atoms: C_1  and  C_2
REMARK    2  A    between atoms: C_2  and  C_3
REMARK    3  A    between atoms: C_3  and  C_4
REMARK    4  A    between atoms: C_16  and  C_17
REMARK    5  A    between atoms: C_16  and  C_18
REMARK    6  A    between atoms: C_22  and  C_23
REMARK    7  A    between atoms: C_23  and  C_24
REMARK    8  A    between atoms: C_25  and  C_26
REMARK    9  A    between atoms: C_27  and  O_28
REMARK                            x       y       z     vdW  Elec       q    Type
REMARK                         _______ _______ _______ _____ _____    ______ ____
ROOT
ATOM      1  C   UNL     1       0.274   0.431  -1.724  0.00  0.00    +0.000 A 
ATOM      2  C   UNL     1      -0.235   0.147  -0.503  0.00  0.00    +0.000 A 
ATOM      3  C   UNL     1      -1.325  -0.804  -0.319  0.00  0.00    +0.000 A 
ATOM      4  O   UNL     1      -2.082  -0.756   0.637  0.00  0.00    +0.000 OA
ATOM      5  O   UNL     1      -1.478  -1.721  -1.331  0.00  0.00    +0.000 OA
ATOM      6  C   UNL     1      -0.368  -1.812  -2.153  0.00  0.00    +0.000 A 
ATOM      7  C   UNL     1       0.313  -3.007  -2.188  0.00  0.00    +0.000 A 
ATOM      8  C   UNL     1       1.136  -3.264  -3.256  0.00  0.00    +0.000 A 
ATOM      9  C   UNL     1       1.373  -2.230  -4.188  0.00  0.00    +0.000 A 
ATOM     10  C   UNL     1       1.022  -0.899  -3.866  0.00  0.00    +0.000 A 
ATOM     11  C   UNL     1       0.214  -0.675  -2.734  0.00  0.00    +0.000 A 
ATOM     12  O   UNL     1       1.446   0.169  -4.631  0.00  0.00    +0.000 OA
ATOM     13  C   UNL     1       2.310  -0.072  -5.777  0.00  0.00    +0.000 C 
ATOM     14  C   UNL     1       1.770   0.737  -6.967  0.00  0.00    +0.000 C 
ATOM     15  C   UNL     1       3.716   0.437  -5.426  0.00  0.00    +0.000 C 
ATOM     16  C   UNL     1       2.445  -1.510  -6.208  0.00  0.00    +0.000 C 
ATOM     17  C   UNL     1       2.045  -2.531  -5.444  0.00  0.00    +0.000 C 
ATOM     18  O   UNL     1       1.746  -4.464  -3.422  0.00  0.00    +0.000 OA
ATOM     19  C   UNL     1       1.872  -5.356  -2.300  0.00  0.00    +0.000 C 
ATOM     20  C   UNL     1       0.838  -5.215  -1.174  0.00  0.00    +0.000 C 
ATOM     21  C   UNL     1       1.294  -5.896   0.134  0.00  0.00    +0.000 C 
ATOM     22  C   UNL     1       0.527  -3.769  -0.900  0.00  0.00    +0.000 C 
ENDROOT
BRANCH  19  23
ATOM     23  C   UNL     1       1.760  -6.773  -2.876  0.00  0.00    +0.000 C 
ATOM     24  C   UNL     1       2.882  -7.133  -3.831  0.00  0.00    +0.000 C 
ENDBRANCH  19  23
BRANCH  22  25
ATOM     25  O   UNL     1      -0.562  -3.718   0.014  0.00  0.00    +0.000 OA
ATOM     26  H   UNL     1      -1.332  -4.162  -0.374  0.00  0.00    +0.000 HD
ENDBRANCH  22  25
BRANCH   1  27
ATOM     27  C   UNL     1       1.122   1.667  -1.824  0.00  0.00    +0.000 C 
BRANCH  27  29
ATOM     28  C   UNL     1       1.000   4.200  -2.017  0.00  0.00    +0.000 C 
ATOM     29  C   UNL     1       0.284   2.875  -2.262  0.00  0.00    +0.000 C 
ENDBRANCH  27  29
ENDBRANCH   1  27
TORSDOF 4
