REMARK  Name = 
REMARK  9 active torsions:
REMARK  status: ('A' for Active; 'I' for Inactive)
REMARK    1  A    between atoms: C_1  and  C_2
REMARK    2  A    between atoms: C_2  and  C_3
REMARK    3  A    between atoms: C_3  and  C_4
REMARK    4  A    between atoms: C_16  and  C_17
REMARK    5  A    between atoms: C_16  and  C_18
REMARK    6  A    between atoms: C_22  and  C_23
REMARK    7  A    between atoms: C_24  and  C_25
REMARK    8  A    between atoms: C_24  and  C_26
REMARK    9  A    between atoms: C_27  and  O_28
REMARK                            x       y       z     vdW  Elec       q    Type
REMARK                         _______ _______ _______ _____ _____    ______ ____
ROOT
ATOM      1  C   UNL     1       0.297  -0.761   1.509  0.00  0.00    +0.000 A 
ATOM      2  C   UNL     1      -0.422  -0.233   0.495  0.00  0.00    +0.000 A 
ATOM      3  C   UNL     1      -1.324   0.907   0.651  0.00  0.00    +0.000 A 
ATOM      4  O   UNL     1      -2.157   1.202  -0.184  0.00  0.00    +0.000 OA
ATOM      5  O   UNL     1      -1.156   1.621   1.808  0.00  0.00    +0.000 OA
ATOM      6  C   UNL     1      -0.015   1.330   2.558  0.00  0.00    +0.000 A 
ATOM      7  C   UNL     1       0.766   2.396   2.935  0.00  0.00    +0.000 A 
ATOM      8  C   UNL     1       1.588   2.248   4.031  0.00  0.00    +0.000 A 
ATOM      9  C   UNL     1       1.755   0.967   4.587  0.00  0.00    +0.000 A 
ATOM     10  C   UNL     1       1.281  -0.162   3.883  0.00  0.00    +0.000 A 
ATOM     11  C   UNL     1       0.443   0.036   2.762  0.00  0.00    +0.000 A 
ATOM     12  O   UNL     1       1.577  -1.448   4.286  0.00  0.00    +0.000 OA
ATOM     13  C   UNL     1       2.513  -1.644   5.382  0.00  0.00    +0.000 C 
ATOM     14  C   UNL     1       1.937  -2.728   6.309  0.00  0.00    +0.000 C 
ATOM     15  C   UNL     1       3.828  -2.151   4.774  0.00  0.00    +0.000 C 
ATOM     16  C   UNL     1       2.816  -0.431   6.216  0.00  0.00    +0.000 C 
ATOM     17  C   UNL     1       2.478   0.803   5.844  0.00  0.00    +0.000 C 
ATOM     18  O   UNL     1       2.208   3.339   4.583  0.00  0.00    +0.000 OA
ATOM     19  C   UNL     1       2.437   4.479   3.724  0.00  0.00    +0.000 C 
ATOM     20  C   UNL     1       2.743   5.651   4.654  0.00  0.00    +0.000 C 
ATOM     21  C   UNL     1       1.300   4.803   2.709  0.00  0.00    +0.000 C 
ATOM     22  C   UNL     1      -0.002   5.288   3.375  0.00  0.00    +0.000 C 
ATOM     23  C   UNL     1       1.748   5.852   1.670  0.00  0.00    +0.000 C 
ATOM     24  C   UNL     1       1.032   3.505   1.959  0.00  0.00    +0.000 C 
ENDROOT
BRANCH  24  25
ATOM     25  O   UNL     1       0.046   3.701   0.949  0.00  0.00    +0.000 OA
ATOM     26  H   UNL     1      -0.784   3.991   1.359  0.00  0.00    +0.000 HD
ENDBRANCH  24  25
BRANCH   1  27
ATOM     27  C   UNL     1       1.168  -1.936   1.178  0.00  0.00    +0.000 C 
BRANCH  27  29
ATOM     28  C   UNL     1       1.202  -4.424   0.799  0.00  0.00    +0.000 C 
ATOM     29  C   UNL     1       0.444  -3.258   1.418  0.00  0.00    +0.000 C 
ENDBRANCH  27  29
ENDBRANCH   1  27
TORSDOF 3
