REMARK  Name = 
REMARK  6 active torsions:
REMARK  status: ('A' for Active; 'I' for Inactive)
REMARK    1  A    between atoms: C_1  and  N_2
REMARK    2  A    between atoms: N_2  and  C_3
REMARK    3  A    between atoms: N_2  and  C_4
REMARK    4  A    between atoms: C_9  and  S_10
REMARK    5  A    between atoms: S_10  and  N_13
REMARK    6  A    between atoms: C_20  and  C_21
REMARK                            x       y       z     vdW  Elec       q    Type
REMARK                         _______ _______ _______ _____ _____    ______ ____
ROOT
ATOM      1  S   UNL     1       0.152  -6.789   3.091  0.00  0.00    +0.000 S 
ATOM      2  O   UNL     1      -0.798  -7.453   3.970  0.00  0.00    +0.000 OA
ATOM      3  O   UNL     1       0.489  -7.398   1.826  0.00  0.00    +0.000 OA
ENDROOT
BRANCH   1   9
ATOM      4  C   UNL     1       0.547  -1.836   1.249  0.00  0.00    +0.000 A 
ATOM      5  C   UNL     1       1.746  -2.265   0.643  0.00  0.00    +0.000 A 
ATOM      6  C   UNL     1       2.079  -3.603   0.534  0.00  0.00    +0.000 A 
ATOM      7  C   UNL     1       1.300  -4.549   1.168  0.00  0.00    +0.000 A 
ATOM      8  C   UNL     1       0.207  -4.193   1.979  0.00  0.00    +0.000 A 
ATOM      9  C   UNL     1      -0.479  -5.134   2.796  0.00  0.00    +0.000 A 
ATOM     10  C   UNL     1      -1.717  -4.807   3.367  0.00  0.00    +0.000 A 
ATOM     11  C   UNL     1      -2.256  -3.545   3.164  0.00  0.00    +0.000 A 
ATOM     12  C   UNL     1      -1.521  -2.577   2.476  0.00  0.00    +0.000 A 
ATOM     13  C   UNL     1      -0.247  -2.835   1.920  0.00  0.00    +0.000 A 
BRANCH   4  15
ATOM     14  C   UNL     1       0.702   0.240  -0.051  0.00  0.00    +0.000 C 
ATOM     15  N   UNL     1       0.142  -0.489   1.092  0.00  0.00    +0.000 N 
ATOM     16  C   UNL     1      -0.082   0.328   2.288  0.00  0.00    +0.000 C 
ENDBRANCH   4  15
ENDBRANCH   1   9
BRANCH   1  17
ATOM     17  N   UNL     1       1.542  -6.652   4.051  0.00  0.00    +0.000 N 
ATOM     18  C   UNL     1       2.766  -6.194   3.498  0.00  0.00    +0.000 A 
ATOM     19  N   UNL     1       3.478  -7.147   2.862  0.00  0.00    +0.000 NA
ATOM     20  C   UNL     1       4.733  -6.784   2.464  0.00  0.00    +0.000 A 
ATOM     21  C   UNL     1       5.267  -5.526   2.713  0.00  0.00    +0.000 A 
ATOM     22 BR   UNL     1       7.045  -5.133   2.200  0.00  0.00    +0.000 Br
ATOM     23  N   UNL     1       4.563  -4.573   3.359  0.00  0.00    +0.000 NA
ATOM     24  C   UNL     1       3.307  -4.931   3.758  0.00  0.00    +0.000 A 
ATOM     25  H   UNL     1       1.500  -6.894   5.005  0.00  0.00    +0.000 HD
BRANCH  24  26
ATOM     26  C   UNL     1       2.613  -3.958   4.541  0.00  0.00    +0.000 C 
ATOM     27  N   UNL     1       2.047  -3.182   5.196  0.00  0.00    +0.000 NA
ENDBRANCH  24  26
ENDBRANCH   1  17
TORSDOF 4
