REMARK  Name = 
REMARK  8 active torsions:
REMARK  status: ('A' for Active; 'I' for Inactive)
REMARK    1  A    between atoms: C_1  and  O_2
REMARK    2  A    between atoms: O_2  and  C_3
REMARK    3  A    between atoms: C_8  and  C_9
REMARK    4  A    between atoms: C_20  and  N_21
REMARK    5  A    between atoms: N_21  and  C_22
REMARK    6  A    between atoms: C_22  and  C_23
REMARK    7  A    between atoms: C_22  and  C_24
REMARK    8  A    between atoms: C_22  and  C_25
REMARK                            x       y       z     vdW  Elec       q    Type
REMARK                         _______ _______ _______ _____ _____    ______ ____
ROOT
ATOM      1  C   UNL     1       0.186   2.401  -7.760  0.00  0.00    +0.000 C 
ATOM      2  O   UNL     1      -0.874   3.010  -7.684  0.00  0.00    +0.000 OA
ATOM      3  N   UNL     1       1.312   2.975  -8.371  0.00  0.00    +0.000 N 
ATOM      4  C   UNL     1       2.609   2.312  -8.516  0.00  0.00    +0.000 C 
ATOM      5  C   UNL     1       3.805   3.277  -8.505  0.00  0.00    +0.000 C 
ATOM      6  N   UNL     1       3.632   4.447  -9.385  0.00  0.00    +0.000 N 
ATOM      7  C   UNL     1       4.560   4.636 -10.400  0.00  0.00    +0.000 A 
ATOM      8  N   UNL     1       5.222   3.504 -10.774  0.00  0.00    +0.000 NA
ATOM      9  C   UNL     1       6.157   3.555 -11.744  0.00  0.00    +0.000 A 
ATOM     10  C   UNL     1       6.437   4.686 -12.462  0.00  0.00    +0.000 A 
ATOM     11  C   UNL     1       5.749   5.838 -12.117  0.00  0.00    +0.000 A 
ATOM     12  C   UNL     1       4.900   5.889 -11.001  0.00  0.00    +0.000 A 
ATOM     13  C   UNL     1       2.338   5.126  -9.264  0.00  0.00    +0.000 C 
ATOM     14  C   UNL     1       1.130   4.153  -9.228  0.00  0.00    +0.000 C 
ENDROOT
BRANCH   1  20
ATOM     15  C   UNL     1       1.219  -2.943  -5.039  0.00  0.00    +0.000 A 
ATOM     16  C   UNL     1       0.492  -2.310  -4.029  0.00  0.00    +0.000 A 
ATOM     17  C   UNL     1      -0.072  -1.044  -4.226  0.00  0.00    +0.000 A 
ATOM     18  C   UNL     1       0.141  -0.425  -5.464  0.00  0.00    +0.000 A 
ATOM     19  N   UNL     1      -0.278   0.798  -5.935  0.00  0.00    +0.000 N 
ATOM     20  C   UNL     1       0.317   1.088  -7.146  0.00  0.00    +0.000 A 
ATOM     21  C   UNL     1       0.917  -0.091  -7.559  0.00  0.00    +0.000 A 
ATOM     22  C   UNL     1       0.881  -1.016  -6.483  0.00  0.00    +0.000 A 
ATOM     23  C   UNL     1       1.433  -2.297  -6.264  0.00  0.00    +0.000 A 
ATOM     24  H   UNL     1      -0.916   1.387  -5.471  0.00  0.00    +0.000 HD
BRANCH  15  26
ATOM     25  C   UNL     1       1.108  -5.089  -4.070  0.00  0.00    +0.000 C 
ATOM     26  O   UNL     1       1.802  -4.179  -4.918  0.00  0.00    +0.000 OA
ENDBRANCH  15  26
ENDBRANCH   1  20
BRANCH  12  27
ATOM     27  N   UNL     1       4.440   7.143 -10.559  0.00  0.00    +0.000 N 
ATOM     28  H   UNL     1       3.482   7.220 -10.343  0.00  0.00    +0.000 HD
BRANCH  27  29
ATOM     29  C   UNL     1       5.281   8.374 -10.389  0.00  0.00    +0.000 C 
ATOM     30  C   UNL     1       6.729   8.355 -10.910  0.00  0.00    +0.000 C 
ATOM     31  C   UNL     1       4.547   9.532 -11.092  0.00  0.00    +0.000 C 
ATOM     32  C   UNL     1       5.365   8.672  -8.880  0.00  0.00    +0.000 C 
ENDBRANCH  27  29
ENDBRANCH  12  27
TORSDOF 4
