REMARK  Name = 
REMARK  13 active torsions:
REMARK  status: ('A' for Active; 'I' for Inactive)
REMARK    1  A    between atoms: C_1  and  C_2
REMARK    2  A    between atoms: C_2  and  C_3
REMARK    3  A    between atoms: C_3  and  C_4
REMARK    4  A    between atoms: C_4  and  C_5
REMARK    5  A    between atoms: C_5  and  O_7
REMARK    6  A    between atoms: O_7  and  C_8
REMARK    7  A    between atoms: C_8  and  C_9
REMARK    8  A    between atoms: C_8  and  C_14
REMARK    9  A    between atoms: C_9  and  C_10
REMARK   10  A    between atoms: C_11  and  C_12
REMARK   11  A    between atoms: C_11  and  C_13
REMARK   12  A    between atoms: C_19  and  O_20
REMARK   13  A    between atoms: C_23  and  O_24
REMARK                            x       y       z     vdW  Elec       q    Type
REMARK                         _______ _______ _______ _____ _____    ______ ____
ROOT
ATOM      1  C   UNL     1      -4.679  -1.182   1.517  0.00  0.00    +0.000 C 
ATOM      2  C   UNL     1      -5.865  -1.717   1.843  0.00  0.00    +0.000 C 
ATOM      3  C   UNL     1      -6.775  -1.120   2.864  0.00  0.00    +0.000 C 
ATOM      4  O   UNL     1      -7.846  -1.637   3.137  0.00  0.00    +0.000 OA
ATOM      5  C   UNL     1      -6.405   0.188   3.440  0.00  0.00    +0.000 A 
ATOM      6  C   UNL     1      -7.357   0.999   4.090  0.00  0.00    +0.000 A 
ATOM      7  C   UNL     1      -7.007   2.245   4.608  0.00  0.00    +0.000 A 
ATOM      8  C   UNL     1      -5.685   2.666   4.552  0.00  0.00    +0.000 A 
ATOM      9  C   UNL     1      -4.734   1.862   3.920  0.00  0.00    +0.000 A 
ATOM     10  C   UNL     1      -5.100   0.648   3.301  0.00  0.00    +0.000 A 
ATOM     11  C   UNL     1      -4.166  -0.075   2.405  0.00  0.00    +0.000 C 
ATOM     12  O   UNL     1      -2.989   0.262   2.349  0.00  0.00    +0.000 OA
ENDROOT
BRANCH   6  13
ATOM     13  O   UNL     1      -8.673   0.648   4.229  0.00  0.00    +0.000 OA
ATOM     14  H   UNL     1      -8.975  -0.177   3.902  0.00  0.00    +0.000 HD
ENDBRANCH   6  13
BRANCH   9  15
ATOM     15  O   UNL     1      -3.435   2.288   3.914  0.00  0.00    +0.000 OA
ATOM     16  H   UNL     1      -3.205   3.097   4.329  0.00  0.00    +0.000 HD
ENDBRANCH   9  15
BRANCH   1  17
ATOM     17  C   UNL     1      -3.854  -1.487   0.231  0.00  0.00    +0.000 C 
BRANCH  17  18
ATOM     18  O   UNL     1      -4.382  -2.551  -0.643  0.00  0.00    +0.000 OA
BRANCH  18  19
ATOM     19  C   UNL     1      -4.150  -3.852  -0.322  0.00  0.00    +0.000 C 
ATOM     20  O   UNL     1      -3.850  -4.209   0.811  0.00  0.00    +0.000 OA
BRANCH  19  21
ATOM     21  C   UNL     1      -4.136  -4.822  -1.509  0.00  0.00    +0.000 C 
BRANCH  21  22
ATOM     22  C   UNL     1      -5.172  -4.817  -2.653  0.00  0.00    +0.000 C 
BRANCH  22  24
ATOM     23  C   UNL     1      -5.816  -3.946  -4.978  0.00  0.00    +0.000 C 
ATOM     24  C   UNL     1      -4.947  -3.752  -3.730  0.00  0.00    +0.000 C 
ENDBRANCH  22  24
ENDBRANCH  21  22
ENDBRANCH  19  21
ENDBRANCH  18  19
ENDBRANCH  17  18
BRANCH  17  25
ATOM     25  C   UNL     1      -2.295  -1.551   0.341  0.00  0.00    +0.000 C 
BRANCH  25  26
ATOM     26  C   UNL     1      -1.425  -1.739  -0.885  0.00  0.00    +0.000 C 
ATOM     27  C   UNL     1      -1.563  -1.376  -2.176  0.00  0.00    +0.000 C 
ATOM     28  C   UNL     1      -0.496  -1.766  -3.170  0.00  0.00    +0.000 C 
ATOM     29  C   UNL     1      -2.689  -0.566  -2.752  0.00  0.00    +0.000 C 
ENDBRANCH  25  26
ENDBRANCH  17  25
ENDBRANCH   1  17
TORSDOF 10
