REMARK  Name = 
REMARK  13 active torsions:
REMARK  status: ('A' for Active; 'I' for Inactive)
REMARK    1  A    between atoms: C_1  and  C_2
REMARK    2  A    between atoms: C_2  and  C_3
REMARK    3  A    between atoms: C_3  and  C_4
REMARK    4  A    between atoms: C_4  and  N_5
REMARK    5  A    between atoms: N_5  and  C_6
REMARK    6  A    between atoms: N_5  and  C_10
REMARK    7  A    between atoms: C_6  and  C_7
REMARK    8  A    between atoms: C_7  and  C_8
REMARK    9  A    between atoms: C_8  and  C_9
REMARK   10  A    between atoms: C_10  and  C_11
REMARK   11  A    between atoms: C_11  and  N_12
REMARK   12  A    between atoms: N_12  and  C_13
REMARK   13  A    between atoms: C_23  and  O_24
REMARK                            x       y       z     vdW  Elec       q    Type
REMARK                         _______ _______ _______ _____ _____    ______ ____
ROOT
ATOM      1  C   UNL     1      -1.751  -0.684  -2.395  0.00  0.00    +0.000 A 
ATOM      2  C   UNL     1      -2.085   0.329  -3.321  0.00  0.00    +0.000 A 
ATOM      3  C   UNL     1      -3.215   0.268  -4.176  0.00  0.00    +0.000 A 
ATOM      4  C   UNL     1      -4.083  -0.809  -4.018  0.00  0.00    +0.000 A 
ATOM      5  N   UNL     1      -5.310  -1.115  -4.568  0.00  0.00    +0.000 NA
ATOM      6  C   UNL     1      -5.700  -2.220  -3.956  0.00  0.00    +0.000 A 
ATOM      7  N   UNL     1      -4.771  -2.641  -3.045  0.00  0.00    +0.000 N 
ATOM      8  C   UNL     1      -4.730  -3.694  -2.139  0.00  0.00    +0.000 A 
ATOM      9  C   UNL     1      -5.884  -4.400  -1.813  0.00  0.00    +0.000 A 
ATOM     10  C   UNL     1      -5.731  -5.628  -1.211  0.00  0.00    +0.000 A 
ATOM     11  C   UNL     1      -4.451  -6.166  -1.159  0.00  0.00    +0.000 A 
ATOM     12  C   UNL     1      -3.306  -5.378  -1.193  0.00  0.00    +0.000 A 
ATOM     13  C   UNL     1      -3.459  -4.078  -1.639  0.00  0.00    +0.000 A 
ATOM     14  C   UNL     1      -2.304  -3.105  -1.664  0.00  0.00    +0.000 A 
ATOM     15  O   UNL     1      -1.259  -3.345  -1.083  0.00  0.00    +0.000 OA
ATOM     16  C   UNL     1      -2.526  -1.833  -2.427  0.00  0.00    +0.000 A 
ATOM     17  C   UNL     1      -3.713  -1.794  -3.147  0.00  0.00    +0.000 A 
ENDROOT
BRANCH   1  18
ATOM     18  N   UNL     1      -0.695  -0.558  -1.504  0.00  0.00    +0.000 N 
ATOM     19  H   UNL     1      -0.170  -1.359  -1.278  0.00  0.00    +0.000 HD
BRANCH  18  20
ATOM     20  C   UNL     1      -0.330   0.723  -0.884  0.00  0.00    +0.000 C 
BRANCH  20  21
ATOM     21  C   UNL     1      -1.339   1.232   0.188  0.00  0.00    +0.000 C 
BRANCH  21  22
ATOM     22  N   UNL     1      -0.974   2.563   0.742  0.00  0.00    +0.000 N 
ATOM     23  H   UNL     1       0.041   2.575   0.844  0.00  0.00    +0.000 HD
BRANCH  22  24
ATOM     24  C   UNL     1      -1.277   3.653  -0.201  0.00  0.00    +0.000 C 
BRANCH  24  25
ATOM     25  C   UNL     1      -0.695   5.050   0.099  0.00  0.00    +0.000 C 
BRANCH  25  27
ATOM     26  C   UNL     1       1.615   4.855  -1.042  0.00  0.00    +0.000 C 
ATOM     27  C   UNL     1       0.830   5.169   0.225  0.00  0.00    +0.000 C 
ENDBRANCH  25  27
ENDBRANCH  24  25
ENDBRANCH  22  24
BRANCH  22  28
ATOM     28  C   UNL     1      -1.447   2.780   2.124  0.00  0.00    +0.000 C 
BRANCH  28  29
ATOM     29  C   UNL     1      -2.907   3.173   2.432  0.00  0.00    +0.000 C 
BRANCH  29  30
ATOM     30  C   UNL     1      -4.021   2.188   2.100  0.00  0.00    +0.000 C 
ATOM     31  C   UNL     1      -3.972   0.873   2.868  0.00  0.00    +0.000 C 
ENDBRANCH  29  30
ENDBRANCH  28  29
ENDBRANCH  22  28
ENDBRANCH  21  22
ENDBRANCH  20  21
ENDBRANCH  18  20
ENDBRANCH   1  18
BRANCH  11  32
ATOM     32  O   UNL     1      -4.339  -7.481  -1.523  0.00  0.00    +0.000 OA
ATOM     33  H   UNL     1      -5.093  -8.036  -1.510  0.00  0.00    +0.000 HD
ENDBRANCH  11  32
TORSDOF 11
