REMARK  Name = 
REMARK  9 active torsions:
REMARK  status: ('A' for Active; 'I' for Inactive)
REMARK    1  A    between atoms: C_1  and  C_2
REMARK    2  A    between atoms: C_2  and  C_3
REMARK    3  A    between atoms: C_3  and  C_4
REMARK    4  A    between atoms: C_16  and  C_17
REMARK    5  A    between atoms: C_16  and  C_18
REMARK    6  A    between atoms: C_22  and  C_23
REMARK    7  A    between atoms: C_23  and  C_24
REMARK    8  A    between atoms: C_25  and  C_26
REMARK    9  A    between atoms: C_27  and  O_28
REMARK                            x       y       z     vdW  Elec       q    Type
REMARK                         _______ _______ _______ _____ _____    ______ ____
ROOT
ATOM      1  C   UNL     1       0.217  -0.441   1.679  0.00  0.00    +0.000 A 
ATOM      2  C   UNL     1      -0.452  -0.129   0.546  0.00  0.00    +0.000 A 
ATOM      3  C   UNL     1      -1.227   1.103   0.360  0.00  0.00    +0.000 A 
ATOM      4  O   UNL     1      -1.853   1.337  -0.660  0.00  0.00    +0.000 OA
ATOM      5  O   UNL     1      -1.182   1.968   1.413  0.00  0.00    +0.000 OA
ATOM      6  C   UNL     1      -0.102   1.816   2.278  0.00  0.00    +0.000 A 
ATOM      7  C   UNL     1       0.681   2.933   2.455  0.00  0.00    +0.000 A 
ATOM      8  C   UNL     1       1.473   3.030   3.574  0.00  0.00    +0.000 A 
ATOM      9  C   UNL     1       1.600   1.899   4.390  0.00  0.00    +0.000 A 
ATOM     10  C   UNL     1       1.146   0.639   3.911  0.00  0.00    +0.000 A 
ATOM     11  C   UNL     1       0.353   0.597   2.742  0.00  0.00    +0.000 A 
ATOM     12  O   UNL     1       1.450  -0.532   4.576  0.00  0.00    +0.000 OA
ATOM     13  C   UNL     1       2.363  -0.483   5.713  0.00  0.00    +0.000 C 
ATOM     14  C   UNL     1       1.821  -1.416   6.809  0.00  0.00    +0.000 C 
ATOM     15  C   UNL     1       3.727  -1.009   5.246  0.00  0.00    +0.000 C 
ATOM     16  C   UNL     1       2.575   0.879   6.321  0.00  0.00    +0.000 C 
ATOM     17  C   UNL     1       2.247   2.008   5.687  0.00  0.00    +0.000 C 
ATOM     18  O   UNL     1       2.127   4.194   3.863  0.00  0.00    +0.000 OA
ATOM     19  C   UNL     1       2.250   5.209   2.832  0.00  0.00    +0.000 C 
ATOM     20  C   UNL     1       1.196   5.192   1.704  0.00  0.00    +0.000 C 
ATOM     21  C   UNL     1       1.595   6.046   0.490  0.00  0.00    +0.000 C 
ATOM     22  C   UNL     1       0.962   3.784   1.249  0.00  0.00    +0.000 C 
ENDROOT
BRANCH  19  23
ATOM     23  C   UNL     1       2.151   6.572   3.531  0.00  0.00    +0.000 C 
ATOM     24  C   UNL     1       3.264   6.817   4.532  0.00  0.00    +0.000 C 
ENDBRANCH  19  23
BRANCH  22  25
ATOM     25  O   UNL     1       2.119   3.259   0.582  0.00  0.00    +0.000 OA
ATOM     26  H   UNL     1       2.873   3.262   1.192  0.00  0.00    +0.000 HD
ENDBRANCH  22  25
BRANCH   1  27
ATOM     27  C   UNL     1       1.068  -1.678   1.635  0.00  0.00    +0.000 C 
BRANCH  27  29
ATOM     28  C   UNL     1       1.076  -4.183   1.776  0.00  0.00    +0.000 C 
ATOM     29  C   UNL     1       0.321  -2.908   2.132  0.00  0.00    +0.000 C 
ENDBRANCH  27  29
ENDBRANCH   1  27
TORSDOF 4
