REMARK  Name = 
REMARK  7 active torsions:
REMARK  status: ('A' for Active; 'I' for Inactive)
REMARK    1  A    between atoms: C_1  and  C_2
REMARK    2  A    between atoms: C_2  and  C_3
REMARK    3  A    between atoms: C_3  and  C_4
REMARK    4  A    between atoms: C_4  and  C_5
REMARK    5  A    between atoms: C_9  and  C_10
REMARK    6  A    between atoms: C_13  and  N_14
REMARK    7  A    between atoms: C_24  and  C_25
REMARK                            x       y       z     vdW  Elec       q    Type
REMARK                         _______ _______ _______ _____ _____    ______ ____
ROOT
ATOM      1  C   UNL     1      -0.973  -2.420   1.635  0.00  0.00    +0.000 C 
ATOM      2  O   UNL     1      -0.035  -2.955   1.048  0.00  0.00    +0.000 OA
ATOM      3  N   UNL     1      -1.714  -1.355   1.105  0.00  0.00    +0.000 N 
ATOM      4  N   UNL     1      -2.651  -0.659   1.862  0.00  0.00    +0.000 NA
ATOM      5  C   UNL     1      -2.293   0.570   2.128  0.00  0.00    +0.000 C 
ATOM      6  C   UNL     1      -0.868   0.991   2.096  0.00  0.00    +0.000 A 
ATOM      7  C   UNL     1      -0.265   1.247   3.333  0.00  0.00    +0.000 A 
ATOM      8  C   UNL     1       1.070   1.560   3.316  0.00  0.00    +0.000 A 
ATOM      9  C   UNL     1       1.762   1.714   2.134  0.00  0.00    +0.000 A 
ATOM     10  C   UNL     1       1.179   1.491   0.902  0.00  0.00    +0.000 A 
ATOM     11  C   UNL     1      -0.141   1.016   0.883  0.00  0.00    +0.000 A 
ATOM     12  C   UNL     1      -0.745   0.492  -0.399  0.00  0.00    +0.000 C 
ATOM     13  C   UNL     1      -1.575  -0.821  -0.277  0.00  0.00    +0.000 C 
ATOM     14  C   UNL     1      -1.245  -1.868  -1.340  0.00  0.00    +0.000 C 
ATOM     15  O   UNL     1       3.072   2.017   2.353  0.00  0.00    +0.000 OA
ATOM     16  C   UNL     1       3.157   1.750   3.769  0.00  0.00    +0.000 C 
ATOM     17  O   UNL     1       1.865   1.706   4.407  0.00  0.00    +0.000 OA
ENDROOT
BRANCH   5  18
ATOM     18  C   UNL     1      -3.310   1.617   2.448  0.00  0.00    +0.000 A 
ATOM     19  C   UNL     1      -4.519   1.280   3.054  0.00  0.00    +0.000 A 
ATOM     20  C   UNL     1      -5.498   2.261   3.252  0.00  0.00    +0.000 A 
ATOM     21  C   UNL     1      -5.321   3.566   2.780  0.00  0.00    +0.000 A 
ATOM     22  C   UNL     1      -4.082   3.911   2.221  0.00  0.00    +0.000 A 
ATOM     23  C   UNL     1      -3.094   2.941   2.035  0.00  0.00    +0.000 A 
BRANCH  21  24
ATOM     24  N   UNL     1      -6.262   4.563   3.056  0.00  0.00    +0.000 N 
ATOM     25  H   UNL     1      -7.132   4.323   3.449  0.00  0.00    +0.000 HD
ATOM     26  H   UNL     1      -6.053   5.504   2.859  0.00  0.00    +0.000 HD
ENDBRANCH  21  24
ENDBRANCH   5  18
BRANCH   1  27
ATOM     27  C   UNL     1      -1.403  -2.872   3.036  0.00  0.00    +0.000 C 
BRANCH  27  28
ATOM     28  C   UNL     1      -0.892  -4.224   3.559  0.00  0.00    +0.000 C 
BRANCH  28  30
ATOM     29  C   UNL     1       1.627  -4.417   3.035  0.00  0.00    +0.000 C 
ATOM     30  C   UNL     1       0.542  -4.329   4.095  0.00  0.00    +0.000 C 
ENDBRANCH  28  30
ENDBRANCH  27  28
ENDBRANCH   1  27
TORSDOF 5
