REMARK  Name = 
REMARK  4 active torsions:
REMARK  status: ('A' for Active; 'I' for Inactive)
REMARK    1  A    between atoms: C_4  and  C_5
REMARK    2  A    between atoms: C_14  and  C_15
REMARK    3  A    between atoms: C_21  and  O_22
REMARK    4  A    between atoms: C_24  and  O_25
REMARK                            x       y       z     vdW  Elec       q    Type
REMARK                         _______ _______ _______ _____ _____    ______ ____
ROOT
ATOM      1  O   UNL     1      -2.397   1.626  -0.000  0.00  0.00    +0.000 OA
ATOM      2  C   UNL     1      -1.876   0.515  -0.017  0.00  0.00    +0.000 A 
ATOM      3  C   UNL     1      -2.750  -0.660  -0.067  0.00  0.00    +0.000 A 
ATOM      4  C   UNL     1      -2.194  -1.871  -0.029  0.00  0.00    +0.000 A 
ATOM      5  O   UNL     1      -0.846  -2.096   0.097  0.00  0.00    +0.000 OA
ATOM      6  C   UNL     1       0.044  -1.041   0.032  0.00  0.00    +0.000 A 
ATOM      7  C   UNL     1       1.432  -1.357   0.027  0.00  0.00    +0.000 A 
ATOM      8  C   UNL     1       2.327  -0.260  -0.010  0.00  0.00    +0.000 A 
ATOM      9  C   UNL     1       1.883   1.064  -0.014  0.00  0.00    +0.000 A 
ATOM     10  C   UNL     1       0.518   1.330  -0.012  0.00  0.00    +0.000 A 
ATOM     11  C   UNL     1      -0.412   0.284  -0.000  0.00  0.00    +0.000 A 
ENDROOT
BRANCH   4  12
ATOM     12  C   UNL     1      -3.011  -3.092  -0.074  0.00  0.00    +0.000 A 
ATOM     13  C   UNL     1      -3.440  -3.651   1.140  0.00  0.00    +0.000 A 
ATOM     14  C   UNL     1      -4.223  -4.808   1.157  0.00  0.00    +0.000 A 
ATOM     15  C   UNL     1      -4.591  -5.420  -0.039  0.00  0.00    +0.000 A 
ATOM     16  C   UNL     1      -4.173  -4.879  -1.254  0.00  0.00    +0.000 A 
ATOM     17  C   UNL     1      -3.381  -3.724  -1.275  0.00  0.00    +0.000 A 
ATOM     18 CL   UNL     1      -2.877  -3.123  -2.815  0.00  0.00    +0.000 Cl
ENDBRANCH   4  12
BRANCH   7  19
ATOM     19  C   UNL     1       1.921  -2.770   0.058  0.00  0.00    +0.000 A 
ATOM     20  C   UNL     1       1.212  -3.821  -0.543  0.00  0.00    +0.000 A 
ATOM     21  C   UNL     1       1.686  -5.115  -0.464  0.00  0.00    +0.000 A 
ATOM     22  N   UNL     1       2.846  -5.455   0.129  0.00  0.00    +0.000 NA
ATOM     23  C   UNL     1       3.548  -4.447   0.685  0.00  0.00    +0.000 A 
ATOM     24  C   UNL     1       3.120  -3.126   0.693  0.00  0.00    +0.000 A 
ENDBRANCH   7  19
BRANCH   8  25
ATOM     25  O   UNL     1       3.681  -0.477  -0.067  0.00  0.00    +0.000 OA
ATOM     26  H   UNL     1       4.015  -1.353  -0.067  0.00  0.00    +0.000 HD
ENDBRANCH   8  25
BRANCH  10  27
ATOM     27  O   UNL     1       0.112   2.634  -0.027  0.00  0.00    +0.000 OA
ATOM     28  H   UNL     1       0.747   3.323  -0.034  0.00  0.00    +0.000 HD
ENDBRANCH  10  27
TORSDOF 4
