REMARK  Name = 
REMARK  6 active torsions:
REMARK  status: ('A' for Active; 'I' for Inactive)
REMARK    1  A    between atoms: C_1  and  C_2
REMARK    2  A    between atoms: N_9  and  S_10
REMARK    3  A    between atoms: S_10  and  C_13
REMARK    4  A    between atoms: C_18  and  N_19
REMARK    5  A    between atoms: N_19  and  C_20
REMARK    6  A    between atoms: N_19  and  C_21
REMARK                            x       y       z     vdW  Elec       q    Type
REMARK                         _______ _______ _______ _____ _____    ______ ____
ROOT
ATOM      1  S   UNL     1       1.082  -4.459   0.814  0.00  0.00    +0.000 S 
ATOM      2  O   UNL     1       2.063  -5.384   0.280  0.00  0.00    +0.000 OA
ATOM      3  O   UNL     1       1.298  -3.031   0.698  0.00  0.00    +0.000 OA
ENDROOT
BRANCH   1  12
ATOM      4  C   UNL     1      -0.948  -2.303  -1.570  0.00  0.00    +0.000 C 
ATOM      5  C   UNL     1      -1.727  -2.797  -0.387  0.00  0.00    +0.000 A 
ATOM      6  C   UNL     1      -2.774  -2.020   0.125  0.00  0.00    +0.000 A 
ATOM      7  C   UNL     1      -3.460  -2.472   1.228  0.00  0.00    +0.000 A 
ATOM      8 CL   UNL     1      -4.754  -1.602   1.921  0.00  0.00    +0.000 Cl
ATOM      9  N   UNL     1      -3.162  -3.633   1.848  0.00  0.00    +0.000 NA
ATOM     10  N   UNL     1      -2.123  -4.370   1.379  0.00  0.00    +0.000 NA
ATOM     11  C   UNL     1      -1.432  -3.973   0.295  0.00  0.00    +0.000 A 
ATOM     12  N   UNL     1      -0.347  -4.817   0.008  0.00  0.00    +0.000 N 
ATOM     13  H   UNL     1      -0.420  -5.569  -0.623  0.00  0.00    +0.000 HD
ENDBRANCH   1  12
BRANCH   1  14
ATOM     14  C   UNL     1       0.870  -4.843   2.532  0.00  0.00    +0.000 A 
ATOM     15  C   UNL     1       1.311  -3.885   3.457  0.00  0.00    +0.000 A 
ATOM     16  C   UNL     1       1.670  -4.295   4.732  0.00  0.00    +0.000 A 
ATOM     17  C   UNL     1       1.834  -5.663   4.986  0.00  0.00    +0.000 A 
ATOM     18  C   UNL     1       1.463  -6.623   4.028  0.00  0.00    +0.000 A 
ATOM     19  C   UNL     1       1.411  -7.992   4.311  0.00  0.00    +0.000 A 
ATOM     20  C   UNL     1       0.122  -8.424   4.541  0.00  0.00    +0.000 A 
ATOM     21  C   UNL     1      -0.866  -7.859   3.742  0.00  0.00    +0.000 A 
ATOM     22  C   UNL     1      -0.524  -6.851   2.819  0.00  0.00    +0.000 A 
ATOM     23  C   UNL     1       0.677  -6.163   2.981  0.00  0.00    +0.000 A 
BRANCH  19  24
ATOM     24  N   UNL     1       2.387  -8.898   3.900  0.00  0.00    +0.000 N 
ATOM     25  C   UNL     1       3.450  -8.515   2.969  0.00  0.00    +0.000 C 
ATOM     26  C   UNL     1       2.319 -10.312   4.247  0.00  0.00    +0.000 C 
ENDBRANCH  19  24
ENDBRANCH   1  14
TORSDOF 3
