REMARK  Name = 
REMARK  18 active torsions:
REMARK  status: ('A' for Active; 'I' for Inactive)
REMARK    1  A    between atoms: C_1  and  C_2
REMARK    2  A    between atoms: C_2  and  C_3
REMARK    3  A    between atoms: C_3  and  C_4
REMARK    4  A    between atoms: C_4  and  C_5
REMARK    5  A    between atoms: C_5  and  C_6
REMARK    6  A    between atoms: C_5  and  O_7
REMARK    7  A    between atoms: C_5  and  C_8
REMARK    8  A    between atoms: C_8  and  C_9
REMARK    9  A    between atoms: C_10  and  C_11
REMARK   10  A    between atoms: C_12  and  O_13
REMARK   11  A    between atoms: C_17  and  C_18
REMARK   12  A    between atoms: C_18  and  C_19
REMARK   13  A    between atoms: C_19  and  C_20
REMARK   14  A    between atoms: C_21  and  C_22
REMARK   15  A    between atoms: C_22  and  C_23
REMARK   16  A    between atoms: C_23  and  C_24
REMARK   17  A    between atoms: C_24  and  O_26
REMARK   18  A    between atoms: O_26  and  C_27
REMARK                            x       y       z     vdW  Elec       q    Type
REMARK                         _______ _______ _______ _____ _____    ______ ____
ROOT
ATOM      1  C   UNL     1       0.430  -1.030   2.574  0.00  0.00    +0.000 C 
ATOM      2  C   UNL     1       0.325  -2.498   3.056  0.00  0.00    +0.000 C 
ATOM      3  C   UNL     1      -0.186  -2.477   4.491  0.00  0.00    +0.000 C 
ATOM      4  C   UNL     1      -0.524  -1.030   4.710  0.00  0.00    +0.000 C 
ATOM      5  O   UNL     1      -0.786  -0.567   5.804  0.00  0.00    +0.000 OA
ATOM      6  C   UNL     1      -0.572  -0.232   3.434  0.00  0.00    +0.000 C 
ENDROOT
BRANCH   1   8
ATOM      7  C   UNL     1       2.781  -0.678   1.801  0.00  0.00    +0.000 C 
ATOM      8  C   UNL     1       1.868  -0.576   2.781  0.00  0.00    +0.000 C 
BRANCH   7   9
ATOM      9  C   UNL     1       4.272  -0.585   2.010  0.00  0.00    +0.000 C 
BRANCH   9  10
ATOM     10  C   UNL     1       5.012  -1.894   1.591  0.00  0.00    +0.000 C 
ATOM     11  C   UNL     1       4.479  -3.137   2.326  0.00  0.00    +0.000 C 
BRANCH  10  12
ATOM     12  O   UNL     1       4.804  -2.061   0.181  0.00  0.00    +0.000 OA
ATOM     13  H   UNL     1       3.857  -2.176   0.006  0.00  0.00    +0.000 HD
ENDBRANCH  10  12
BRANCH  10  14
ATOM     14  C   UNL     1       6.529  -1.711   1.856  0.00  0.00    +0.000 C 
BRANCH  14  15
ATOM     15  C   UNL     1       7.409  -2.897   1.427  0.00  0.00    +0.000 C 
BRANCH  15  17
ATOM     16  C   UNL     1       9.767  -3.819   1.278  0.00  0.00    +0.000 C 
ATOM     17  C   UNL     1       8.896  -2.645   1.707  0.00  0.00    +0.000 C 
ENDBRANCH  15  17
ENDBRANCH  14  15
ENDBRANCH  10  14
ENDBRANCH   9  10
ENDBRANCH   7   9
ENDBRANCH   1   8
BRANCH   2  18
ATOM     18  O   UNL     1      -0.511  -3.264   2.193  0.00  0.00    +0.000 OA
ATOM     19  H   UNL     1      -1.400  -2.877   2.177  0.00  0.00    +0.000 HD
ENDBRANCH   2  18
BRANCH   6  20
ATOM     20  C   UNL     1      -2.022  -0.210   2.882  0.00  0.00    +0.000 C 
BRANCH  20  21
ATOM     21  C   UNL     1      -3.078   0.488   3.784  0.00  0.00    +0.000 C 
BRANCH  21  22
ATOM     22  C   UNL     1      -2.756   1.939   4.010  0.00  0.00    +0.000 C 
ATOM     23  C   UNL     1      -3.558   2.966   4.328  0.00  0.00    +0.000 C 
BRANCH  23  24
ATOM     24  C   UNL     1      -4.988   2.948   4.781  0.00  0.00    +0.000 C 
BRANCH  24  25
ATOM     25  C   UNL     1      -4.964   3.008   6.313  0.00  0.00    +0.000 C 
BRANCH  25  26
ATOM     26  C   UNL     1      -6.330   3.078   6.908  0.00  0.00    +0.000 C 
ATOM     27  O   UNL     1      -7.379   3.054   6.282  0.00  0.00    +0.000 OA
BRANCH  26  28
ATOM     28  O   UNL     1      -6.245   3.189   8.271  0.00  0.00    +0.000 OA
ATOM     29  C   UNL     1      -7.504   3.287   8.935  0.00  0.00    +0.000 C 
ENDBRANCH  26  28
ENDBRANCH  25  26
ENDBRANCH  24  25
ENDBRANCH  23  24
ENDBRANCH  21  22
ENDBRANCH  20  21
ENDBRANCH   6  20
TORSDOF 15
