REMARK  Name = 
REMARK  13 active torsions:
REMARK  status: ('A' for Active; 'I' for Inactive)
REMARK    1  A    between atoms: C_1  and  O_2
REMARK    2  A    between atoms: O_2  and  C_3
REMARK    3  A    between atoms: C_6  and  C_7
REMARK    4  A    between atoms: C_7  and  C_8
REMARK    5  A    between atoms: C_8  and  N_9
REMARK    6  A    between atoms: N_9  and  C_10
REMARK    7  A    between atoms: C_10  and  C_11
REMARK    8  A    between atoms: C_11  and  O_12
REMARK    9  A    between atoms: C_11  and  C_13
REMARK   10  A    between atoms: C_13  and  O_15
REMARK   11  A    between atoms: O_15  and  C_16
REMARK   12  A    between atoms: C_27  and  O_28
REMARK   13  A    between atoms: O_28  and  C_29
REMARK                            x       y       z     vdW  Elec       q    Type
REMARK                         _______ _______ _______ _____ _____    ______ ____
ROOT
ATOM      1  C   UNL     1       0.581   7.000   2.996  0.00  0.00    +0.000 C 
ENDROOT
BRANCH   1   2
ATOM      2  N   UNL     1       0.195   5.583   2.968  0.00  0.00    +0.000 N 
ATOM      3  H   UNL     1       0.129   5.291   1.992  0.00  0.00    +0.000 HD
ATOM      4  H   UNL     1       0.912   5.079   3.489  0.00  0.00    +0.000 HD
BRANCH   2   5
ATOM      5  C   UNL     1      -1.086   5.283   3.623  0.00  0.00    +0.000 C 
BRANCH   5   6
ATOM      6  C   UNL     1      -2.289   5.970   2.964  0.00  0.00    +0.000 C 
BRANCH   6  10
ATOM      7  C   UNL     1      -6.103   5.103   4.836  0.00  0.00    +0.000 A 
ATOM      8  C   UNL     1      -5.604   4.293   3.805  0.00  0.00    +0.000 A 
ATOM      9  C   UNL     1      -4.363   4.554   3.215  0.00  0.00    +0.000 A 
ATOM     10  C   UNL     1      -3.598   5.641   3.636  0.00  0.00    +0.000 A 
ATOM     11  C   UNL     1      -4.086   6.443   4.675  0.00  0.00    +0.000 A 
ATOM     12  C   UNL     1      -5.327   6.187   5.278  0.00  0.00    +0.000 A 
BRANCH   7  14
ATOM     13  C   UNL     1      -7.913   3.624   5.281  0.00  0.00    +0.000 C 
ATOM     14  O   UNL     1      -7.352   4.929   5.372  0.00  0.00    +0.000 OA
ENDBRANCH   7  14
BRANCH  12  15
ATOM     15  O   UNL     1      -5.653   7.115   6.234  0.00  0.00    +0.000 OA
ATOM     16  C   UNL     1      -6.483   6.680   7.302  0.00  0.00    +0.000 C 
ENDBRANCH  12  15
ENDBRANCH   6  10
ENDBRANCH   5   6
ENDBRANCH   2   5
ENDBRANCH   1   2
BRANCH   1  17
ATOM     17  C   UNL     1       0.693   7.668   4.373  0.00  0.00    +0.000 C 
BRANCH  17  18
ATOM     18  O   UNL     1       0.868   9.079   4.190  0.00  0.00    +0.000 OA
ATOM     19  H   UNL     1       1.683   9.241   3.690  0.00  0.00    +0.000 HD
ENDBRANCH  17  18
BRANCH  17  20
ATOM     20  C   UNL     1       1.849   7.075   5.190  0.00  0.00    +0.000 C 
ATOM     21  O   UNL     1       1.731   6.395   6.191  0.00  0.00    +0.000 OA
BRANCH  20  22
ATOM     22  O   UNL     1       3.066   7.464   4.622  0.00  0.00    +0.000 OA
BRANCH  22  23
ATOM     23  C   UNL     1       3.951   8.075   5.523  0.00  0.00    +0.000 A 
ATOM     24  C   UNL     1       3.454   9.027   6.438  0.00  0.00    +0.000 A 
ATOM     25  C   UNL     1       4.321   9.680   7.295  0.00  0.00    +0.000 A 
ATOM     26  C   UNL     1       5.663   9.321   7.323  0.00  0.00    +0.000 A 
ATOM     27  C   UNL     1       6.143   8.303   6.483  0.00  0.00    +0.000 A 
ATOM     28  C   UNL     1       7.406   7.762   6.719  0.00  0.00    +0.000 A 
ATOM     29  C   UNL     1       7.844   6.726   5.915  0.00  0.00    +0.000 A 
ATOM     30  C   UNL     1       7.229   6.452   4.715  0.00  0.00    +0.000 A 
ATOM     31  C   UNL     1       5.934   6.925   4.505  0.00  0.00    +0.000 A 
ATOM     32  C   UNL     1       5.328   7.757   5.472  0.00  0.00    +0.000 A 
ENDBRANCH  22  23
ENDBRANCH  20  22
ENDBRANCH  17  20
ENDBRANCH   1  17
TORSDOF 11
