REMARK  Name = 
REMARK  4 active torsions:
REMARK  status: ('A' for Active; 'I' for Inactive)
REMARK    1  A    between atoms: C_4  and  C_5
REMARK    2  A    between atoms: C_14  and  C_15
REMARK    3  A    between atoms: C_21  and  O_22
REMARK    4  A    between atoms: C_24  and  O_25
REMARK                            x       y       z     vdW  Elec       q    Type
REMARK                         _______ _______ _______ _____ _____    ______ ____
ROOT
ATOM      1  O   UNL     1      -2.414   1.630  -0.026  0.00  0.00    +0.000 OA
ATOM      2  C   UNL     1      -1.887   0.526  -0.048  0.00  0.00    +0.000 A 
ATOM      3  C   UNL     1      -2.752  -0.663  -0.068  0.00  0.00    +0.000 A 
ATOM      4  C   UNL     1      -2.186  -1.872  -0.087  0.00  0.00    +0.000 A 
ATOM      5  O   UNL     1      -0.831  -2.106  -0.094  0.00  0.00    +0.000 OA
ATOM      6  C   UNL     1       0.046  -1.044  -0.028  0.00  0.00    +0.000 A 
ATOM      7  C   UNL     1       1.431  -1.354   0.024  0.00  0.00    +0.000 A 
ATOM      8  C   UNL     1       2.317  -0.252   0.032  0.00  0.00    +0.000 A 
ATOM      9  C   UNL     1       1.866   1.071   0.001  0.00  0.00    +0.000 A 
ATOM     10  C   UNL     1       0.500   1.338  -0.025  0.00  0.00    +0.000 A 
ATOM     11  C   UNL     1      -0.422   0.287  -0.038  0.00  0.00    +0.000 A 
ENDROOT
BRANCH   4  12
ATOM     12  C   UNL     1      -3.005  -3.089  -0.107  0.00  0.00    +0.000 A 
ATOM     13  C   UNL     1      -3.440  -3.629   1.115  0.00  0.00    +0.000 A 
ATOM     14  C   UNL     1      -4.222  -4.785   1.141  0.00  0.00    +0.000 A 
ATOM     15  C   UNL     1      -4.581  -5.414  -0.051  0.00  0.00    +0.000 A 
ATOM     16  C   UNL     1      -4.152  -4.890  -1.270  0.00  0.00    +0.000 A 
ATOM     17  C   UNL     1      -3.367  -3.732  -1.301  0.00  0.00    +0.000 A 
ATOM     18 CL   UNL     1      -2.868  -3.137  -2.845  0.00  0.00    +0.000 Cl
ENDBRANCH   4  12
BRANCH   7  19
ATOM     19  C   UNL     1       1.929  -2.759   0.069  0.00  0.00    +0.000 A 
ATOM     20  C   UNL     1       3.075  -3.196  -0.580  0.00  0.00    +0.000 A 
ATOM     21  N   UNL     1       3.555  -4.464  -0.563  0.00  0.00    +0.000 NA
ATOM     22  C   UNL     1       2.837  -5.344   0.144  0.00  0.00    +0.000 A 
ATOM     23  N   UNL     1       1.719  -5.070   0.824  0.00  0.00    +0.000 NA
ATOM     24  C   UNL     1       1.303  -3.782   0.771  0.00  0.00    +0.000 A 
ENDBRANCH   7  19
BRANCH   8  25
ATOM     25  O   UNL     1       3.671  -0.466   0.090  0.00  0.00    +0.000 OA
ATOM     26  H   UNL     1       4.006  -1.340   0.112  0.00  0.00    +0.000 HD
ENDBRANCH   8  25
BRANCH  10  27
ATOM     27  O   UNL     1       0.088   2.638  -0.040  0.00  0.00    +0.000 OA
ATOM     28  H   UNL     1       0.719   3.330  -0.032  0.00  0.00    +0.000 HD
ENDBRANCH  10  27
TORSDOF 4
