REMARK  Name = 
REMARK  10 active torsions:
REMARK  status: ('A' for Active; 'I' for Inactive)
REMARK    1  A    between atoms: C_1  and  C_2
REMARK    2  A    between atoms: C_2  and  N_3
REMARK    3  A    between atoms: N_3  and  C_4
REMARK    4  A    between atoms: N_3  and  C_6
REMARK    5  A    between atoms: C_4  and  C_5
REMARK    6  A    between atoms: C_6  and  C_7
REMARK    7  A    between atoms: C_7  and  N_8
REMARK    8  A    between atoms: N_8  and  C_9
REMARK    9  A    between atoms: C_17  and  O_18
REMARK   10  A    between atoms: O_18  and  C_19
REMARK                            x       y       z     vdW  Elec       q    Type
REMARK                         _______ _______ _______ _____ _____    ______ ____
ROOT
ATOM      1  C   UNL     1       3.485   0.975  -2.330  0.00  0.00    +0.000 A 
ATOM      2  C   UNL     1       4.764   1.163  -2.859  0.00  0.00    +0.000 A 
ATOM      3  C   UNL     1       5.513   2.374  -2.708  0.00  0.00    +0.000 A 
ATOM      4  C   UNL     1       4.986   3.408  -1.921  0.00  0.00    +0.000 A 
ATOM      5  N   UNL     1       5.456   4.645  -1.534  0.00  0.00    +0.000 NA
ATOM      6  C   UNL     1       4.501   5.176  -0.778  0.00  0.00    +0.000 A 
ATOM      7  N   UNL     1       3.420   4.338  -0.655  0.00  0.00    +0.000 N 
ATOM      8  C   UNL     1       2.174   4.431  -0.005  0.00  0.00    +0.000 A 
ATOM      9  C   UNL     1       1.750   5.437   0.872  0.00  0.00    +0.000 A 
ATOM     10  C   UNL     1       0.450   5.350   1.379  0.00  0.00    +0.000 A 
ATOM     11  C   UNL     1      -0.507   4.634   0.689  0.00  0.00    +0.000 A 
ATOM     12  C   UNL     1      -0.103   3.553  -0.048  0.00  0.00    +0.000 A 
ATOM     13  C   UNL     1       1.248   3.404  -0.326  0.00  0.00    +0.000 A 
ATOM     14  C   UNL     1       1.623   2.153  -1.055  0.00  0.00    +0.000 A 
ATOM     15  O   UNL     1       0.822   1.217  -1.159  0.00  0.00    +0.000 OA
ATOM     16  C   UNL     1       2.973   2.081  -1.634  0.00  0.00    +0.000 A 
ATOM     17  C   UNL     1       3.733   3.214  -1.410  0.00  0.00    +0.000 A 
ENDROOT
BRANCH   1  18
ATOM     18  N   UNL     1       2.735  -0.184  -2.473  0.00  0.00    +0.000 N 
ATOM     19  H   UNL     1       1.755  -0.088  -2.471  0.00  0.00    +0.000 HD
BRANCH  18  20
ATOM     20  C   UNL     1       3.274  -1.533  -2.627  0.00  0.00    +0.000 C 
BRANCH  20  21
ATOM     21  C   UNL     1       2.409  -2.608  -1.886  0.00  0.00    +0.000 C 
BRANCH  21  22
ATOM     22  N   UNL     1       0.973  -2.695  -2.241  0.00  0.00    +0.000 N 
ATOM     23  H   UNL     1       0.599  -1.748  -2.184  0.00  0.00    +0.000 HD
BRANCH  22  25
ATOM     24  C   UNL     1      -0.693  -2.957  -4.087  0.00  0.00    +0.000 C 
ATOM     25  C   UNL     1       0.758  -3.115  -3.633  0.00  0.00    +0.000 C 
ENDBRANCH  22  25
BRANCH  22  26
ATOM     26  C   UNL     1       0.204  -3.493  -1.262  0.00  0.00    +0.000 C 
ATOM     27  C   UNL     1       0.405  -5.011  -1.265  0.00  0.00    +0.000 C 
ENDBRANCH  22  26
ENDBRANCH  21  22
ENDBRANCH  20  21
ENDBRANCH  18  20
ENDBRANCH   1  18
BRANCH   9  28
ATOM     28  O   UNL     1       2.534   6.515   1.227  0.00  0.00    +0.000 OA
ATOM     29  C   UNL     1       1.774   7.644   1.723  0.00  0.00    +0.000 C 
ENDBRANCH   9  28
TORSDOF 7
