REMARK  Name = 
REMARK  2 active torsions:
REMARK  status: ('A' for Active; 'I' for Inactive)
REMARK    1  A    between atoms: C_3  and  C_4
REMARK    2  A    between atoms: C_13  and  P_14
REMARK                            x       y       z     vdW  Elec       q    Type
REMARK                         _______ _______ _______ _____ _____    ______ ____
ROOT
ATOM      1 CL   UNL     1      -0.679  -1.020   2.331  0.00  0.00    +0.000 Cl
ATOM      2  H   UNL     1       0.549  -1.020   2.331  0.00  0.00    +0.000 HD
ENDROOT
TORSDOF 0
REMARK  Name = 
REMARK  2 active torsions:
REMARK  status: ('A' for Active; 'I' for Inactive)
REMARK    1  A    between atoms: C_3  and  C_4
REMARK    2  A    between atoms: C_13  and  P_14
REMARK                            x       y       z     vdW  Elec       q    Type
REMARK                         _______ _______ _______ _____ _____    ______ ____
ROOT
ATOM      1  P   UNL     1       5.904   0.968   0.159  0.00  0.00    +0.000 P 
ATOM      2  O   UNL     1       6.004  -0.536  -0.207  0.00  0.00    +0.000 OA
ATOM      3  O   UNL     1       6.424   1.079   1.780  0.00  0.00    +0.000 OA
ATOM      4  C   UNL     1       7.086   2.136   2.289  0.00  0.00    +0.000 A 
ATOM      5  C   UNL     1       6.511   2.743   3.415  0.00  0.00    +0.000 A 
ATOM      6  C   UNL     1       7.126   3.815   4.052  0.00  0.00    +0.000 A 
ATOM      7  C   UNL     1       8.343   4.291   3.582  0.00  0.00    +0.000 A 
ATOM      8  C   UNL     1       8.949   3.693   2.474  0.00  0.00    +0.000 A 
ATOM      9  C   UNL     1       8.341   2.611   1.792  0.00  0.00    +0.000 A 
ATOM     10  C   UNL     1       9.078   1.997   0.625  0.00  0.00    +0.000 A 
ATOM     11  C   UNL     1      10.492   1.921   0.673  0.00  0.00    +0.000 A 
ATOM     12  C   UNL     1      11.227   1.358  -0.374  0.00  0.00    +0.000 A 
ATOM     13  C   UNL     1      10.576   0.869  -1.501  0.00  0.00    +0.000 A 
ATOM     14  C   UNL     1       9.193   0.965  -1.594  0.00  0.00    +0.000 A 
ATOM     15  C   UNL     1       8.447   1.522  -0.553  0.00  0.00    +0.000 A 
ATOM     16  O   UNL     1       7.135   1.670  -0.777  0.00  0.00    +0.000 OA
ENDROOT
BRANCH   1  23
ATOM     17  O   UNL     1       1.243   0.037   0.360  0.00  0.00    +0.000 OA
ATOM     18  C   UNL     1       2.393   0.167  -0.026  0.00  0.00    +0.000 C 
ATOM     19  N   UNL     1       3.074   1.305   0.342  0.00  0.00    +0.000 N 
ATOM     20  C   UNL     1       2.466   2.325   1.176  0.00  0.00    +0.000 C 
ATOM     21  C   UNL     1       2.909   3.613   0.518  0.00  0.00    +0.000 C 
ATOM     22  C   UNL     1       4.362   3.279   0.226  0.00  0.00    +0.000 C 
ATOM     23  C   UNL     1       4.287   1.823  -0.274  0.00  0.00    +0.000 C 
BRANCH  18  24
ATOM     24  C   UNL     1       2.976  -0.992  -0.835  0.00  0.00    +0.000 C 
ATOM     25  C   UNL     1       3.508  -0.744  -2.245  0.00  0.00    +0.000 C 
ATOM     26  C   UNL     1       3.759  -2.181  -2.656  0.00  0.00    +0.000 C 
ATOM     27  C   UNL     1       2.515  -2.890  -2.135  0.00  0.00    +0.000 C 
ATOM     28  N   UNL     1       2.001  -2.085  -1.013  0.00  0.00    +0.000 N 
ATOM     29  H   UNL     1       1.941  -2.650  -0.167  0.00  0.00    +0.000 HD
ATOM     30  H   UNL     1       1.064  -1.729  -1.200  0.00  0.00    +0.000 HD
ENDBRANCH  18  24
ENDBRANCH   1  23
TORSDOF 2
