REMARK  Name = 
REMARK  9 active torsions:
REMARK  status: ('A' for Active; 'I' for Inactive)
REMARK    1  A    between atoms: C_1  and  C_2
REMARK    2  A    between atoms: C_2  and  C_3
REMARK    3  A    between atoms: C_3  and  C_4
REMARK    4  A    between atoms: C_4  and  C_5
REMARK    5  A    between atoms: N_10  and  C_11
REMARK    6  A    between atoms: N_15  and  C_16
REMARK    7  A    between atoms: C_16  and  C_17
REMARK    8  A    between atoms: C_20  and  C_21
REMARK    9  A    between atoms: C_26  and  C_27
REMARK                            x       y       z     vdW  Elec       q    Type
REMARK                         _______ _______ _______ _____ _____    ______ ____
ROOT
ATOM      1  C   UNL     1      -1.393  -4.887   1.612  0.00  0.00    +0.000 C 
ENDROOT
BRANCH   1  12
ATOM      2  C   UNL     1      -1.025  -2.367   1.756  0.00  0.00    +0.000 A 
ATOM      3  N   UNL     1      -1.759  -1.268   1.844  0.00  0.00    +0.000 NA
ATOM      4  C   UNL     1      -3.050  -1.693   1.727  0.00  0.00    +0.000 A 
ATOM      5  C   UNL     1      -4.252  -0.913   1.805  0.00  0.00    +0.000 A 
ATOM      6  N   UNL     1      -5.418  -1.488   1.737  0.00  0.00    +0.000 NA
ATOM      7  N   UNL     1      -5.482  -2.877   1.521  0.00  0.00    +0.000 N 
ATOM      8  C   UNL     1      -6.794  -3.481   1.599  0.00  0.00    +0.000 C 
ATOM      9  C   UNL     1      -4.366  -3.716   1.325  0.00  0.00    +0.000 A 
ATOM     10  O   UNL     1      -4.459  -4.901   1.018  0.00  0.00    +0.000 OA
ATOM     11  C   UNL     1      -3.117  -3.039   1.522  0.00  0.00    +0.000 A 
ATOM     12  N   UNL     1      -1.826  -3.493   1.629  0.00  0.00    +0.000 N 
BRANCH   2  13
ATOM     13  C   UNL     1       0.471  -2.377   1.740  0.00  0.00    +0.000 C 
BRANCH  13  14
ATOM     14  C   UNL     1       0.982  -2.299   0.301  0.00  0.00    +0.000 C 
BRANCH  14  16
ATOM     15  C   UNL     1       2.990  -2.241  -1.205  0.00  0.00    +0.000 C 
ATOM     16  C   UNL     1       2.507  -2.318   0.235  0.00  0.00    +0.000 C 
ENDBRANCH  14  16
ENDBRANCH  13  14
ENDBRANCH   2  13
ENDBRANCH   1  12
BRANCH   1  17
ATOM     17  C   UNL     1      -1.454  -5.508   2.988  0.00  0.00    +0.000 A 
ATOM     18  C   UNL     1      -2.641  -6.066   3.465  0.00  0.00    +0.000 A 
ATOM     19  C   UNL     1      -2.756  -6.473   4.797  0.00  0.00    +0.000 A 
ATOM     20  C   UNL     1      -1.680  -6.392   5.701  0.00  0.00    +0.000 A 
ATOM     21  C   UNL     1      -0.453  -5.979   5.161  0.00  0.00    +0.000 A 
ATOM     22  C   UNL     1      -0.349  -5.502   3.845  0.00  0.00    +0.000 A 
BRANCH  20  23
ATOM     23  C   UNL     1      -1.877  -6.700   7.147  0.00  0.00    +0.000 A 
ATOM     24  C   UNL     1      -2.810  -7.708   7.502  0.00  0.00    +0.000 A 
ATOM     25  C   UNL     1      -3.134  -8.008   8.829  0.00  0.00    +0.000 A 
ATOM     26  C   UNL     1      -2.499  -7.339   9.861  0.00  0.00    +0.000 A 
ATOM     27  C   UNL     1      -1.551  -6.366   9.561  0.00  0.00    +0.000 A 
ATOM     28  C   UNL     1      -1.243  -6.029   8.225  0.00  0.00    +0.000 A 
BRANCH  28  29
ATOM     29  C   UNL     1      -0.293  -4.889   8.055  0.00  0.00    +0.000 C 
ATOM     30  O   UNL     1      -0.329  -3.990   7.242  0.00  0.00    +0.000 OA
ATOM     31  O   UNL     1       0.703  -4.957   8.962  0.00  0.00    +0.000 OA
ENDBRANCH  28  29
ENDBRANCH  20  23
ENDBRANCH   1  17
TORSDOF 7
