REMARK  Name = 
REMARK  9 active torsions:
REMARK  status: ('A' for Active; 'I' for Inactive)
REMARK    1  A    between atoms: C_1  and  C_2
REMARK    2  A    between atoms: C_2  and  N_3
REMARK    3  A    between atoms: N_3  and  C_4
REMARK    4  A    between atoms: N_3  and  C_6
REMARK    5  A    between atoms: C_4  and  C_5
REMARK    6  A    between atoms: C_6  and  C_7
REMARK    7  A    between atoms: C_7  and  N_8
REMARK    8  A    between atoms: N_8  and  C_9
REMARK    9  A    between atoms: C_19  and  C_20
REMARK                            x       y       z     vdW  Elec       q    Type
REMARK                         _______ _______ _______ _____ _____    ______ ____
ROOT
ATOM      1  C   UNL     1       3.627  -1.900   1.959  0.00  0.00    +0.000 A 
ATOM      2  C   UNL     1       4.877  -2.298   2.486  0.00  0.00    +0.000 A 
ATOM      3  C   UNL     1       5.743  -3.210   1.831  0.00  0.00    +0.000 A 
ATOM      4  C   UNL     1       5.370  -3.661   0.567  0.00  0.00    +0.000 A 
ATOM      5  N   UNL     1       5.984  -4.465  -0.369  0.00  0.00    +0.000 NA
ATOM      6  C   UNL     1       5.154  -4.505  -1.401  0.00  0.00    +0.000 A 
ATOM      7  N   UNL     1       4.054  -3.730  -1.169  0.00  0.00    +0.000 N 
ATOM      8  C   UNL     1       2.902  -3.502  -1.917  0.00  0.00    +0.000 A 
ATOM      9  C   UNL     1       2.842  -3.652  -3.292  0.00  0.00    +0.000 A 
ATOM     10  C   UNL     1       1.575  -3.838  -3.800  0.00  0.00    +0.000 A 
ATOM     11  C   UNL     1       0.650  -4.404  -2.925  0.00  0.00    +0.000 A 
ATOM     12  C   UNL     1       0.871  -5.950  -2.801  0.00  0.00    +0.000 C 
ATOM     13  C   UNL     1       0.553  -3.741  -1.696  0.00  0.00    +0.000 A 
ATOM     14  C   UNL     1       1.734  -3.235  -1.174  0.00  0.00    +0.000 A 
ATOM     15  C   UNL     1       1.836  -2.537   0.154  0.00  0.00    +0.000 A 
ATOM     16  O   UNL     1       0.867  -1.967   0.653  0.00  0.00    +0.000 OA
ATOM     17  C   UNL     1       3.181  -2.553   0.803  0.00  0.00    +0.000 A 
ATOM     18  C   UNL     1       4.132  -3.287   0.111  0.00  0.00    +0.000 A 
ENDROOT
BRANCH   1  19
ATOM     19  N   UNL     1       2.856  -0.899   2.551  0.00  0.00    +0.000 N 
ATOM     20  H   UNL     1       1.875  -0.953   2.489  0.00  0.00    +0.000 HD
BRANCH  19  21
ATOM     21  C   UNL     1       3.463   0.231   3.263  0.00  0.00    +0.000 C 
BRANCH  21  22
ATOM     22  C   UNL     1       4.471   1.102   2.463  0.00  0.00    +0.000 C 
BRANCH  22  23
ATOM     23  N   UNL     1       4.057   1.954   1.337  0.00  0.00    +0.000 N 
ATOM     24  H   UNL     1       4.941   2.303   0.967  0.00  0.00    +0.000 HD
BRANCH  23  26
ATOM     25  C   UNL     1       3.562   2.034  -1.103  0.00  0.00    +0.000 C 
ATOM     26  C   UNL     1       3.509   1.230   0.195  0.00  0.00    +0.000 C 
ENDBRANCH  23  26
BRANCH  23  27
ATOM     27  C   UNL     1       3.401   3.210   1.694  0.00  0.00    +0.000 C 
ATOM     28  C   UNL     1       1.917   3.150   2.032  0.00  0.00    +0.000 C 
ENDBRANCH  23  27
ENDBRANCH  22  23
ENDBRANCH  21  22
ENDBRANCH  19  21
ENDBRANCH   1  19
TORSDOF 6
