REMARK  Name = 
REMARK  7 active torsions:
REMARK  status: ('A' for Active; 'I' for Inactive)
REMARK    1  A    between atoms: C_1  and  C_2
REMARK    2  A    between atoms: C_2  and  N_3
REMARK    3  A    between atoms: N_3  and  C_4
REMARK    4  A    between atoms: C_9  and  S_10
REMARK    5  A    between atoms: S_10  and  N_13
REMARK    6  A    between atoms: C_20  and  O_21
REMARK    7  A    between atoms: O_21  and  C_22
REMARK                            x       y       z     vdW  Elec       q    Type
REMARK                         _______ _______ _______ _____ _____    ______ ____
ROOT
ATOM      1  C   UNL     1       0.031  -2.896   1.109  0.00  0.00    +0.000 A 
ATOM      2  C   UNL     1      -1.267  -3.004   0.590  0.00  0.00    +0.000 A 
ATOM      3  C   UNL     1      -2.328  -3.431   1.374  0.00  0.00    +0.000 A 
ATOM      4  C   UNL     1      -2.090  -3.906   2.656  0.00  0.00    +0.000 A 
ATOM      5  C   UNL     1      -0.788  -4.001   3.188  0.00  0.00    +0.000 A 
ATOM      6  C   UNL     1      -0.506  -4.646   4.429  0.00  0.00    +0.000 A 
ATOM      7  C   UNL     1       0.774  -4.561   4.997  0.00  0.00    +0.000 A 
ATOM      8  C   UNL     1       1.791  -3.904   4.320  0.00  0.00    +0.000 A 
ATOM      9  C   UNL     1       1.557  -3.376   3.047  0.00  0.00    +0.000 A 
ATOM     10  C   UNL     1       0.281  -3.411   2.433  0.00  0.00    +0.000 A 
ENDROOT
BRANCH   6  11
ATOM     11  S   UNL     1      -1.561  -5.964   5.090  0.00  0.00    +0.000 S 
ATOM     12  O   UNL     1      -2.343  -6.498   3.994  0.00  0.00    +0.000 OA
ATOM     13  O   UNL     1      -0.728  -6.864   5.864  0.00  0.00    +0.000 OA
BRANCH  11  14
ATOM     14  N   UNL     1      -2.682  -5.252   6.115  0.00  0.00    +0.000 N 
ATOM     15  C   UNL     1      -2.317  -5.180   7.485  0.00  0.00    +0.000 A 
ATOM     16  N   UNL     1      -1.622  -4.066   7.790  0.00  0.00    +0.000 NA
ATOM     17  C   UNL     1      -1.309  -3.934   9.108  0.00  0.00    +0.000 A 
ATOM     18  C   UNL     1      -1.653  -4.874  10.076  0.00  0.00    +0.000 A 
ATOM     19 BR   UNL     1      -1.195  -4.571  11.886  0.00  0.00    +0.000 Br
ATOM     20  N   UNL     1      -2.327  -6.000   9.767  0.00  0.00    +0.000 NA
ATOM     21  C   UNL     1      -2.653  -6.154   8.458  0.00  0.00    +0.000 A 
ATOM     22  H   UNL     1      -3.542  -4.904   5.786  0.00  0.00    +0.000 HD
BRANCH  21  23
ATOM     23  O   UNL     1      -3.371  -7.275   8.091  0.00  0.00    +0.000 OA
ATOM     24  C   UNL     1      -3.619  -8.149   9.199  0.00  0.00    +0.000 C 
ENDBRANCH  21  23
ENDBRANCH  11  14
ENDBRANCH   6  11
BRANCH   1  25
ATOM     25  N   UNL     1       1.077  -2.414   0.274  0.00  0.00    +0.000 N 
ATOM     26  H   UNL     1       2.015  -2.671   0.427  0.00  0.00    +0.000 HD
BRANCH  25  28
ATOM     27  C   UNL     1       1.848  -0.619  -1.245  0.00  0.00    +0.000 C 
ATOM     28  C   UNL     1       0.697  -1.518  -0.826  0.00  0.00    +0.000 C 
ENDBRANCH  25  28
ENDBRANCH   1  25
TORSDOF 5
