REMARK  Name = 
REMARK  6 active torsions:
REMARK  status: ('A' for Active; 'I' for Inactive)
REMARK    1  A    between atoms: C_1  and  N_2
REMARK    2  A    between atoms: N_2  and  C_3
REMARK    3  A    between atoms: N_2  and  C_4
REMARK    4  A    between atoms: C_9  and  S_10
REMARK    5  A    between atoms: S_10  and  N_13
REMARK    6  A    between atoms: N_13  and  C_14
REMARK                            x       y       z     vdW  Elec       q    Type
REMARK                         _______ _______ _______ _____ _____    ______ ____
ROOT
ATOM      1  C   UNL     1       0.288   1.961  -1.077  0.00  0.00    +0.000 A 
ATOM      2  C   UNL     1       1.494   2.333  -0.453  0.00  0.00    +0.000 A 
ATOM      3  C   UNL     1       1.832   3.660  -0.251  0.00  0.00    +0.000 A 
ATOM      4  C   UNL     1       1.045   4.660  -0.800  0.00  0.00    +0.000 A 
ATOM      5  C   UNL     1      -0.073   4.366  -1.606  0.00  0.00    +0.000 A 
ATOM      6  C   UNL     1      -0.799   5.365  -2.320  0.00  0.00    +0.000 A 
ATOM      7  C   UNL     1      -2.041   5.072  -2.893  0.00  0.00    +0.000 A 
ATOM      8  C   UNL     1      -2.555   3.786  -2.805  0.00  0.00    +0.000 A 
ATOM      9  C   UNL     1      -1.794   2.771  -2.218  0.00  0.00    +0.000 A 
ATOM     10  C   UNL     1      -0.519   3.007  -1.650  0.00  0.00    +0.000 A 
ENDROOT
BRANCH   1  12
ATOM     11  C   UNL     1       0.430  -0.228   0.017  0.00  0.00    +0.000 C 
ATOM     12  N   UNL     1      -0.116   0.597  -1.070  0.00  0.00    +0.000 N 
ATOM     13  C   UNL     1      -0.103  -0.066  -2.380  0.00  0.00    +0.000 C 
ENDBRANCH   1  12
BRANCH   6  14
ATOM     14  S   UNL     1      -0.199   7.048  -2.505  0.00  0.00    +0.000 S 
ATOM     15  O   UNL     1      -1.015   7.715  -3.495  0.00  0.00    +0.000 OA
ATOM     16  O   UNL     1      -0.099   7.591  -1.163  0.00  0.00    +0.000 OA
BRANCH  14  17
ATOM     17  N   UNL     1       1.365   6.949  -3.107  0.00  0.00    +0.000 N 
ATOM     18  H   UNL     1       2.130   7.099  -2.506  0.00  0.00    +0.000 HD
BRANCH  17  19
ATOM     19  C   UNL     1       1.591   6.651  -4.466  0.00  0.00    +0.000 A 
ATOM     20  C   UNL     1       1.453   7.603  -5.457  0.00  0.00    +0.000 A 
ATOM     21  C   UNL     1       1.964   7.322  -6.724  0.00  0.00    +0.000 A 
ATOM     22  C   UNL     1       2.569   6.091  -6.936  0.00  0.00    +0.000 A 
ATOM     23 BR   UNL     1       3.356   5.700  -8.613  0.00  0.00    +0.000 Br
ATOM     24  N   UNL     1       2.645   5.164  -5.956  0.00  0.00    +0.000 NA
ATOM     25  N   UNL     1       2.158   5.453  -4.698  0.00  0.00    +0.000 NA
ENDBRANCH  17  19
ENDBRANCH  14  17
ENDBRANCH   6  14
TORSDOF 4
