
     RDKit          3D

 54 57  0  0  0  0  0  0  0  0999 V2000
    0.6783   -0.1421    3.9371 C   0  0  0  0  0  0  0  0  0  0  0  0
   -0.1992    0.4097    2.9610 O   0  0  0  0  0  0  0  0  0  0  0  0
    0.1897    0.8097    1.6721 C   0  0  0  0  0  0  0  0  0  0  0  0
    1.5209    0.6959    1.2244 C   0  0  0  0  0  0  0  0  0  0  0  0
    1.8768    1.1095   -0.0722 C   0  0  0  0  0  0  0  0  0  0  0  0
    3.1943    1.0159   -0.5744 C   0  0  0  0  0  0  0  0  0  0  0  0
    4.2861    0.5746    0.2514 N   0  0  0  0  0  0  0  0  0  0  0  0
    5.4372   -0.1153   -0.2678 C   0  0  0  0  0  0  0  0  0  0  0  0
    5.3335   -0.9559   -1.3921 C   0  0  0  0  0  0  0  0  0  0  0  0
    6.4558   -1.6371   -1.8720 C   0  0  0  0  0  0  0  0  0  0  0  0
    7.6896   -1.4956   -1.2307 C   0  0  0  0  0  0  0  0  0  0  0  0
    9.0965   -2.3520   -1.8343 Cl  0  0  0  0  0  0  0  0  0  0  0  0
    7.7991   -0.6765   -0.1032 C   0  0  0  0  0  0  0  0  0  0  0  0
    6.6787    0.0063    0.3820 C   0  0  0  0  0  0  0  0  0  0  0  0
    6.8079    0.7986    1.4760 F   0  0  0  0  0  0  0  0  0  0  0  0
    3.4457    1.4065   -1.8540 N   0  0  0  0  0  0  0  0  0  0  0  0
    2.4643    1.8816   -2.6608 C   0  0  0  0  0  0  0  0  0  0  0  0
    1.1949    1.9889   -2.1970 N   0  0  0  0  0  0  0  0  0  0  0  0
    0.8782    1.6171   -0.9298 C   0  0  0  0  0  0  0  0  0  0  0  0
   -0.4408    1.7334   -0.4845 C   0  0  0  0  0  0  0  0  0  0  0  0
   -0.7934    1.3299    0.8168 C   0  0  0  0  0  0  0  0  0  0  0  0
   -2.1077    1.4287    1.3054 O   0  0  0  0  0  0  0  0  0  0  0  0
   -3.2615    1.7702    0.5352 C   0  0  0  0  0  0  0  0  0  0  0  0
   -3.6778    0.6104   -0.3898 C   0  0  2  0  0  0  0  0  0  0  0  0
   -4.8754    1.0256   -1.2618 C   0  0  0  0  0  0  0  0  0  0  0  0
   -5.3516   -0.1476   -2.1220 C   0  0  0  0  0  0  0  0  0  0  0  0
   -5.6383   -1.3721   -1.2477 C   0  0  0  0  0  0  0  0  0  0  0  0
   -4.4335   -1.7475   -0.4818 N   0  0  0  0  0  0  0  0  0  0  0  0
   -4.6942   -2.9690    0.2951 C   0  0  0  0  0  0  0  0  0  0  0  0
   -4.0322   -0.6510    0.4227 C   0  0  0  0  0  0  0  0  0  0  0  0
    1.4803    0.5850    4.1848 H   0  0  0  0  0  0  0  0  0  0  0  0
    0.1020   -0.3621    4.8589 H   0  0  0  0  0  0  0  0  0  0  0  0
    1.1210   -1.0888    3.5614 H   0  0  0  0  0  0  0  0  0  0  0  0
    2.2643    0.2706    1.8809 H   0  0  0  0  0  0  0  0  0  0  0  0
    4.3055    0.8807    1.2497 H   0  0  0  0  0  0  0  0  0  0  0  0
    4.3826   -1.1011   -1.8880 H   0  0  0  0  0  0  0  0  0  0  0  0
    6.3635   -2.2795   -2.7385 H   0  0  0  0  0  0  0  0  0  0  0  0
    8.7524   -0.5691    0.3985 H   0  0  0  0  0  0  0  0  0  0  0  0
    2.6964    2.1825   -3.6729 H   0  0  0  0  0  0  0  0  0  0  0  0
   -1.1805    2.1380   -1.1612 H   0  0  0  0  0  0  0  0  0  0  0  0
   -4.0925    1.9931    1.2385 H   0  0  0  0  0  0  0  0  0  0  0  0
   -3.0750    2.6993   -0.0447 H   0  0  0  0  0  0  0  0  0  0  0  0
   -2.8284    0.3628   -1.0631 H   0  0  0  0  0  0  0  0  0  0  0  0
   -4.5825    1.8670   -1.9270 H   0  0  0  0  0  0  0  0  0  0  0  0
   -5.7150    1.3711   -0.6181 H   0  0  0  0  0  0  0  0  0  0  0  0
   -4.5706   -0.4021   -2.8719 H   0  0  0  0  0  0  0  0  0  0  0  0
   -6.2748    0.1439   -2.6676 H   0  0  0  0  0  0  0  0  0  0  0  0
   -5.9366   -2.2088   -1.9175 H   0  0  0  0  0  0  0  0  0  0  0  0
   -6.4928   -1.1544   -0.5660 H   0  0  0  0  0  0  0  0  0  0  0  0
   -5.5197   -2.8154    1.0257 H   0  0  0  0  0  0  0  0  0  0  0  0
   -4.9638   -3.8050   -0.3856 H   0  0  0  0  0  0  0  0  0  0  0  0
   -3.7777   -3.2763    0.8434 H   0  0  0  0  0  0  0  0  0  0  0  0
   -3.1337   -0.9615    1.0014 H   0  0  0  0  0  0  0  0  0  0  0  0
   -4.8465   -0.4209    1.1487 H   0  0  0  0  0  0  0  0  0  0  0  0
  1  2  1  0
  2  3  1  0
  3  4  2  0
  4  5  1  0
  5  6  2  0
  6  7  1  0
  7  8  1  0
  8  9  2  0
  9 10  1  0
 10 11  2  0
 11 12  1  0
 11 13  1  0
 13 14  2  0
 14 15  1  0
  6 16  1  0
 16 17  2  0
 17 18  1  0
 18 19  2  0
 19 20  1  0
 20 21  2  0
 21 22  1  0
 22 23  1  0
 23 24  1  0
 24 25  1  0
 25 26  1  0
 26 27  1  0
 27 28  1  0
 28 29  1  0
 28 30  1  0
 21  3  1  0
 30 24  1  0
 19  5  1  0
 14  8  1  0
  1 31  1  0
  1 32  1  0
  1 33  1  0
  4 34  1  0
  7 35  1  0
  9 36  1  0
 10 37  1  0
 13 38  1  0
 17 39  1  0
 20 40  1  0
 23 41  1  0
 23 42  1  0
 24 43  1  6
 25 44  1  0
 25 45  1  0
 26 46  1  0
 26 47  1  0
 27 48  1  0
 27 49  1  0
 29 50  1  0
 29 51  1  0
 29 52  1  0
 30 53  1  0
 30 54  1  0
M  END
$$$$
