
     RDKit          3D

 31 33  0  0  0  0  0  0  0  0999 V2000
    3.8188    2.2421   -0.4644 C   0  0  0  0  0  0  0  0  0  0  0  0
    4.2864    0.8661   -0.5774 N   0  0  0  0  0  0  0  0  0  0  0  0
    3.3958   -0.2488   -0.4639 C   0  0  0  0  0  0  0  0  0  0  0  0
    3.8824   -1.5152   -0.5766 N   0  0  0  0  0  0  0  0  0  0  0  0
    3.0650   -2.5961   -0.4747 C   0  0  0  0  0  0  0  0  0  0  0  0
    1.7013   -2.4121   -0.2499 C   0  0  0  0  0  0  0  0  0  0  0  0
    0.8567   -3.4695   -0.1431 N   0  0  0  0  0  0  0  0  0  0  0  0
   -0.4692   -3.2741    0.0781 C   0  0  0  0  0  0  0  0  0  0  0  0
   -0.9648   -2.0134    0.1945 N   0  0  0  0  0  0  0  0  0  0  0  0
   -0.1620   -0.9179    0.0852 C   0  0  0  0  0  0  0  0  0  0  0  0
   -0.7107    0.4028    0.2437 N   0  0  0  0  0  0  0  0  0  0  0  0
   -2.1126    0.7051    0.1416 C   0  0  0  0  0  0  0  0  0  0  0  0
   -2.9428    0.0329   -0.7749 C   0  0  0  0  0  0  0  0  0  0  0  0
   -4.2981    0.3636   -0.8725 C   0  0  0  0  0  0  0  0  0  0  0  0
   -4.8328    1.3740   -0.0692 C   0  0  0  0  0  0  0  0  0  0  0  0
   -4.0108    2.0620    0.8269 C   0  0  0  0  0  0  0  0  0  0  0  0
   -2.6549    1.7349    0.9269 C   0  0  0  0  0  0  0  0  0  0  0  0
    1.2115   -1.1023   -0.1339 C   0  0  0  0  0  0  0  0  0  0  0  0
    2.0662   -0.0511   -0.2448 N   0  0  0  0  0  0  0  0  0  0  0  0
    3.0703    2.4518   -1.2573 H   0  0  0  0  0  0  0  0  0  0  0  0
    3.3585    2.4027    0.5332 H   0  0  0  0  0  0  0  0  0  0  0  0
    4.6729    2.9417   -0.5827 H   0  0  0  0  0  0  0  0  0  0  0  0
    5.3026    0.6899   -0.7459 H   0  0  0  0  0  0  0  0  0  0  0  0
    3.4778   -3.5923   -0.5686 H   0  0  0  0  0  0  0  0  0  0  0  0
   -1.1322   -4.1238    0.1650 H   0  0  0  0  0  0  0  0  0  0  0  0
   -0.0689    1.1759    0.5324 H   0  0  0  0  0  0  0  0  0  0  0  0
   -2.5415   -0.7282   -1.4309 H   0  0  0  0  0  0  0  0  0  0  0  0
   -4.9323   -0.1579   -1.5778 H   0  0  0  0  0  0  0  0  0  0  0  0
   -5.8816    1.6296   -0.1474 H   0  0  0  0  0  0  0  0  0  0  0  0
   -4.4236    2.8506    1.4427 H   0  0  0  0  0  0  0  0  0  0  0  0
   -2.0275    2.2767    1.6234 H   0  0  0  0  0  0  0  0  0  0  0  0
  1  2  1  0
  2  3  1  0
  3  4  2  0
  4  5  1  0
  5  6  2  0
  6  7  1  0
  7  8  2  0
  8  9  1  0
  9 10  2  0
 10 11  1  0
 11 12  1  0
 12 13  2  0
 13 14  1  0
 14 15  2  0
 15 16  1  0
 16 17  2  0
 10 18  1  0
 18 19  2  0
 19  3  1  0
 18  6  1  0
 17 12  1  0
  1 20  1  0
  1 21  1  0
  1 22  1  0
  2 23  1  0
  5 24  1  0
  8 25  1  0
 11 26  1  0
 13 27  1  0
 14 28  1  0
 15 29  1  0
 16 30  1  0
 17 31  1  0
M  END
$$$$
