
     RDKit          3D

 75 83  0  0  0  0  0  0  0  0999 V2000
    1.6976    3.3446   -0.3588 C   0  0  0  0  0  0  0  0  0  0  0  0
    0.7875    2.2820   -0.1488 O   0  0  0  0  0  0  0  0  0  0  0  0
    1.2669    1.0685   -0.7107 C   0  0  1  0  0  0  0  0  0  0  0  0
    1.8479    0.1428    0.3937 C   0  0  1  0  0  0  0  0  0  0  0  0
    2.6086    0.8581    1.4495 N   0  0  0  0  0  0  0  0  0  0  0  0
    1.9210    1.6344    2.4943 C   0  0  0  0  0  0  0  0  0  0  0  0
    4.0262    0.6218    1.6280 C   0  0  0  0  0  0  0  0  0  0  0  0
    4.5488    0.7906    2.7649 O   0  0  0  0  0  0  0  0  0  0  0  0
    4.8947    0.1625    0.5249 C   0  0  0  0  0  0  0  0  0  0  0  0
    4.9176    0.8427   -0.7004 C   0  0  0  0  0  0  0  0  0  0  0  0
    5.7329    0.3925   -1.7401 C   0  0  0  0  0  0  0  0  0  0  0  0
    6.5429   -0.7316   -1.5612 C   0  0  0  0  0  0  0  0  0  0  0  0
    6.5499   -1.4161   -0.3322 C   0  0  0  0  0  0  0  0  0  0  0  0
    7.3826   -2.5746   -0.1423 N   0  0  0  0  0  4  0  0  0  0  0  0
    8.1223   -2.9851   -1.0607 O   0  0  0  0  0  0  0  0  0  0  0  0
    7.3855   -3.2444    1.0603 O   0  0  0  0  0  1  0  0  0  0  0  0
    5.7237   -0.9551    0.7094 C   0  0  0  0  0  0  0  0  0  0  0  0
    0.7370   -0.7099    0.9877 C   0  0  0  0  0  0  0  0  0  0  0  0
    0.1651   -1.6133   -0.1155 C   0  0  2  0  0  0  0  0  0  0  0  0
    0.2188   -1.0723   -1.4249 O   0  0  0  0  0  0  0  0  0  0  0  0
    0.1109    0.3459   -1.5276 C   0  0  2  0  0  0  0  0  0  0  0  0
    0.3251    0.5974   -3.0416 C   0  0  0  0  0  0  0  0  0  0  0  0
   -1.2656    0.8195   -1.1458 N   0  0  0  0  0  0  0  0  0  0  0  0
   -1.8644    2.0180   -1.4612 C   0  0  0  0  0  0  0  0  0  0  0  0
   -1.2943    3.1599   -2.0521 C   0  0  0  0  0  0  0  0  0  0  0  0
   -2.1042    4.2814   -2.2946 C   0  0  0  0  0  0  0  0  0  0  0  0
   -3.4673    4.2669   -1.9539 C   0  0  0  0  0  0  0  0  0  0  0  0
   -4.0350    3.1318   -1.3619 C   0  0  0  0  0  0  0  0  0  0  0  0
   -3.2102    2.0288   -1.1276 C   0  0  0  0  0  0  0  0  0  0  0  0
   -3.4852    0.8076   -0.5733 C   0  0  0  0  0  0  0  0  0  0  0  0
   -4.6713    0.2469   -0.0663 C   0  0  0  0  0  0  0  0  0  0  0  0
   -4.6501   -1.0410    0.4645 C   0  0  0  0  0  0  0  0  0  0  0  0
   -3.4356   -1.7570    0.5139 C   0  0  0  0  0  0  0  0  0  0  0  0
   -3.0366   -2.9624    1.0812 C   0  0  0  0  0  0  0  0  0  0  0  0
   -3.7191   -3.9377    1.8150 C   0  0  0  0  0  0  0  0  0  0  0  0
   -2.9887   -5.0302    2.3121 C   0  0  0  0  0  0  0  0  0  0  0  0
   -1.6010   -5.1242    2.0928 C   0  0  0  0  0  0  0  0  0  0  0  0
   -0.9244   -4.1268    1.3736 C   0  0  0  0  0  0  0  0  0  0  0  0
   -1.6688   -3.0538    0.8699 C   0  0  0  0  0  0  0  0  0  0  0  0
   -1.2071   -1.9777    0.1899 N   0  0  0  0  0  0  0  0  0  0  0  0
   -2.2746   -1.1898   -0.0187 C   0  0  0  0  0  0  0  0  0  0  0  0
   -2.2884    0.0994   -0.5824 C   0  0  0  0  0  0  0  0  0  0  0  0
   -6.0133   -1.3363    0.8618 C   0  0  0  0  0  0  0  0  0  0  0  0
   -6.4456   -2.4260    1.3116 O   0  0  0  0  0  0  0  0  0  0  0  0
   -6.8501   -0.2202    0.5958 N   0  0  0  0  0  0  0  0  0  0  0  0
   -6.0495    0.8411   -0.0075 C   0  0  0  0  0  0  0  0  0  0  0  0
    2.6673    3.1557    0.1474 H   0  0  0  0  0  0  0  0  0  0  0  0
    1.2653    4.2699    0.0749 H   0  0  0  0  0  0  0  0  0  0  0  0
    1.8703    3.5264   -1.4414 H   0  0  0  0  0  0  0  0  0  0  0  0
    2.1154    1.2387   -1.4169 H   0  0  0  0  0  0  0  0  0  0  0  0
    2.5297   -0.5744   -0.1169 H   0  0  0  0  0  0  0  0  0  0  0  0
    1.9881    1.0991    3.4653 H   0  0  0  0  0  0  0  0  0  0  0  0
    2.3987    2.6317    2.5971 H   0  0  0  0  0  0  0  0  0  0  0  0
    0.8496    1.7938    2.2647 H   0  0  0  0  0  0  0  0  0  0  0  0
    4.3230    1.7327   -0.8465 H   0  0  0  0  0  0  0  0  0  0  0  0
    5.7424    0.9190   -2.6857 H   0  0  0  0  0  0  0  0  0  0  0  0
    7.1664   -1.0620   -2.3816 H   0  0  0  0  0  0  0  0  0  0  0  0
    5.7100   -1.4735    1.6602 H   0  0  0  0  0  0  0  0  0  0  0  0
    1.1351   -1.3378    1.8147 H   0  0  0  0  0  0  0  0  0  0  0  0
   -0.0663   -0.0650    1.4028 H   0  0  0  0  0  0  0  0  0  0  0  0
    0.7879   -2.5313   -0.1452 H   0  0  0  0  0  0  0  0  0  0  0  0
    1.1127   -0.0824   -3.4353 H   0  0  0  0  0  0  0  0  0  0  0  0
   -0.6095    0.3911   -3.6072 H   0  0  0  0  0  0  0  0  0  0  0  0
    0.6775    1.6164   -3.2783 H   0  0  0  0  0  0  0  0  0  0  0  0
   -0.2550    3.2306   -2.3011 H   0  0  0  0  0  0  0  0  0  0  0  0
   -1.6728    5.1674   -2.7428 H   0  0  0  0  0  0  0  0  0  0  0  0
   -4.0799    5.1384   -2.1446 H   0  0  0  0  0  0  0  0  0  0  0  0
   -5.0824    3.1286   -1.0998 H   0  0  0  0  0  0  0  0  0  0  0  0
   -4.7697   -3.8758    2.0249 H   0  0  0  0  0  0  0  0  0  0  0  0
   -3.4945   -5.8004    2.8806 H   0  0  0  0  0  0  0  0  0  0  0  0
   -1.0504   -5.9665    2.4908 H   0  0  0  0  0  0  0  0  0  0  0  0
    0.1446   -4.1991    1.2287 H   0  0  0  0  0  0  0  0  0  0  0  0
   -7.8781   -0.1795    0.7688 H   0  0  0  0  0  0  0  0  0  0  0  0
   -6.4241    1.0660   -1.0282 H   0  0  0  0  0  0  0  0  0  0  0  0
   -6.0647    1.7424    0.6407 H   0  0  0  0  0  0  0  0  0  0  0  0
  1  2  1  0
  2  3  1  0
  3  4  1  0
  4  5  1  0
  5  6  1  0
  5  7  1  0
  7  8  2  0
  7  9  1  0
  9 10  2  0
 10 11  1  0
 11 12  2  0
 12 13  1  0
 13 14  1  0
 14 15  2  0
 14 16  1  0
 13 17  2  0
  4 18  1  0
 18 19  1  0
 19 20  1  0
 20 21  1  0
 21 22  1  6
 21 23  1  0
 23 24  1  0
 24 25  2  0
 25 26  1  0
 26 27  2  0
 27 28  1  0
 28 29  2  0
 29 30  1  0
 30 31  2  0
 31 32  1  0
 32 33  2  0
 33 34  1  0
 34 35  2  0
 35 36  1  0
 36 37  2  0
 37 38  1  0
 38 39  2  0
 39 40  1  0
 40 41  1  0
 41 42  2  0
 32 43  1  0
 43 44  2  0
 43 45  1  0
 45 46  1  0
 21  3  1  0
 42 23  1  0
 17  9  1  0
 40 19  1  0
 29 24  1  0
 42 30  1  0
 46 31  1  0
 41 33  1  0
 39 34  1  0
  1 47  1  0
  1 48  1  0
  1 49  1  0
  3 50  1  6
  4 51  1  6
  6 52  1  0
  6 53  1  0
  6 54  1  0
 10 55  1  0
 11 56  1  0
 12 57  1  0
 17 58  1  0
 18 59  1  0
 18 60  1  0
 19 61  1  6
 22 62  1  0
 22 63  1  0
 22 64  1  0
 25 65  1  0
 26 66  1  0
 27 67  1  0
 28 68  1  0
 35 69  1  0
 36 70  1  0
 37 71  1  0
 38 72  1  0
 45 73  1  0
 46 74  1  0
 46 75  1  0
M  CHG  2  14   1  16  -1
M  END
$$$$
