
     RDKit          3D

 54 58  0  0  0  0  0  0  0  0999 V2000
    0.2512    1.8408   -1.9006 C   0  0  0  0  0  0  0  0  0  0  0  0
    1.0159    0.9357   -0.9885 C   0  0  0  0  0  0  0  0  0  0  0  0
    2.3655    1.0316   -0.7072 C   0  0  0  0  0  0  0  0  0  0  0  0
    2.6161    0.1029    0.2903 C   0  0  0  0  0  0  0  0  0  0  0  0
    3.9065   -0.1102    0.9759 C   0  0  0  0  0  0  0  0  0  0  0  0
    3.9035   -0.6294    2.1232 O   0  0  0  0  0  0  0  0  0  0  0  0
    5.1607    0.2557    0.3700 N   0  0  0  0  0  0  0  0  0  0  0  0
    6.2147    0.8860    1.1699 C   0  0  0  0  0  0  0  0  0  0  0  0
    7.5813    0.3254    0.7582 C   0  0  0  0  0  0  0  0  0  0  0  0
    7.7614    0.4071   -0.6433 O   0  0  0  0  0  0  0  0  0  0  0  0
    6.8185   -0.4220   -1.2967 C   0  0  0  0  0  0  0  0  0  0  0  0
    5.3942    0.0930   -1.0676 C   0  0  0  0  0  0  0  0  0  0  0  0
    1.4751   -0.5249    0.6401 N   0  0  0  0  0  0  0  0  0  0  0  0
    0.4978   -0.0350   -0.1485 C   0  0  0  0  0  0  0  0  0  0  0  0
   -0.9321   -0.3597   -0.0003 C   0  0  0  0  0  0  0  0  0  0  0  0
   -1.4014   -1.5992    0.2147 C   0  0  0  0  0  0  0  0  0  0  0  0
   -0.6902   -2.8851    0.0708 C   0  0  0  0  0  0  0  0  0  0  0  0
    0.5251   -3.0288   -0.2252 O   0  0  0  0  0  0  0  0  0  0  0  0
   -1.5917   -3.9824    0.1778 N   0  0  0  0  0  0  0  0  0  0  0  0
   -2.8635   -3.3798    0.3604 C   0  0  0  0  0  0  0  0  0  0  0  0
   -4.0359   -4.0528    0.4471 N   0  0  0  0  0  0  0  0  0  0  0  0
   -5.1907   -3.3472    0.6041 C   0  0  0  0  0  0  0  0  0  0  0  0
   -5.1618   -1.9833    0.6864 N   0  0  0  0  0  0  0  0  0  0  0  0
   -3.9936   -1.2820    0.5920 C   0  0  0  0  0  0  0  0  0  0  0  0
   -3.9952    0.1395    0.7740 N   0  0  0  0  0  0  0  0  0  0  0  0
   -4.9945    1.0114    0.2170 C   0  0  0  0  0  0  0  0  0  0  0  0
   -5.7756    0.6234   -0.8886 C   0  0  0  0  0  0  0  0  0  0  0  0
   -6.7173    1.5024   -1.4309 C   0  0  0  0  0  0  0  0  0  0  0  0
   -6.8818    2.7792   -0.8871 C   0  0  0  0  0  0  0  0  0  0  0  0
   -7.7946    3.6259   -1.4263 F   0  0  0  0  0  0  0  0  0  0  0  0
   -6.0990    3.1812    0.2023 C   0  0  0  0  0  0  0  0  0  0  0  0
   -6.2867    4.7888    0.8850 Cl  0  0  0  0  0  0  0  0  0  0  0  0
   -5.1572    2.3014    0.7480 C   0  0  0  0  0  0  0  0  0  0  0  0
   -2.8064   -2.0028    0.4074 C   0  0  0  0  0  0  0  0  0  0  0  0
    0.9062    2.1937   -2.7253 H   0  0  0  0  0  0  0  0  0  0  0  0
   -0.1152    2.7158   -1.3270 H   0  0  0  0  0  0  0  0  0  0  0  0
   -0.6130    1.3037   -2.3409 H   0  0  0  0  0  0  0  0  0  0  0  0
    3.0602    1.7438   -1.1322 H   0  0  0  0  0  0  0  0  0  0  0  0
    6.0613    0.7024    2.2557 H   0  0  0  0  0  0  0  0  0  0  0  0
    6.1943    1.9834    0.9960 H   0  0  0  0  0  0  0  0  0  0  0  0
    7.6949   -0.7245    1.1166 H   0  0  0  0  0  0  0  0  0  0  0  0
    8.3756    0.9245    1.2516 H   0  0  0  0  0  0  0  0  0  0  0  0
    7.0319   -0.4101   -2.3860 H   0  0  0  0  0  0  0  0  0  0  0  0
    6.9089   -1.4795   -0.9576 H   0  0  0  0  0  0  0  0  0  0  0  0
    5.2783    1.0741   -1.5743 H   0  0  0  0  0  0  0  0  0  0  0  0
    4.6726   -0.6304   -1.5063 H   0  0  0  0  0  0  0  0  0  0  0  0
    1.3605   -1.2105    1.4200 H   0  0  0  0  0  0  0  0  0  0  0  0
   -1.6255    0.4574   -0.1123 H   0  0  0  0  0  0  0  0  0  0  0  0
   -1.3817   -4.9949    0.0355 H   0  0  0  0  0  0  0  0  0  0  0  0
   -6.1340   -3.8694    0.6775 H   0  0  0  0  0  0  0  0  0  0  0  0
   -3.2810    0.5452    1.4190 H   0  0  0  0  0  0  0  0  0  0  0  0
   -5.6474   -0.3480   -1.3472 H   0  0  0  0  0  0  0  0  0  0  0  0
   -7.3134    1.1954   -2.2808 H   0  0  0  0  0  0  0  0  0  0  0  0
   -4.5518    2.6215    1.5873 H   0  0  0  0  0  0  0  0  0  0  0  0
  1  2  1  0
  2  3  1  0
  3  4  2  0
  4  5  1  0
  5  6  2  0
  5  7  1  0
  7  8  1  0
  8  9  1  0
  9 10  1  0
 10 11  1  0
 11 12  1  0
  4 13  1  0
 13 14  1  0
 14 15  1  0
 15 16  2  0
 16 17  1  0
 17 18  2  0
 17 19  1  0
 19 20  1  0
 20 21  2  0
 21 22  1  0
 22 23  2  0
 23 24  1  0
 24 25  1  0
 25 26  1  0
 26 27  2  0
 27 28  1  0
 28 29  2  0
 29 30  1  0
 29 31  1  0
 31 32  1  0
 31 33  2  0
 24 34  2  0
 14  2  2  0
 34 16  1  0
 12  7  1  0
 34 20  1  0
 33 26  1  0
  1 35  1  0
  1 36  1  0
  1 37  1  0
  3 38  1  0
  8 39  1  0
  8 40  1  0
  9 41  1  0
  9 42  1  0
 11 43  1  0
 11 44  1  0
 12 45  1  0
 12 46  1  0
 13 47  1  0
 15 48  1  0
 19 49  1  0
 22 50  1  0
 25 51  1  0
 27 52  1  0
 28 53  1  0
 33 54  1  0
M  END
$$$$
