
     RDKit          3D

 51 53  0  0  0  0  0  0  0  0999 V2000
   -6.5084   -2.2638    0.8438 O   0  0  0  0  0  0  0  0  0  0  0  0
   -6.8640   -1.9562   -0.4760 C   0  0  0  0  0  0  0  0  0  0  0  0
   -5.6302   -1.6039   -1.3352 C   0  0  0  0  0  0  0  0  0  0  0  0
   -4.8531   -0.4359   -0.8534 N   0  0  0  0  0  0  0  0  0  0  0  0
   -5.6816    0.7765   -0.6633 C   0  0  0  0  0  0  0  0  0  0  0  0
   -4.8564    2.0546   -0.8402 C   0  0  0  0  0  0  0  0  0  0  0  0
   -4.1199    2.3260    0.3196 O   0  0  0  0  0  0  0  0  0  0  0  0
   -3.9669   -0.7498    0.2924 C   0  0  0  0  0  0  0  0  0  0  0  0
   -2.5080   -0.5356   -0.1171 C   0  0  0  0  0  0  0  0  0  0  0  0
   -1.6025   -0.8153    0.9975 N   0  0  0  0  0  0  0  0  0  0  0  0
   -0.1807   -0.6862    0.8580 C   0  0  0  0  0  0  0  0  0  0  0  0
    0.6596   -0.9601    1.9438 C   0  0  0  0  0  0  0  0  0  0  0  0
    2.0423   -0.8299    1.7936 C   0  0  0  0  0  0  0  0  0  0  0  0
    2.8644   -1.0774    2.8455 N   0  0  0  0  0  0  0  0  0  0  0  0
    4.2096   -0.9518    2.7244 C   0  0  0  0  0  0  0  0  0  0  0  0
    4.7558   -0.5812    1.5386 N   0  0  0  0  0  0  0  0  0  0  0  0
    3.9860   -0.3155    0.4472 C   0  0  0  0  0  0  0  0  0  0  0  0
    4.6212    0.0231   -0.7980 N   0  0  0  0  0  0  0  0  0  0  0  0
    5.8803    0.7136   -0.8820 C   0  0  0  0  0  0  0  0  0  0  0  0
    6.7087    0.5076   -1.9967 C   0  0  0  0  0  0  0  0  0  0  0  0
    7.9277    1.1829   -2.1071 C   0  0  0  0  0  0  0  0  0  0  0  0
    8.3249    2.0794   -1.1121 C   0  0  0  0  0  0  0  0  0  0  0  0
    7.4994    2.3082   -0.0071 C   0  0  0  0  0  0  0  0  0  0  0  0
    8.0332    3.5502    1.3421 Br  0  0  0  0  0  0  0  0  0  0  0  0
    6.2782    1.6340    0.1062 C   0  0  0  0  0  0  0  0  0  0  0  0
    2.5837   -0.4351    0.5523 C   0  0  0  0  0  0  0  0  0  0  0  0
    1.7012   -0.1559   -0.5059 C   0  0  0  0  0  0  0  0  0  0  0  0
    0.3602   -0.2895   -0.3275 N   0  0  0  0  0  0  0  0  0  0  0  0
   -6.1303   -3.1819    0.8284 H   0  0  0  0  0  0  0  0  0  0  0  0
   -7.5871   -1.1154   -0.4668 H   0  0  0  0  0  0  0  0  0  0  0  0
   -7.3926   -2.8208   -0.9381 H   0  0  0  0  0  0  0  0  0  0  0  0
   -5.9782   -1.3940   -2.3697 H   0  0  0  0  0  0  0  0  0  0  0  0
   -4.9692   -2.4952   -1.4166 H   0  0  0  0  0  0  0  0  0  0  0  0
   -6.4828    0.8088   -1.4357 H   0  0  0  0  0  0  0  0  0  0  0  0
   -6.1809    0.7725    0.3317 H   0  0  0  0  0  0  0  0  0  0  0  0
   -4.1760    1.9458   -1.7146 H   0  0  0  0  0  0  0  0  0  0  0  0
   -5.5481    2.9042   -1.0366 H   0  0  0  0  0  0  0  0  0  0  0  0
   -3.5870    3.1400    0.1231 H   0  0  0  0  0  0  0  0  0  0  0  0
   -4.2001   -0.1228    1.1813 H   0  0  0  0  0  0  0  0  0  0  0  0
   -4.0652   -1.8080    0.6179 H   0  0  0  0  0  0  0  0  0  0  0  0
   -2.2658   -1.2132   -0.9647 H   0  0  0  0  0  0  0  0  0  0  0  0
   -2.3607    0.5124   -0.4522 H   0  0  0  0  0  0  0  0  0  0  0  0
   -1.9931   -1.1168    1.9198 H   0  0  0  0  0  0  0  0  0  0  0  0
    0.2424   -1.2676    2.8953 H   0  0  0  0  0  0  0  0  0  0  0  0
    4.8487   -1.1535    3.5729 H   0  0  0  0  0  0  0  0  0  0  0  0
    4.2177   -0.3615   -1.6814 H   0  0  0  0  0  0  0  0  0  0  0  0
    6.4123   -0.1834   -2.7760 H   0  0  0  0  0  0  0  0  0  0  0  0
    8.5643    1.0121   -2.9656 H   0  0  0  0  0  0  0  0  0  0  0  0
    9.2694    2.6001   -1.2036 H   0  0  0  0  0  0  0  0  0  0  0  0
    5.6374    1.8444    0.9522 H   0  0  0  0  0  0  0  0  0  0  0  0
    2.0598    0.1810   -1.4678 H   0  0  0  0  0  0  0  0  0  0  0  0
  1  2  1  0
  2  3  1  0
  3  4  1  0
  4  5  1  0
  5  6  1  0
  6  7  1  0
  4  8  1  0
  8  9  1  0
  9 10  1  0
 10 11  1  0
 11 12  2  0
 12 13  1  0
 13 14  2  0
 14 15  1  0
 15 16  2  0
 16 17  1  0
 17 18  1  0
 18 19  1  0
 19 20  2  0
 20 21  1  0
 21 22  2  0
 22 23  1  0
 23 24  1  0
 23 25  2  0
 17 26  2  0
 26 27  1  0
 27 28  2  0
 28 11  1  0
 26 13  1  0
 25 19  1  0
  1 29  1  0
  2 30  1  0
  2 31  1  0
  3 32  1  0
  3 33  1  0
  5 34  1  0
  5 35  1  0
  6 36  1  0
  6 37  1  0
  7 38  1  0
  8 39  1  0
  8 40  1  0
  9 41  1  0
  9 42  1  0
 10 43  1  0
 12 44  1  0
 15 45  1  0
 18 46  1  0
 20 47  1  0
 21 48  1  0
 22 49  1  0
 25 50  1  0
 27 51  1  0
M  END
$$$$
