
     RDKit          3D

 46 49  0  0  0  0  0  0  0  0999 V2000
   -4.7863    1.6464    0.0244 C   0  0  0  0  0  0  0  0  0  0  0  0
   -3.8146    0.5761   -0.2676 N   0  0  0  0  0  0  0  0  0  0  0  0
   -3.0453    0.2306    0.9483 C   0  0  0  0  0  0  0  0  0  0  0  0
   -3.8877   -0.5620    1.9002 C   0  0  0  0  0  0  0  0  0  0  0  0
   -4.1335   -1.7746    1.6653 O   0  0  0  0  0  0  0  0  0  0  0  0
   -4.4192    0.0480    3.0316 O   0  0  0  0  0  0  0  0  0  0  0  0
   -2.9096    1.0115   -1.3523 C   0  0  0  0  0  0  0  0  0  0  0  0
   -2.2840   -0.1780   -2.0209 C   0  0  0  0  0  0  0  0  0  0  0  0
   -2.9313   -1.0832   -2.8555 C   0  0  0  0  0  0  0  0  0  0  0  0
   -2.0724   -2.0435   -3.2653 N   0  0  0  0  0  0  0  0  0  0  0  0
   -0.8907   -1.7555   -2.6919 C   0  0  0  0  0  0  0  0  0  0  0  0
    0.2960   -2.4736   -2.8078 C   0  0  0  0  0  0  0  0  0  0  0  0
    1.4230   -2.0056   -2.1080 C   0  0  0  0  0  0  0  0  0  0  0  0
    2.5924   -2.6901   -2.1871 N   0  0  0  0  0  0  0  0  0  0  0  0
    3.6955   -2.2714   -1.5190 C   0  0  0  0  0  0  0  0  0  0  0  0
    3.6485   -1.1489   -0.7584 N   0  0  0  0  0  0  0  0  0  0  0  0
    2.5095   -0.4139   -0.6286 C   0  0  0  0  0  0  0  0  0  0  0  0
    2.5366    0.7922    0.1544 N   0  0  0  0  0  0  0  0  0  0  0  0
    3.3916    0.9745    1.2968 C   0  0  0  0  0  0  0  0  0  0  0  0
    3.7785   -0.1130    2.1026 C   0  0  0  0  0  0  0  0  0  0  0  0
    4.5926    0.0916    3.2207 C   0  0  0  0  0  0  0  0  0  0  0  0
    5.0195    1.3802    3.5520 C   0  0  0  0  0  0  0  0  0  0  0  0
    4.6243    2.4694    2.7693 C   0  0  0  0  0  0  0  0  0  0  0  0
    5.1979    4.2320    3.2302 Br  0  0  0  0  0  0  0  0  0  0  0  0
    3.8084    2.2681    1.6498 C   0  0  0  0  0  0  0  0  0  0  0  0
    1.3433   -0.8248   -1.3104 C   0  0  0  0  0  0  0  0  0  0  0  0
    0.1125   -0.1312   -1.2085 C   0  0  0  0  0  0  0  0  0  0  0  0
   -0.9794   -0.6254   -1.9215 C   0  0  0  0  0  0  0  0  0  0  0  0
   -5.4904    1.3282    0.8214 H   0  0  0  0  0  0  0  0  0  0  0  0
   -4.2738    2.5820    0.3430 H   0  0  0  0  0  0  0  0  0  0  0  0
   -5.4024    1.8601   -0.8752 H   0  0  0  0  0  0  0  0  0  0  0  0
   -2.6575    1.1448    1.4530 H   0  0  0  0  0  0  0  0  0  0  0  0
   -2.1660   -0.3994    0.6906 H   0  0  0  0  0  0  0  0  0  0  0  0
   -4.9981   -0.4714    3.6803 H   0  0  0  0  0  0  0  0  0  0  0  0
   -3.4729    1.5599   -2.1405 H   0  0  0  0  0  0  0  0  0  0  0  0
   -2.1318    1.7093   -0.9708 H   0  0  0  0  0  0  0  0  0  0  0  0
   -3.9746   -1.0421   -3.1434 H   0  0  0  0  0  0  0  0  0  0  0  0
   -2.2896   -2.8491   -3.8937 H   0  0  0  0  0  0  0  0  0  0  0  0
    0.3448   -3.3691   -3.4149 H   0  0  0  0  0  0  0  0  0  0  0  0
    4.6177   -2.8308   -1.5972 H   0  0  0  0  0  0  0  0  0  0  0  0
    2.0033    1.6213   -0.1918 H   0  0  0  0  0  0  0  0  0  0  0  0
    3.4359   -1.1154    1.8807 H   0  0  0  0  0  0  0  0  0  0  0  0
    4.8866   -0.7492    3.8353 H   0  0  0  0  0  0  0  0  0  0  0  0
    5.6526    1.5326    4.4176 H   0  0  0  0  0  0  0  0  0  0  0  0
    3.5043    3.1174    1.0503 H   0  0  0  0  0  0  0  0  0  0  0  0
   -0.0042    0.7451   -0.5878 H   0  0  0  0  0  0  0  0  0  0  0  0
  1  2  1  0
  2  3  1  0
  3  4  1  0
  4  5  2  0
  4  6  1  0
  2  7  1  0
  7  8  1  0
  8  9  2  0
  9 10  1  0
 10 11  1  0
 11 12  2  0
 12 13  1  0
 13 14  2  0
 14 15  1  0
 15 16  2  0
 16 17  1  0
 17 18  1  0
 18 19  1  0
 19 20  2  0
 20 21  1  0
 21 22  2  0
 22 23  1  0
 23 24  1  0
 23 25  2  0
 17 26  2  0
 26 27  1  0
 27 28  2  0
 28  8  1  0
 28 11  1  0
 26 13  1  0
 25 19  1  0
  1 29  1  0
  1 30  1  0
  1 31  1  0
  3 32  1  0
  3 33  1  0
  6 34  1  0
  7 35  1  0
  7 36  1  0
  9 37  1  0
 10 38  1  0
 12 39  1  0
 15 40  1  0
 18 41  1  0
 20 42  1  0
 21 43  1  0
 22 44  1  0
 25 45  1  0
 27 46  1  0
M  END
$$$$
