
     RDKit          3D

 67 74  0  0  0  0  0  0  0  0999 V2000
   -3.4253    2.7887   -0.3706 C   0  0  0  0  0  0  0  0  0  0  0  0
   -2.3156    1.9137   -0.3193 O   0  0  0  0  0  0  0  0  0  0  0  0
   -2.2744    1.2044    0.9058 C   0  0  1  0  0  0  0  0  0  0  0  0
   -2.8080   -0.2425    0.7169 C   0  0  1  0  0  0  0  0  0  0  0  0
   -3.8433   -0.3354   -0.3609 N   0  0  0  0  0  0  0  0  0  0  0  0
   -4.9431   -1.2272    0.0400 C   0  0  0  0  0  0  0  0  0  0  0  0
   -3.2927   -0.8110   -1.9678 S   0  0  0  0  0  6  0  0  0  0  0  0
   -2.0629    0.2754   -2.6775 C   0  0  0  0  0  0  0  0  0  0  0  0
   -4.4716   -0.7850   -2.9015 O   0  0  0  0  0  0  0  0  0  0  0  0
   -2.7494   -2.2136   -1.9428 O   0  0  0  0  0  0  0  0  0  0  0  0
   -1.6670   -1.2493    0.6057 C   0  0  0  0  0  0  0  0  0  0  0  0
   -0.7598   -1.1490    1.8447 C   0  0  2  0  0  0  0  0  0  0  0  0
   -0.6579    0.1404    2.4227 O   0  0  0  0  0  0  0  0  0  0  0  0
   -0.8234    1.2399    1.5341 C   0  0  2  0  0  0  0  0  0  0  0  0
   -0.7070    2.4672    2.4714 C   0  0  0  0  0  0  0  0  0  0  0  0
    0.2793    1.3042    0.5087 N   0  0  0  0  0  0  0  0  0  0  0  0
    0.6503    2.3795   -0.2680 C   0  0  0  0  0  0  0  0  0  0  0  0
    0.0065    3.6219   -0.4290 C   0  0  0  0  0  0  0  0  0  0  0  0
    0.5869    4.5920   -1.2630 C   0  0  0  0  0  0  0  0  0  0  0  0
    1.7981    4.3355   -1.9246 C   0  0  0  0  0  0  0  0  0  0  0  0
    2.4438    3.1046   -1.7612 C   0  0  0  0  0  0  0  0  0  0  0  0
    1.8485    2.1517   -0.9302 C   0  0  0  0  0  0  0  0  0  0  0  0
    2.2644    0.8996   -0.5693 C   0  0  0  0  0  0  0  0  0  0  0  0
    3.4115    0.1539   -0.8986 C   0  0  0  0  0  0  0  0  0  0  0  0
    3.5774   -1.1227   -0.3651 C   0  0  0  0  0  0  0  0  0  0  0  0
    2.5808   -1.6657    0.4717 C   0  0  0  0  0  0  0  0  0  0  0  0
    2.3509   -2.9205    1.0272 C   0  0  0  0  0  0  0  0  0  0  0  0
    3.0627   -4.1233    0.9818 C   0  0  0  0  0  0  0  0  0  0  0  0
    2.5024   -5.2522    1.6013 C   0  0  0  0  0  0  0  0  0  0  0  0
    1.2453   -5.1749    2.2312 C   0  0  0  0  0  0  0  0  0  0  0  0
    0.5313   -3.9669    2.2498 C   0  0  0  0  0  0  0  0  0  0  0  0
    1.1113   -2.8466    1.6450 C   0  0  0  0  0  0  0  0  0  0  0  0
    0.5757   -1.6101    1.5144 N   0  0  0  0  0  0  0  0  0  0  0  0
    1.4621   -0.8975    0.8015 C   0  0  0  0  0  0  0  0  0  0  0  0
    1.2946    0.4043    0.2941 C   0  0  0  0  0  0  0  0  0  0  0  0
    4.8479   -1.6095   -0.8681 C   0  0  0  0  0  0  0  0  0  0  0  0
    5.4170   -2.6851   -0.5588 O   0  0  0  0  0  0  0  0  0  0  0  0
    5.4345   -0.6414   -1.7256 N   0  0  0  0  0  0  0  0  0  0  0  0
    4.5629    0.5284   -1.7879 C   0  0  0  0  0  0  0  0  0  0  0  0
   -4.3844    2.2433   -0.2304 H   0  0  0  0  0  0  0  0  0  0  0  0
   -3.4505    3.2667   -1.3726 H   0  0  0  0  0  0  0  0  0  0  0  0
   -3.3293    3.5957    0.3885 H   0  0  0  0  0  0  0  0  0  0  0  0
   -2.9555    1.6612    1.6699 H   0  0  0  0  0  0  0  0  0  0  0  0
   -3.2899   -0.4882    1.6950 H   0  0  0  0  0  0  0  0  0  0  0  0
   -4.5692   -2.2585    0.2127 H   0  0  0  0  0  0  0  0  0  0  0  0
   -5.7341   -1.2550   -0.7382 H   0  0  0  0  0  0  0  0  0  0  0  0
   -5.4269   -0.8507    0.9660 H   0  0  0  0  0  0  0  0  0  0  0  0
   -2.5048    1.2779   -2.8534 H   0  0  0  0  0  0  0  0  0  0  0  0
   -1.1752    0.3675   -2.0232 H   0  0  0  0  0  0  0  0  0  0  0  0
   -1.7386   -0.1391   -3.6544 H   0  0  0  0  0  0  0  0  0  0  0  0
   -1.0691   -1.0591   -0.3034 H   0  0  0  0  0  0  0  0  0  0  0  0
   -2.0712   -2.2809    0.5414 H   0  0  0  0  0  0  0  0  0  0  0  0
   -1.1934   -1.8005    2.6302 H   0  0  0  0  0  0  0  0  0  0  0  0
   -1.2162    2.2629    3.4392 H   0  0  0  0  0  0  0  0  0  0  0  0
    0.3593    2.6860    2.6941 H   0  0  0  0  0  0  0  0  0  0  0  0
   -1.1894    3.3758    2.0728 H   0  0  0  0  0  0  0  0  0  0  0  0
   -0.9225    3.8710    0.0426 H   0  0  0  0  0  0  0  0  0  0  0  0
    0.0971    5.5480   -1.3944 H   0  0  0  0  0  0  0  0  0  0  0  0
    2.2360    5.0940   -2.5597 H   0  0  0  0  0  0  0  0  0  0  0  0
    3.3770    2.9189   -2.2702 H   0  0  0  0  0  0  0  0  0  0  0  0
    4.0092   -4.2202    0.4840 H   0  0  0  0  0  0  0  0  0  0  0  0
    3.0387   -6.1917    1.5863 H   0  0  0  0  0  0  0  0  0  0  0  0
    0.8234   -6.0545    2.6993 H   0  0  0  0  0  0  0  0  0  0  0  0
   -0.4404   -3.9224    2.7204 H   0  0  0  0  0  0  0  0  0  0  0  0
    6.3604   -0.7317   -2.2004 H   0  0  0  0  0  0  0  0  0  0  0  0
    5.0943    1.4183   -1.3886 H   0  0  0  0  0  0  0  0  0  0  0  0
    4.2204    0.6892   -2.8316 H   0  0  0  0  0  0  0  0  0  0  0  0
  1  2  1  0
  2  3  1  0
  3  4  1  0
  4  5  1  0
  5  6  1  0
  5  7  1  0
  7  8  1  0
  7  9  2  0
  7 10  2  0
  4 11  1  0
 11 12  1  0
 12 13  1  0
 13 14  1  0
 14 15  1  1
 14 16  1  0
 16 17  1  0
 17 18  2  0
 18 19  1  0
 19 20  2  0
 20 21  1  0
 21 22  2  0
 22 23  1  0
 23 24  2  0
 24 25  1  0
 25 26  2  0
 26 27  1  0
 27 28  2  0
 28 29  1  0
 29 30  2  0
 30 31  1  0
 31 32  2  0
 32 33  1  0
 33 34  1  0
 34 35  2  0
 25 36  1  0
 36 37  2  0
 36 38  1  0
 38 39  1  0
 14  3  1  0
 35 16  1  0
 33 12  1  0
 22 17  1  0
 35 23  1  0
 39 24  1  0
 34 26  1  0
 32 27  1  0
  1 40  1  0
  1 41  1  0
  1 42  1  0
  3 43  1  1
  4 44  1  1
  6 45  1  0
  6 46  1  0
  6 47  1  0
  8 48  1  0
  8 49  1  0
  8 50  1  0
 11 51  1  0
 11 52  1  0
 12 53  1  1
 15 54  1  0
 15 55  1  0
 15 56  1  0
 18 57  1  0
 19 58  1  0
 20 59  1  0
 21 60  1  0
 28 61  1  0
 29 62  1  0
 30 63  1  0
 31 64  1  0
 38 65  1  0
 39 66  1  0
 39 67  1  0
M  END
$$$$
