
     RDKit          3D

 69 72  0  0  0  0  0  0  0  0999 V2000
  -10.7408   -1.3678   -2.9532 C   0  0  0  0  0  0  0  0  0  0  0  0
  -10.1331    0.2350   -3.4367 S   0  0  0  0  0  6  0  0  0  0  0  0
  -11.0549    1.2979   -2.9072 O   0  0  0  0  0  0  0  0  0  0  0  0
  -10.1009    0.3167   -4.9373 O   0  0  0  0  0  0  0  0  0  0  0  0
   -8.4812    0.4922   -2.8041 C   0  0  0  0  0  0  0  0  0  0  0  0
   -8.4704    0.5139   -1.2732 C   0  0  0  0  0  0  0  0  0  0  0  0
   -7.1328    0.8621   -0.7700 N   0  0  0  0  0  0  0  0  0  0  0  0
   -6.2870   -0.3306   -0.6219 C   0  0  0  0  0  0  0  0  0  0  0  0
   -4.8896    0.0744   -0.1447 C   0  0  0  0  0  0  0  0  0  0  0  0
   -3.9850   -1.1539    0.0251 C   0  0  0  0  0  0  0  0  0  0  0  0
   -2.5938   -0.7654    0.5261 C   0  0  0  0  0  0  0  0  0  0  0  0
   -2.6900   -0.1847    1.8247 O   0  0  0  0  0  0  0  0  0  0  0  0
   -1.6013    0.2780    2.5779 C   0  0  0  0  0  0  0  0  0  0  0  0
   -1.8634    0.8539    3.8251 C   0  0  0  0  0  0  0  0  0  0  0  0
   -0.8228    1.3445    4.6144 C   0  0  0  0  0  0  0  0  0  0  0  0
    0.4985    1.2568    4.1683 C   0  0  0  0  0  0  0  0  0  0  0  0
    1.5014    1.7561    4.9344 N   0  0  0  0  0  0  0  0  0  0  0  0
    2.7924    1.6901    4.5250 C   0  0  0  0  0  0  0  0  0  0  0  0
    3.1024    1.1086    3.3398 N   0  0  0  0  0  0  0  0  0  0  0  0
    2.1442    0.5931    2.5221 C   0  0  0  0  0  0  0  0  0  0  0  0
    2.5397   -0.0558    1.3008 N   0  0  0  0  0  0  0  0  0  0  0  0
    3.7031    0.3246    0.5442 C   0  0  0  0  0  0  0  0  0  0  0  0
    4.3472   -0.6265   -0.2591 C   0  0  0  0  0  0  0  0  0  0  0  0
    5.4762   -0.2791   -1.0055 C   0  0  0  0  0  0  0  0  0  0  0  0
    5.9801    1.0351   -0.9649 C   0  0  0  0  0  0  0  0  0  0  0  0
    7.1246    1.4257   -1.6814 O   0  0  0  0  0  0  0  0  0  0  0  0
    7.9433    0.5608   -2.4692 C   0  0  0  0  0  0  0  0  0  0  0  0
    8.6972   -0.4140   -1.6015 C   0  0  0  0  0  0  0  0  0  0  0  0
    9.3800    0.0353   -0.4586 C   0  0  0  0  0  0  0  0  0  0  0  0
   10.1022   -0.8658    0.3298 C   0  0  0  0  0  0  0  0  0  0  0  0
   10.1598   -2.2166   -0.0242 C   0  0  0  0  0  0  0  0  0  0  0  0
    9.4939   -2.6701   -1.1662 C   0  0  0  0  0  0  0  0  0  0  0  0
    9.5593   -3.9784   -1.5155 F   0  0  0  0  0  0  0  0  0  0  0  0
    8.7699   -1.7716   -1.9574 C   0  0  0  0  0  0  0  0  0  0  0  0
    5.3165    1.9947   -0.1865 C   0  0  0  0  0  0  0  0  0  0  0  0
    5.8921    3.6533   -0.1390 Cl  0  0  0  0  0  0  0  0  0  0  0  0
    4.1834    1.6447    0.5557 C   0  0  0  0  0  0  0  0  0  0  0  0
    0.7900    0.6595    2.9214 C   0  0  0  0  0  0  0  0  0  0  0  0
   -0.2704    0.1846    2.1231 C   0  0  0  0  0  0  0  0  0  0  0  0
  -10.8747   -1.4055   -1.8526 H   0  0  0  0  0  0  0  0  0  0  0  0
  -10.0173   -2.1493   -3.2657 H   0  0  0  0  0  0  0  0  0  0  0  0
  -11.7195   -1.5548   -3.4419 H   0  0  0  0  0  0  0  0  0  0  0  0
   -7.8297   -0.3220   -3.1814 H   0  0  0  0  0  0  0  0  0  0  0  0
   -8.1003    1.4602   -3.1935 H   0  0  0  0  0  0  0  0  0  0  0  0
   -8.8171   -0.4627   -0.8665 H   0  0  0  0  0  0  0  0  0  0  0  0
   -9.1937    1.2865   -0.9296 H   0  0  0  0  0  0  0  0  0  0  0  0
   -7.2559    1.2793    0.1834 H   0  0  0  0  0  0  0  0  0  0  0  0
   -6.7383   -1.0307    0.1166 H   0  0  0  0  0  0  0  0  0  0  0  0
   -6.1908   -0.8541   -1.5970 H   0  0  0  0  0  0  0  0  0  0  0  0
   -4.9798    0.6071    0.8275 H   0  0  0  0  0  0  0  0  0  0  0  0
   -4.4381    0.7701   -0.8847 H   0  0  0  0  0  0  0  0  0  0  0  0
   -4.4455   -1.8627    0.7489 H   0  0  0  0  0  0  0  0  0  0  0  0
   -3.8793   -1.6741   -0.9525 H   0  0  0  0  0  0  0  0  0  0  0  0
   -1.9651   -1.6801    0.5756 H   0  0  0  0  0  0  0  0  0  0  0  0
   -2.1299   -0.0424   -0.1798 H   0  0  0  0  0  0  0  0  0  0  0  0
   -2.8838    0.9304    4.1801 H   0  0  0  0  0  0  0  0  0  0  0  0
   -1.0456    1.7982    5.5725 H   0  0  0  0  0  0  0  0  0  0  0  0
    3.5771    2.0950    5.1485 H   0  0  0  0  0  0  0  0  0  0  0  0
    2.0449   -0.9329    1.0253 H   0  0  0  0  0  0  0  0  0  0  0  0
    3.9808   -1.6438   -0.2974 H   0  0  0  0  0  0  0  0  0  0  0  0
    5.9466   -1.0408   -1.6106 H   0  0  0  0  0  0  0  0  0  0  0  0
    7.3192    0.0424   -3.2293 H   0  0  0  0  0  0  0  0  0  0  0  0
    8.6838    1.1814   -3.0184 H   0  0  0  0  0  0  0  0  0  0  0  0
    9.3526    1.0813   -0.1772 H   0  0  0  0  0  0  0  0  0  0  0  0
   10.6246   -0.5144    1.2096 H   0  0  0  0  0  0  0  0  0  0  0  0
   10.7266   -2.9083    0.5854 H   0  0  0  0  0  0  0  0  0  0  0  0
    8.2658   -2.1332   -2.8448 H   0  0  0  0  0  0  0  0  0  0  0  0
    3.6732    2.4088    1.1272 H   0  0  0  0  0  0  0  0  0  0  0  0
   -0.0709   -0.2401    1.1504 H   0  0  0  0  0  0  0  0  0  0  0  0
  1  2  1  0
  2  3  2  0
  2  4  2  0
  2  5  1  0
  5  6  1  0
  6  7  1  0
  7  8  1  0
  8  9  1  0
  9 10  1  0
 10 11  1  0
 11 12  1  0
 12 13  1  0
 13 14  2  0
 14 15  1  0
 15 16  2  0
 16 17  1  0
 17 18  2  0
 18 19  1  0
 19 20  2  0
 20 21  1  0
 21 22  1  0
 22 23  2  0
 23 24  1  0
 24 25  2  0
 25 26  1  0
 26 27  1  0
 27 28  1  0
 28 29  2  0
 29 30  1  0
 30 31  2  0
 31 32  1  0
 32 33  1  0
 32 34  2  0
 25 35  1  0
 35 36  1  0
 35 37  2  0
 20 38  1  0
 38 39  2  0
 39 13  1  0
 38 16  1  0
 37 22  1  0
 34 28  1  0
  1 40  1  0
  1 41  1  0
  1 42  1  0
  5 43  1  0
  5 44  1  0
  6 45  1  0
  6 46  1  0
  7 47  1  0
  8 48  1  0
  8 49  1  0
  9 50  1  0
  9 51  1  0
 10 52  1  0
 10 53  1  0
 11 54  1  0
 11 55  1  0
 14 56  1  0
 15 57  1  0
 18 58  1  0
 21 59  1  0
 23 60  1  0
 24 61  1  0
 27 62  1  0
 27 63  1  0
 29 64  1  0
 30 65  1  0
 31 66  1  0
 34 67  1  0
 37 68  1  0
 39 69  1  0
M  END
$$$$
