
     RDKit          3D

 30 32  0  0  0  0  0  0  0  0999 V2000
   -3.8667    2.5471   -0.4588 N   0  0  0  0  0  0  0  0  0  0  0  0
   -3.3713    1.2277   -0.2143 C   0  0  0  0  0  0  0  0  0  0  0  0
   -4.2556    0.1414   -0.1784 C   0  0  0  0  0  0  0  0  0  0  0  0
   -3.7764   -1.1507    0.0462 C   0  0  0  0  0  0  0  0  0  0  0  0
   -2.4094   -1.3688    0.2445 C   0  0  0  0  0  0  0  0  0  0  0  0
   -1.9504   -2.6308    0.4445 N   0  0  0  0  0  0  0  0  0  0  0  0
   -0.6295   -2.8721    0.6330 C   0  0  0  0  0  0  0  0  0  0  0  0
    0.2575   -1.8455    0.6326 N   0  0  0  0  0  0  0  0  0  0  0  0
   -0.1368   -0.5575    0.4349 C   0  0  0  0  0  0  0  0  0  0  0  0
    0.8417    0.4947    0.4990 N   0  0  0  0  0  0  0  0  0  0  0  0
    2.2135    0.3240    0.1015 C   0  0  0  0  0  0  0  0  0  0  0  0
    3.2082    1.1205    0.6909 C   0  0  0  0  0  0  0  0  0  0  0  0
    4.5450    0.9840    0.3053 C   0  0  0  0  0  0  0  0  0  0  0  0
    4.8991    0.0605   -0.6811 C   0  0  0  0  0  0  0  0  0  0  0  0
    3.9150   -0.7245   -1.2898 C   0  0  0  0  0  0  0  0  0  0  0  0
    4.3578   -1.8698   -2.5425 Cl  0  0  0  0  0  0  0  0  0  0  0  0
    2.5757   -0.5903   -0.9058 C   0  0  0  0  0  0  0  0  0  0  0  0
   -1.5064   -0.2813    0.2293 C   0  0  0  0  0  0  0  0  0  0  0  0
   -1.9987    1.0161   -0.0148 C   0  0  0  0  0  0  0  0  0  0  0  0
   -3.2183    3.3653   -0.4893 H   0  0  0  0  0  0  0  0  0  0  0  0
   -4.8862    2.7158   -0.6107 H   0  0  0  0  0  0  0  0  0  0  0  0
   -5.3163    0.2958   -0.3319 H   0  0  0  0  0  0  0  0  0  0  0  0
   -4.4697   -1.9827    0.0618 H   0  0  0  0  0  0  0  0  0  0  0  0
   -0.2830   -3.8840    0.7910 H   0  0  0  0  0  0  0  0  0  0  0  0
    0.5805    1.3857    0.9778 H   0  0  0  0  0  0  0  0  0  0  0  0
    2.9476    1.8412    1.4559 H   0  0  0  0  0  0  0  0  0  0  0  0
    5.3068    1.5961    0.7707 H   0  0  0  0  0  0  0  0  0  0  0  0
    5.9359   -0.0394   -0.9761 H   0  0  0  0  0  0  0  0  0  0  0  0
    1.8221   -1.1841   -1.4064 H   0  0  0  0  0  0  0  0  0  0  0  0
   -1.3318    1.8656   -0.0687 H   0  0  0  0  0  0  0  0  0  0  0  0
  1  2  1  0
  2  3  2  0
  3  4  1  0
  4  5  2  0
  5  6  1  0
  6  7  2  0
  7  8  1  0
  8  9  2  0
  9 10  1  0
 10 11  1  0
 11 12  2  0
 12 13  1  0
 13 14  2  0
 14 15  1  0
 15 16  1  0
 15 17  2  0
  9 18  1  0
 18 19  2  0
 19  2  1  0
 18  5  1  0
 17 11  1  0
  1 20  1  0
  1 21  1  0
  3 22  1  0
  4 23  1  0
  7 24  1  0
 10 25  1  0
 12 26  1  0
 13 27  1  0
 14 28  1  0
 17 29  1  0
 19 30  1  0
M  END
$$$$
