
     RDKit          3D

 54 57  0  0  0  0  0  0  0  0999 V2000
    0.5166   -2.4406    2.8205 C   0  0  0  0  0  0  0  0  0  0  0  0
   -0.3149   -1.4373    2.2465 O   0  0  0  0  0  0  0  0  0  0  0  0
    0.1508   -0.3538    1.4838 C   0  0  0  0  0  0  0  0  0  0  0  0
    1.5208   -0.1629    1.2158 C   0  0  0  0  0  0  0  0  0  0  0  0
    1.9534    0.9364    0.4520 C   0  0  0  0  0  0  0  0  0  0  0  0
    3.3131    1.1759    0.1509 C   0  0  0  0  0  0  0  0  0  0  0  0
    4.3612    0.3523    0.6912 N   0  0  0  0  0  0  0  0  0  0  0  0
    5.6057    0.1133    0.0093 C   0  0  0  0  0  0  0  0  0  0  0  0
    5.6698    0.0887   -1.3968 C   0  0  0  0  0  0  0  0  0  0  0  0
    6.8815   -0.1671   -2.0451 C   0  0  0  0  0  0  0  0  0  0  0  0
    8.0382   -0.4110   -1.2996 C   0  0  0  0  0  0  0  0  0  0  0  0
    9.6921   -0.7617   -2.1879 Br  0  0  0  0  0  0  0  0  0  0  0  0
    7.9813   -0.4055    0.0970 C   0  0  0  0  0  0  0  0  0  0  0  0
    6.7711   -0.1511    0.7509 C   0  0  0  0  0  0  0  0  0  0  0  0
    6.7390   -0.1475    2.1074 F   0  0  0  0  0  0  0  0  0  0  0  0
    3.6424    2.2453   -0.6244 N   0  0  0  0  0  0  0  0  0  0  0  0
    2.6993    3.0862   -1.1176 C   0  0  0  0  0  0  0  0  0  0  0  0
    1.3896    2.8808   -0.8341 N   0  0  0  0  0  0  0  0  0  0  0  0
    0.9950    1.8329   -0.0658 C   0  0  0  0  0  0  0  0  0  0  0  0
   -0.3631    1.6451    0.2024 C   0  0  0  0  0  0  0  0  0  0  0  0
   -0.7934    0.5518    0.9770 C   0  0  0  0  0  0  0  0  0  0  0  0
   -2.1489    0.3254    1.2726 O   0  0  0  0  0  0  0  0  0  0  0  0
   -3.2569    1.0286    0.7077 C   0  0  0  0  0  0  0  0  0  0  0  0
   -3.5006    0.6114   -0.7605 C   0  0  2  0  0  0  0  0  0  0  0  0
   -4.6733    1.4128   -1.3863 C   0  0  0  0  0  0  0  0  0  0  0  0
   -5.9107    0.5490   -1.6702 C   0  0  0  0  0  0  0  0  0  0  0  0
   -6.1651   -0.4430   -0.5266 C   0  0  0  0  0  0  0  0  0  0  0  0
   -4.9990   -1.3178   -0.2250 N   0  0  0  0  0  0  0  0  0  0  0  0
   -5.2922   -2.7272   -0.5269 C   0  0  0  0  0  0  0  0  0  0  0  0
   -3.7375   -0.9084   -0.8825 C   0  0  0  0  0  0  0  0  0  0  0  0
    1.0675   -2.9824    2.0229 H   0  0  0  0  0  0  0  0  0  0  0  0
    1.2308   -1.9815    3.5362 H   0  0  0  0  0  0  0  0  0  0  0  0
   -0.1178   -3.1665    3.3689 H   0  0  0  0  0  0  0  0  0  0  0  0
    2.2366   -0.8794    1.5883 H   0  0  0  0  0  0  0  0  0  0  0  0
    4.2678    0.0159    1.6754 H   0  0  0  0  0  0  0  0  0  0  0  0
    4.7814    0.2480   -1.9937 H   0  0  0  0  0  0  0  0  0  0  0  0
    6.9187   -0.1824   -3.1267 H   0  0  0  0  0  0  0  0  0  0  0  0
    8.8749   -0.5994    0.6764 H   0  0  0  0  0  0  0  0  0  0  0  0
    2.9934    3.9261   -1.7316 H   0  0  0  0  0  0  0  0  0  0  0  0
   -1.0715    2.3568   -0.1978 H   0  0  0  0  0  0  0  0  0  0  0  0
   -3.0955    2.1246    0.7905 H   0  0  0  0  0  0  0  0  0  0  0  0
   -4.1575    0.7944    1.3130 H   0  0  0  0  0  0  0  0  0  0  0  0
   -2.5820    0.8493   -1.3392 H   0  0  0  0  0  0  0  0  0  0  0  0
   -4.3396    1.8651   -2.3459 H   0  0  0  0  0  0  0  0  0  0  0  0
   -4.9726    2.2587   -0.7286 H   0  0  0  0  0  0  0  0  0  0  0  0
   -5.7689   -0.0137   -2.6188 H   0  0  0  0  0  0  0  0  0  0  0  0
   -6.7989    1.2047   -1.7998 H   0  0  0  0  0  0  0  0  0  0  0  0
   -7.0789   -1.0307   -0.7722 H   0  0  0  0  0  0  0  0  0  0  0  0
   -6.4104    0.1344    0.3903 H   0  0  0  0  0  0  0  0  0  0  0  0
   -6.1581   -3.0728    0.0777 H   0  0  0  0  0  0  0  0  0  0  0  0
   -5.5235   -2.8621   -1.6069 H   0  0  0  0  0  0  0  0  0  0  0  0
   -4.4260   -3.3691   -0.2563 H   0  0  0  0  0  0  0  0  0  0  0  0
   -3.7499   -1.1839   -1.9622 H   0  0  0  0  0  0  0  0  0  0  0  0
   -2.8851   -1.4549   -0.4227 H   0  0  0  0  0  0  0  0  0  0  0  0
  1  2  1  0
  2  3  1  0
  3  4  2  0
  4  5  1  0
  5  6  2  0
  6  7  1  0
  7  8  1  0
  8  9  2  0
  9 10  1  0
 10 11  2  0
 11 12  1  0
 11 13  1  0
 13 14  2  0
 14 15  1  0
  6 16  1  0
 16 17  2  0
 17 18  1  0
 18 19  2  0
 19 20  1  0
 20 21  2  0
 21 22  1  0
 22 23  1  0
 23 24  1  0
 24 25  1  0
 25 26  1  0
 26 27  1  0
 27 28  1  0
 28 29  1  0
 28 30  1  0
 21  3  1  0
 30 24  1  0
 19  5  1  0
 14  8  1  0
  1 31  1  0
  1 32  1  0
  1 33  1  0
  4 34  1  0
  7 35  1  0
  9 36  1  0
 10 37  1  0
 13 38  1  0
 17 39  1  0
 20 40  1  0
 23 41  1  0
 23 42  1  0
 24 43  1  6
 25 44  1  0
 25 45  1  0
 26 46  1  0
 26 47  1  0
 27 48  1  0
 27 49  1  0
 29 50  1  0
 29 51  1  0
 29 52  1  0
 30 53  1  0
 30 54  1  0
M  END
$$$$
