
     RDKit          3D

 42 44  0  0  0  0  0  0  0  0999 V2000
   -4.9812   -1.0652   -0.8993 C   0  0  0  0  0  0  0  0  0  0  0  0
   -5.5071   -1.5506    0.3160 O   0  0  0  0  0  0  0  0  0  0  0  0
   -5.9614   -0.4807    1.1265 C   0  0  0  0  0  0  0  0  0  0  0  0
   -5.0992   -0.3751    2.3808 C   0  0  0  0  0  0  0  0  0  0  0  0
   -3.7328   -0.0422    2.0138 N   0  0  0  0  0  0  0  0  0  0  0  0
   -2.8467    0.1536    2.9042 N   0  0  0  0  0  0  0  0  0  0  0  0
   -1.5189    0.4730    2.5675 N   0  0  0  0  0  0  0  0  0  0  0  0
   -1.0933    0.7853    1.2296 C   0  0  0  0  0  0  0  0  0  0  0  0
   -1.8871    1.5740    0.3803 C   0  0  0  0  0  0  0  0  0  0  0  0
   -1.4480    1.8890   -0.9068 C   0  0  0  0  0  0  0  0  0  0  0  0
   -0.2077    1.4300   -1.3589 C   0  0  0  0  0  0  0  0  0  0  0  0
    0.2179    1.7565   -2.6061 N   0  0  0  0  0  0  0  0  0  0  0  0
    1.4220    1.3355   -3.0658 C   0  0  0  0  0  0  0  0  0  0  0  0
    2.2212    0.5701   -2.2808 N   0  0  0  0  0  0  0  0  0  0  0  0
    1.8552    0.2111   -1.0196 C   0  0  0  0  0  0  0  0  0  0  0  0
    2.7198   -0.6466   -0.2544 N   0  0  0  0  0  0  0  0  0  0  0  0
    4.1530   -0.6351   -0.3749 C   0  0  0  0  0  0  0  0  0  0  0  0
    4.8805   -1.8004   -0.0851 C   0  0  0  0  0  0  0  0  0  0  0  0
    6.2755   -1.8052   -0.1775 C   0  0  0  0  0  0  0  0  0  0  0  0
    6.9573   -0.6435   -0.5477 C   0  0  0  0  0  0  0  0  0  0  0  0
    6.2452    0.5286   -0.8195 C   0  0  0  0  0  0  0  0  0  0  0  0
    7.1795    2.1222   -1.3046 Br  0  0  0  0  0  0  0  0  0  0  0  0
    4.8488    0.5367   -0.7280 C   0  0  0  0  0  0  0  0  0  0  0  0
    0.6081    0.6420   -0.5163 C   0  0  0  0  0  0  0  0  0  0  0  0
    0.1629    0.3440    0.7865 C   0  0  0  0  0  0  0  0  0  0  0  0
   -4.5962   -1.9234   -1.4873 H   0  0  0  0  0  0  0  0  0  0  0  0
   -5.7731   -0.5683   -1.5022 H   0  0  0  0  0  0  0  0  0  0  0  0
   -4.1320   -0.3684   -0.7223 H   0  0  0  0  0  0  0  0  0  0  0  0
   -5.9918    0.5127    0.6154 H   0  0  0  0  0  0  0  0  0  0  0  0
   -7.0030   -0.7053    1.4396 H   0  0  0  0  0  0  0  0  0  0  0  0
   -5.5093    0.4189    3.0420 H   0  0  0  0  0  0  0  0  0  0  0  0
   -5.1132   -1.3419    2.9294 H   0  0  0  0  0  0  0  0  0  0  0  0
   -0.7934    0.3784    3.3129 H   0  0  0  0  0  0  0  0  0  0  0  0
   -2.8338    1.9724    0.7202 H   0  0  0  0  0  0  0  0  0  0  0  0
   -2.0694    2.5021   -1.5480 H   0  0  0  0  0  0  0  0  0  0  0  0
    1.7435    1.6052   -4.0622 H   0  0  0  0  0  0  0  0  0  0  0  0
    2.2852   -1.4037    0.3194 H   0  0  0  0  0  0  0  0  0  0  0  0
    4.3649   -2.7075    0.2042 H   0  0  0  0  0  0  0  0  0  0  0  0
    6.8283   -2.7100    0.0396 H   0  0  0  0  0  0  0  0  0  0  0  0
    8.0375   -0.6529   -0.6164 H   0  0  0  0  0  0  0  0  0  0  0  0
    4.3146    1.4592   -0.9134 H   0  0  0  0  0  0  0  0  0  0  0  0
    0.7776   -0.2265    1.4692 H   0  0  0  0  0  0  0  0  0  0  0  0
  1  2  1  0
  2  3  1  0
  3  4  1  0
  4  5  1  0
  5  6  2  0
  6  7  1  0
  7  8  1  0
  8  9  2  0
  9 10  1  0
 10 11  2  0
 11 12  1  0
 12 13  2  0
 13 14  1  0
 14 15  2  0
 15 16  1  0
 16 17  1  0
 17 18  2  0
 18 19  1  0
 19 20  2  0
 20 21  1  0
 21 22  1  0
 21 23  2  0
 15 24  1  0
 24 25  2  0
 25  8  1  0
 24 11  1  0
 23 17  1  0
  1 26  1  0
  1 27  1  0
  1 28  1  0
  3 29  1  0
  3 30  1  0
  4 31  1  0
  4 32  1  0
  7 33  1  0
  9 34  1  0
 10 35  1  0
 13 36  1  0
 16 37  1  0
 18 38  1  0
 19 39  1  0
 20 40  1  0
 23 41  1  0
 25 42  1  0
M  END
$$$$
