
     RDKit          3D

 53 55  0  0  0  0  0  0  0  0999 V2000
    0.4300    3.3304   -1.5758 C   0  0  0  0  0  0  0  0  0  0  0  0
   -0.3984    2.1975   -1.3351 O   0  0  0  0  0  0  0  0  0  0  0  0
    0.0212    1.0247   -0.6861 C   0  0  0  0  0  0  0  0  0  0  0  0
    1.3384    0.8623   -0.2124 C   0  0  0  0  0  0  0  0  0  0  0  0
    1.7223   -0.3233    0.4412 C   0  0  0  0  0  0  0  0  0  0  0  0
    3.0279   -0.5401    0.9364 C   0  0  0  0  0  0  0  0  0  0  0  0
    4.0325    0.4881    0.8885 N   0  0  0  0  0  0  0  0  0  0  0  0
    5.4398    0.2090    0.7779 C   0  0  0  0  0  0  0  0  0  0  0  0
    5.9023   -0.9247    0.0834 C   0  0  0  0  0  0  0  0  0  0  0  0
    7.2732   -1.1707   -0.0354 C   0  0  0  0  0  0  0  0  0  0  0  0
    8.1963   -0.2843    0.5264 C   0  0  0  0  0  0  0  0  0  0  0  0
    9.9156   -0.5936    0.3731 Cl  0  0  0  0  0  0  0  0  0  0  0  0
    7.7471    0.8534    1.2035 C   0  0  0  0  0  0  0  0  0  0  0  0
    6.3763    1.1044    1.3249 C   0  0  0  0  0  0  0  0  0  0  0  0
    5.9618    2.2129    1.9887 F   0  0  0  0  0  0  0  0  0  0  0  0
    3.3255   -1.7318    1.5232 N   0  0  0  0  0  0  0  0  0  0  0  0
    2.4018   -2.7178    1.6440 C   0  0  0  0  0  0  0  0  0  0  0  0
    1.1403   -2.5283    1.1849 N   0  0  0  0  0  0  0  0  0  0  0  0
    0.7790   -1.3621    0.5906 C   0  0  0  0  0  0  0  0  0  0  0  0
   -0.5272   -1.2004    0.1220 C   0  0  0  0  0  0  0  0  0  0  0  0
   -0.9138   -0.0070   -0.5148 C   0  0  0  0  0  0  0  0  0  0  0  0
   -2.2171    0.1920   -0.9965 O   0  0  0  0  0  0  0  0  0  0  0  0
   -3.2814   -0.7489   -0.8710 C   0  0  0  0  0  0  0  0  0  0  0  0
   -4.5604   -0.1812   -1.5159 C   0  0  0  0  0  0  0  0  0  0  0  0
   -5.0377    1.1188   -0.8358 C   0  0  0  0  0  0  0  0  0  0  0  0
   -5.7123    0.8447    0.5177 C   0  0  0  0  0  0  0  0  0  0  0  0
   -6.8167   -0.1149    0.3837 N   0  0  0  0  0  0  0  0  0  0  0  0
   -6.3427   -1.3966   -0.1556 C   0  0  0  0  0  0  0  0  0  0  0  0
   -5.6982   -1.2206   -1.5397 C   0  0  0  0  0  0  0  0  0  0  0  0
    0.6878    0.0000    0.0000 Cl  0  0  0  0  0  0  0  0  0  0  0  0
   -0.1645    4.1099   -2.0950 H   0  0  0  0  0  0  0  0  0  0  0  0
    0.7977    3.7461   -0.6138 H   0  0  0  0  0  0  0  0  0  0  0  0
    1.2862    3.0466   -2.2235 H   0  0  0  0  0  0  0  0  0  0  0  0
    2.0574    1.6512   -0.3713 H   0  0  0  0  0  0  0  0  0  0  0  0
    3.7397    1.4754    1.0636 H   0  0  0  0  0  0  0  0  0  0  0  0
    5.2059   -1.6090   -0.3830 H   0  0  0  0  0  0  0  0  0  0  0  0
    7.6167   -2.0473   -0.5702 H   0  0  0  0  0  0  0  0  0  0  0  0
    8.4601    1.5442    1.6354 H   0  0  0  0  0  0  0  0  0  0  0  0
    2.6702   -3.6538    2.1138 H   0  0  0  0  0  0  0  0  0  0  0  0
   -1.2323   -2.0105    0.2536 H   0  0  0  0  0  0  0  0  0  0  0  0
   -2.9958   -1.6873   -1.3946 H   0  0  0  0  0  0  0  0  0  0  0  0
   -3.4490   -0.9777    0.2020 H   0  0  0  0  0  0  0  0  0  0  0  0
   -4.3089    0.0624   -2.5725 H   0  0  0  0  0  0  0  0  0  0  0  0
   -5.7708    1.6245   -1.5022 H   0  0  0  0  0  0  0  0  0  0  0  0
   -4.1890    1.8216   -0.6925 H   0  0  0  0  0  0  0  0  0  0  0  0
   -6.1120    1.8007    0.9193 H   0  0  0  0  0  0  0  0  0  0  0  0
   -4.9705    0.4697    1.2552 H   0  0  0  0  0  0  0  0  0  0  0  0
   -7.5364    0.2825   -0.2654 H   0  0  0  0  0  0  0  0  0  0  0  0
   -5.6248   -1.8644    0.5524 H   0  0  0  0  0  0  0  0  0  0  0  0
   -7.2059   -2.0905   -0.2473 H   0  0  0  0  0  0  0  0  0  0  0  0
   -5.3203   -2.2013   -1.9017 H   0  0  0  0  0  0  0  0  0  0  0  0
   -6.4792   -0.8847   -2.2568 H   0  0  0  0  0  0  0  0  0  0  0  0
   -0.6878    0.0000    0.0000 H   0  0  0  0  0  0  0  0  0  0  0  0
  1  2  1  0
  2  3  1  0
  3  4  2  0
  4  5  1  0
  5  6  2  0
  6  7  1  0
  7  8  1  0
  8  9  2  0
  9 10  1  0
 10 11  2  0
 11 12  1  0
 11 13  1  0
 13 14  2  0
 14 15  1  0
  6 16  1  0
 16 17  2  0
 17 18  1  0
 18 19  2  0
 19 20  1  0
 20 21  2  0
 21 22  1  0
 22 23  1  0
 23 24  1  0
 24 25  1  0
 25 26  1  0
 26 27  1  0
 27 28  1  0
 28 29  1  0
 21  3  1  0
 29 24  1  0
 19  5  1  0
 14  8  1  0
  1 31  1  0
  1 32  1  0
  1 33  1  0
  4 34  1  0
  7 35  1  0
  9 36  1  0
 10 37  1  0
 13 38  1  0
 17 39  1  0
 20 40  1  0
 23 41  1  0
 23 42  1  0
 24 43  1  0
 25 44  1  0
 25 45  1  0
 26 46  1  0
 26 47  1  0
 27 48  1  0
 28 49  1  0
 28 50  1  0
 29 51  1  0
 29 52  1  0
 30 53  1  0
M  END
$$$$
