
     RDKit          3D

 48 51  0  0  0  0  0  0  0  0999 V2000
    7.6637    2.0377    1.9428 C   0  0  0  0  0  0  0  0  0  0  0  0
    7.4939    0.9820    0.5218 S   0  0  0  0  0  6  0  0  0  0  0  0
    7.4376    1.8272   -0.7197 O   0  0  0  0  0  0  0  0  0  0  0  0
    8.6776    0.0592    0.4451 O   0  0  0  0  0  0  0  0  0  0  0  0
    5.9921    0.0290    0.6724 C   0  0  0  0  0  0  0  0  0  0  0  0
    5.8077   -0.8923   -0.5341 C   0  0  0  0  0  0  0  0  0  0  0  0
    4.5778   -1.6694   -0.3986 N   0  0  0  0  0  0  0  0  0  0  0  0
    3.2765   -1.1256   -0.6516 C   0  0  0  0  0  0  0  0  0  0  0  0
    2.1439   -1.8405   -0.4906 N   0  0  0  0  0  0  0  0  0  0  0  0
    1.0302   -1.1194   -0.8033 C   0  0  0  0  0  0  0  0  0  0  0  0
   -0.3288   -1.7132   -0.7047 C   0  0  0  0  0  0  0  0  0  0  0  0
   -0.4732   -3.1094   -0.6175 C   0  0  0  0  0  0  0  0  0  0  0  0
   -1.7376   -3.6902   -0.5100 C   0  0  0  0  0  0  0  0  0  0  0  0
   -2.8808   -2.8887   -0.4912 C   0  0  0  0  0  0  0  0  0  0  0  0
   -4.1046   -3.4635   -0.3680 N   0  0  0  0  0  0  0  0  0  0  0  0
   -5.2308   -2.7092   -0.3371 C   0  0  0  0  0  0  0  0  0  0  0  0
   -5.1490   -1.3589   -0.4382 N   0  0  0  0  0  0  0  0  0  0  0  0
   -3.9526   -0.7210   -0.5610 C   0  0  0  0  0  0  0  0  0  0  0  0
   -3.9323    0.7080   -0.7224 N   0  0  0  0  0  0  0  0  0  0  0  0
   -4.9015    1.5856   -0.1230 C   0  0  0  0  0  0  0  0  0  0  0  0
   -5.5335    1.2583    1.0910 C   0  0  0  0  0  0  0  0  0  0  0  0
   -6.4563    2.1373    1.6652 C   0  0  0  0  0  0  0  0  0  0  0  0
   -6.7494    3.3537    1.0431 C   0  0  0  0  0  0  0  0  0  0  0  0
   -7.6458    4.1992    1.6106 F   0  0  0  0  0  0  0  0  0  0  0  0
   -6.1118    3.6972   -0.1552 C   0  0  0  0  0  0  0  0  0  0  0  0
   -6.4636    5.2277   -0.9399 Cl  0  0  0  0  0  0  0  0  0  0  0  0
   -5.1871    2.8184   -0.7311 C   0  0  0  0  0  0  0  0  0  0  0  0
   -2.7645   -1.4849   -0.5889 C   0  0  0  0  0  0  0  0  0  0  0  0
   -1.4834   -0.9053   -0.6780 C   0  0  0  0  0  0  0  0  0  0  0  0
    1.2902    0.1880   -1.2300 C   0  0  0  0  0  0  0  0  0  0  0  0
    2.9544    0.4302   -1.2038 S   0  0  0  0  0  0  0  0  0  0  0  0
    8.5957    2.6331    1.8545 H   0  0  0  0  0  0  0  0  0  0  0  0
    7.7078    1.4183    2.8623 H   0  0  0  0  0  0  0  0  0  0  0  0
    6.7930    2.7230    2.0023 H   0  0  0  0  0  0  0  0  0  0  0  0
    5.1356    0.7297    0.7562 H   0  0  0  0  0  0  0  0  0  0  0  0
    6.0437   -0.5783    1.6011 H   0  0  0  0  0  0  0  0  0  0  0  0
    6.6707   -1.5907   -0.5912 H   0  0  0  0  0  0  0  0  0  0  0  0
    5.7822   -0.3051   -1.4774 H   0  0  0  0  0  0  0  0  0  0  0  0
    4.6527   -2.6811   -0.1482 H   0  0  0  0  0  0  0  0  0  0  0  0
    0.3944   -3.7572   -0.6343 H   0  0  0  0  0  0  0  0  0  0  0  0
   -1.8261   -4.7674   -0.4384 H   0  0  0  0  0  0  0  0  0  0  0  0
   -6.1966   -3.1852   -0.2386 H   0  0  0  0  0  0  0  0  0  0  0  0
   -3.2627    1.1188   -1.4113 H   0  0  0  0  0  0  0  0  0  0  0  0
   -5.3013    0.3350    1.6052 H   0  0  0  0  0  0  0  0  0  0  0  0
   -6.9393    1.8770    2.5983 H   0  0  0  0  0  0  0  0  0  0  0  0
   -4.6963    3.0910   -1.6573 H   0  0  0  0  0  0  0  0  0  0  0  0
   -1.3789    0.1686   -0.6905 H   0  0  0  0  0  0  0  0  0  0  0  0
    0.5666    0.9233   -1.5521 H   0  0  0  0  0  0  0  0  0  0  0  0
  1  2  1  0
  2  3  2  0
  2  4  2  0
  2  5  1  0
  5  6  1  0
  6  7  1  0
  7  8  1  0
  8  9  2  0
  9 10  1  0
 10 11  1  0
 11 12  2  0
 12 13  1  0
 13 14  2  0
 14 15  1  0
 15 16  2  0
 16 17  1  0
 17 18  2  0
 18 19  1  0
 19 20  1  0
 20 21  2  0
 21 22  1  0
 22 23  2  0
 23 24  1  0
 23 25  1  0
 25 26  1  0
 25 27  2  0
 18 28  1  0
 28 29  2  0
 10 30  2  0
 30 31  1  0
 31  8  1  0
 29 11  1  0
 28 14  1  0
 27 20  1  0
  1 32  1  0
  1 33  1  0
  1 34  1  0
  5 35  1  0
  5 36  1  0
  6 37  1  0
  6 38  1  0
  7 39  1  0
 12 40  1  0
 13 41  1  0
 16 42  1  0
 19 43  1  0
 21 44  1  0
 22 45  1  0
 27 46  1  0
 29 47  1  0
 30 48  1  0
M  END
$$$$
