
     RDKit          3D

 20 20  0  0  0  0  0  0  0  0999 V2000
    1.1219   -2.9549    0.5249 N   0  0  0  0  0  0  0  0  0  0  0  0
    1.4665   -1.8879    0.2377 C   0  0  0  0  0  0  0  0  0  0  0  0
    1.8993   -0.5554   -0.1227 C   0  0  0  0  0  0  0  0  0  0  0  0
    1.0148    0.4465   -0.2980 C   0  0  0  0  0  0  0  0  0  0  0  0
   -0.4457    0.3342   -0.0752 C   0  0  0  0  0  0  0  0  0  0  0  0
   -1.3238    0.9021   -1.0120 C   0  0  0  0  0  0  0  0  0  0  0  0
   -2.7066    0.8415   -0.8126 C   0  0  0  0  0  0  0  0  0  0  0  0
   -3.2233    0.2305    0.3332 C   0  0  0  0  0  0  0  0  0  0  0  0
   -4.5641    0.1752    0.5264 F   0  0  0  0  0  0  0  0  0  0  0  0
   -2.3566   -0.3118    1.2859 C   0  0  0  0  0  0  0  0  0  0  0  0
   -0.9733   -0.2535    1.0898 C   0  0  0  0  0  0  0  0  0  0  0  0
    3.3414   -0.3318   -0.3673 C   0  0  0  0  0  0  0  0  0  0  0  0
    4.1585   -1.2847   -0.2457 O   0  0  0  0  0  0  0  0  0  0  0  0
    3.8136    0.9281   -0.7284 O   0  0  0  0  0  0  0  0  0  0  0  0
    1.3655    1.3971   -0.6823 H   0  0  0  0  0  0  0  0  0  0  0  0
   -0.9379    1.3828   -1.9029 H   0  0  0  0  0  0  0  0  0  0  0  0
   -3.3767    1.2715   -1.5459 H   0  0  0  0  0  0  0  0  0  0  0  0
   -2.7554   -0.7692    2.1823 H   0  0  0  0  0  0  0  0  0  0  0  0
   -0.3185   -0.6460    1.8572 H   0  0  0  0  0  0  0  0  0  0  0  0
    4.8003    1.0858   -0.8953 H   0  0  0  0  0  0  0  0  0  0  0  0
  1  2  3  0
  2  3  1  0
  3  4  2  0
  4  5  1  0
  5  6  2  0
  6  7  1  0
  7  8  2  0
  8  9  1  0
  8 10  1  0
 10 11  2  0
  3 12  1  0
 12 13  2  0
 12 14  1  0
 11  5  1  0
  4 15  1  0
  6 16  1  0
  7 17  1  0
 10 18  1  0
 11 19  1  0
 14 20  1  0
M  END
$$$$
