
     RDKit          3D

 57 60  0  0  0  0  0  0  0  0999 V2000
    8.4717   -0.6107    0.0683 C   0  0  0  0  0  0  0  0  0  0  0  0
    7.0984   -0.4534    0.5734 N   0  0  0  0  0  0  0  0  0  0  0  0
    6.2270   -1.5730    0.1366 C   0  0  0  0  0  0  0  0  0  0  0  0
    5.3283   -1.1878   -1.0515 C   0  0  0  0  0  0  0  0  0  0  0  0
    4.4519   -0.0263   -0.7450 N   0  0  0  0  0  0  0  0  0  0  0  0
    3.0844   -0.4547   -0.3710 C   0  0  0  0  0  0  0  0  0  0  0  0
    2.0695    0.7044   -0.4704 C   0  0  0  0  0  0  0  0  0  0  0  0
    1.7194    1.3040    0.8990 C   0  0  0  0  0  0  0  0  0  0  0  0
    0.7070    2.3490    0.7556 N   0  0  0  0  0  0  0  0  0  0  0  0
   -0.6810    2.0594    0.5472 C   0  0  0  0  0  0  0  0  0  0  0  0
   -1.5728    3.0789    0.4351 N   0  0  0  0  0  0  0  0  0  0  0  0
   -2.8948    2.8373    0.2431 C   0  0  0  0  0  0  0  0  0  0  0  0
   -3.3570    1.5201    0.1587 C   0  0  0  0  0  0  0  0  0  0  0  0
   -4.7042    1.2302   -0.0462 C   0  0  0  0  0  0  0  0  0  0  0  0
   -5.1196   -0.0990   -0.1439 C   0  0  0  0  0  0  0  0  0  0  0  0
   -6.5515   -0.3994   -0.3688 C   0  0  0  0  0  0  0  0  0  0  0  0
   -7.3502   -0.8923    0.6856 C   0  0  0  0  0  0  0  0  0  0  0  0
   -6.6904   -1.1484    2.2985 Cl  0  0  0  0  0  0  0  0  0  0  0  0
   -8.7044   -1.1688    0.4662 C   0  0  0  0  0  0  0  0  0  0  0  0
   -9.2714   -0.9589   -0.7916 C   0  0  0  0  0  0  0  0  0  0  0  0
   -8.4893   -0.4702   -1.8395 C   0  0  0  0  0  0  0  0  0  0  0  0
   -7.1335   -0.1882   -1.6369 C   0  0  0  0  0  0  0  0  0  0  0  0
   -6.1858    0.4069   -2.9971 Cl  0  0  0  0  0  0  0  0  0  0  0  0
   -4.1685   -1.1307   -0.0296 C   0  0  0  0  0  0  0  0  0  0  0  0
   -4.5446   -2.3301   -0.1545 O   0  0  0  0  0  0  0  0  0  0  0  0
   -2.8455   -0.8386    0.2079 N   0  0  0  0  0  0  0  0  0  0  0  0
   -1.8558   -1.9256    0.3092 C   0  0  0  0  0  0  0  0  0  0  0  0
   -2.4288    0.4690    0.2812 C   0  0  0  0  0  0  0  0  0  0  0  0
   -1.1147    0.7721    0.4712 N   0  0  0  0  0  0  0  0  0  0  0  0
    5.0355    0.8934    0.2633 C   0  0  0  0  0  0  0  0  0  0  0  0
    6.5675    0.8819    0.2174 C   0  0  0  0  0  0  0  0  0  0  0  0
    8.4843   -0.6630   -1.0431 H   0  0  0  0  0  0  0  0  0  0  0  0
    9.1044    0.2410    0.3994 H   0  0  0  0  0  0  0  0  0  0  0  0
    8.9242   -1.5373    0.4822 H   0  0  0  0  0  0  0  0  0  0  0  0
    6.8173   -2.4788   -0.1304 H   0  0  0  0  0  0  0  0  0  0  0  0
    5.5783   -1.8666    0.9896 H   0  0  0  0  0  0  0  0  0  0  0  0
    5.9759   -0.9217   -1.9144 H   0  0  0  0  0  0  0  0  0  0  0  0
    4.7496   -2.0820   -1.3713 H   0  0  0  0  0  0  0  0  0  0  0  0
    2.7334   -1.2345   -1.0838 H   0  0  0  0  0  0  0  0  0  0  0  0
    3.0760   -0.9267    0.6376 H   0  0  0  0  0  0  0  0  0  0  0  0
    1.1359    0.3168   -0.9332 H   0  0  0  0  0  0  0  0  0  0  0  0
    2.4554    1.5019   -1.1424 H   0  0  0  0  0  0  0  0  0  0  0  0
    2.6250    1.7491    1.3586 H   0  0  0  0  0  0  0  0  0  0  0  0
    1.3461    0.5137    1.5863 H   0  0  0  0  0  0  0  0  0  0  0  0
    0.9985    3.3455    0.8757 H   0  0  0  0  0  0  0  0  0  0  0  0
   -3.5794    3.6718    0.1553 H   0  0  0  0  0  0  0  0  0  0  0  0
   -5.4292    2.0317   -0.1362 H   0  0  0  0  0  0  0  0  0  0  0  0
   -9.3209   -1.5439    1.2736 H   0  0  0  0  0  0  0  0  0  0  0  0
  -10.3197   -1.1744   -0.9548 H   0  0  0  0  0  0  0  0  0  0  0  0
   -8.9384   -0.3130   -2.8119 H   0  0  0  0  0  0  0  0  0  0  0  0
   -1.0738   -1.6825    1.0610 H   0  0  0  0  0  0  0  0  0  0  0  0
   -2.3219   -2.8768    0.6446 H   0  0  0  0  0  0  0  0  0  0  0  0
   -1.3755   -2.0848   -0.6798 H   0  0  0  0  0  0  0  0  0  0  0  0
    4.7227    0.6153    1.2952 H   0  0  0  0  0  0  0  0  0  0  0  0
    4.6860    1.9273    0.0565 H   0  0  0  0  0  0  0  0  0  0  0  0
    6.8932    1.1916   -0.8031 H   0  0  0  0  0  0  0  0  0  0  0  0
    6.9556    1.6297    0.9425 H   0  0  0  0  0  0  0  0  0  0  0  0
  1  2  1  0
  2  3  1  0
  3  4  1  0
  4  5  1  0
  5  6  1  0
  6  7  1  0
  7  8  1  0
  8  9  1  0
  9 10  1  0
 10 11  2  0
 11 12  1  0
 12 13  2  0
 13 14  1  0
 14 15  2  0
 15 16  1  0
 16 17  2  0
 17 18  1  0
 17 19  1  0
 19 20  2  0
 20 21  1  0
 21 22  2  0
 22 23  1  0
 15 24  1  0
 24 25  2  0
 24 26  1  0
 26 27  1  0
 26 28  1  0
 28 29  2  0
  5 30  1  0
 30 31  1  0
 31  2  1  0
 29 10  1  0
 28 13  1  0
 22 16  1  0
  1 32  1  0
  1 33  1  0
  1 34  1  0
  3 35  1  0
  3 36  1  0
  4 37  1  0
  4 38  1  0
  6 39  1  0
  6 40  1  0
  7 41  1  0
  7 42  1  0
  8 43  1  0
  8 44  1  0
  9 45  1  0
 12 46  1  0
 14 47  1  0
 19 48  1  0
 20 49  1  0
 21 50  1  0
 27 51  1  0
 27 52  1  0
 27 53  1  0
 30 54  1  0
 30 55  1  0
 31 56  1  0
 31 57  1  0
M  END
$$$$
