
     RDKit          3D

 38 40  0  0  0  0  0  0  0  0999 V2000
    4.9017    2.1376   -0.1919 C   0  0  0  0  0  0  0  0  0  0  0  0
    5.1964    0.7141   -0.3782 N   0  0  0  0  0  0  0  0  0  0  0  0
    6.5570    0.2487   -0.6329 C   0  0  0  0  0  0  0  0  0  0  0  0
    4.1704   -0.2448   -0.3160 N   0  0  0  0  0  0  0  0  0  0  0  0
    2.9613    0.0879   -0.0976 N   0  0  0  0  0  0  0  0  0  0  0  0
    1.9039   -0.8766   -0.0312 C   0  0  0  0  0  0  0  0  0  0  0  0
    2.1483   -2.2497   -0.2083 C   0  0  0  0  0  0  0  0  0  0  0  0
    1.0958   -3.1655   -0.1521 C   0  0  0  0  0  0  0  0  0  0  0  0
   -0.2088   -2.7240    0.0883 C   0  0  0  0  0  0  0  0  0  0  0  0
   -1.2279   -3.6203    0.1235 N   0  0  0  0  0  0  0  0  0  0  0  0
   -2.5036   -3.2193    0.3483 C   0  0  0  0  0  0  0  0  0  0  0  0
   -2.7793   -1.9065    0.5511 N   0  0  0  0  0  0  0  0  0  0  0  0
   -1.8039   -0.9570    0.5256 C   0  0  0  0  0  0  0  0  0  0  0  0
   -2.1484    0.4120    0.8010 N   0  0  0  0  0  0  0  0  0  0  0  0
   -3.4201    0.9913    0.4602 C   0  0  0  0  0  0  0  0  0  0  0  0
   -3.9153    2.0654    1.2165 C   0  0  0  0  0  0  0  0  0  0  0  0
   -5.1401    2.6554    0.8905 C   0  0  0  0  0  0  0  0  0  0  0  0
   -5.8752    2.1869   -0.2010 C   0  0  0  0  0  0  0  0  0  0  0  0
   -5.3831    1.1308   -0.9740 C   0  0  0  0  0  0  0  0  0  0  0  0
   -6.2973    0.5562   -2.3566 Cl  0  0  0  0  0  0  0  0  0  0  0  0
   -4.1574    0.5379   -0.6501 C   0  0  0  0  0  0  0  0  0  0  0  0
   -0.4684   -1.3491    0.2865 C   0  0  0  0  0  0  0  0  0  0  0  0
    0.5979   -0.4315    0.2112 C   0  0  0  0  0  0  0  0  0  0  0  0
    4.1827    2.4733   -0.9683 H   0  0  0  0  0  0  0  0  0  0  0  0
    4.4556    2.2968    0.8122 H   0  0  0  0  0  0  0  0  0  0  0  0
    5.8180    2.7594   -0.2707 H   0  0  0  0  0  0  0  0  0  0  0  0
    6.5910   -0.2786   -1.6092 H   0  0  0  0  0  0  0  0  0  0  0  0
    6.8636   -0.4550    0.1691 H   0  0  0  0  0  0  0  0  0  0  0  0
    7.2808    1.0901   -0.6604 H   0  0  0  0  0  0  0  0  0  0  0  0
    3.1500   -2.6138   -0.3970 H   0  0  0  0  0  0  0  0  0  0  0  0
    1.2962   -4.2196   -0.2998 H   0  0  0  0  0  0  0  0  0  0  0  0
   -3.3018   -3.9481    0.3729 H   0  0  0  0  0  0  0  0  0  0  0  0
   -1.4982    0.9774    1.3916 H   0  0  0  0  0  0  0  0  0  0  0  0
   -3.3553    2.4395    2.0644 H   0  0  0  0  0  0  0  0  0  0  0  0
   -5.5187    3.4777    1.4839 H   0  0  0  0  0  0  0  0  0  0  0  0
   -6.8223    2.6490   -0.4489 H   0  0  0  0  0  0  0  0  0  0  0  0
   -3.7761   -0.2592   -1.2751 H   0  0  0  0  0  0  0  0  0  0  0  0
    0.4310    0.6313    0.3225 H   0  0  0  0  0  0  0  0  0  0  0  0
  1  2  1  0
  2  3  1  0
  2  4  1  0
  4  5  2  0
  5  6  1  0
  6  7  2  0
  7  8  1  0
  8  9  2  0
  9 10  1  0
 10 11  2  0
 11 12  1  0
 12 13  2  0
 13 14  1  0
 14 15  1  0
 15 16  2  0
 16 17  1  0
 17 18  2  0
 18 19  1  0
 19 20  1  0
 19 21  2  0
 13 22  1  0
 22 23  2  0
 23  6  1  0
 22  9  1  0
 21 15  1  0
  1 24  1  0
  1 25  1  0
  1 26  1  0
  3 27  1  0
  3 28  1  0
  3 29  1  0
  7 30  1  0
  8 31  1  0
 11 32  1  0
 14 33  1  0
 16 34  1  0
 17 35  1  0
 18 36  1  0
 21 37  1  0
 23 38  1  0
M  END
$$$$
