
     RDKit          3D

 45 48  0  0  0  0  0  0  0  0999 V2000
    8.6788   -0.6100   -0.6641 C   0  0  0  0  0  0  0  0  0  0  0  0
    7.4595   -1.3017   -0.4146 O   0  0  0  0  0  0  0  0  0  0  0  0
    6.2496   -0.6772   -0.0771 C   0  0  0  0  0  0  0  0  0  0  0  0
    5.1251   -1.4802    0.1430 C   0  0  0  0  0  0  0  0  0  0  0  0
    3.8957   -0.9062    0.4792 C   0  0  0  0  0  0  0  0  0  0  0  0
    3.7696    0.4897    0.5857 C   0  0  0  0  0  0  0  0  0  0  0  0
    2.5234    1.1038    0.9549 N   0  0  0  0  0  0  0  0  0  0  0  0
    1.2353    0.6318    0.5349 C   0  0  0  0  0  0  0  0  0  0  0  0
    1.1196   -0.2781   -0.4700 N   0  0  0  0  0  0  0  0  0  0  0  0
   -0.0959   -0.7072   -0.8941 C   0  0  0  0  0  0  0  0  0  0  0  0
   -1.2572   -0.2030   -0.3015 C   0  0  0  0  0  0  0  0  0  0  0  0
   -2.5238   -0.6075   -0.7176 C   0  0  0  0  0  0  0  0  0  0  0  0
   -3.6583   -0.0590   -0.1170 C   0  0  0  0  0  0  0  0  0  0  0  0
   -5.0008   -0.4807   -0.5756 C   0  0  0  0  0  0  0  0  0  0  0  0
   -5.5059   -0.0272   -1.8128 C   0  0  0  0  0  0  0  0  0  0  0  0
   -4.5830    1.0670   -2.8387 Cl  0  0  0  0  0  0  0  0  0  0  0  0
   -6.7757   -0.4313   -2.2397 C   0  0  0  0  0  0  0  0  0  0  0  0
   -7.5469   -1.2835   -1.4480 C   0  0  0  0  0  0  0  0  0  0  0  0
   -7.0542   -1.7385   -0.2240 C   0  0  0  0  0  0  0  0  0  0  0  0
   -5.7865   -1.3438    0.2177 C   0  0  0  0  0  0  0  0  0  0  0  0
   -5.2004   -1.9685    1.7565 Cl  0  0  0  0  0  0  0  0  0  0  0  0
   -3.5051    0.8930    0.9089 C   0  0  0  0  0  0  0  0  0  0  0  0
   -4.5350    1.4108    1.4253 O   0  0  0  0  0  0  0  0  0  0  0  0
   -2.2515    1.2620    1.3391 N   0  0  0  0  0  0  0  0  0  0  0  0
   -2.1041    2.2720    2.4021 C   0  0  0  0  0  0  0  0  0  0  0  0
   -1.1318    0.7443    0.7325 C   0  0  0  0  0  0  0  0  0  0  0  0
    0.1153    1.1393    1.1149 N   0  0  0  0  0  0  0  0  0  0  0  0
    4.9012    1.2936    0.3890 C   0  0  0  0  0  0  0  0  0  0  0  0
    6.1306    0.7195    0.0518 C   0  0  0  0  0  0  0  0  0  0  0  0
    8.9882   -0.0435    0.2395 H   0  0  0  0  0  0  0  0  0  0  0  0
    8.5567    0.0805   -1.5253 H   0  0  0  0  0  0  0  0  0  0  0  0
    9.4703   -1.3473   -0.9094 H   0  0  0  0  0  0  0  0  0  0  0  0
    5.2069   -2.5568    0.0617 H   0  0  0  0  0  0  0  0  0  0  0  0
    3.0536   -1.5551    0.6799 H   0  0  0  0  0  0  0  0  0  0  0  0
    2.5561    1.9966    1.4977 H   0  0  0  0  0  0  0  0  0  0  0  0
   -0.1522   -1.4338   -1.6951 H   0  0  0  0  0  0  0  0  0  0  0  0
   -2.6318   -1.3385   -1.5114 H   0  0  0  0  0  0  0  0  0  0  0  0
   -7.1680   -0.0823   -3.1865 H   0  0  0  0  0  0  0  0  0  0  0  0
   -8.5283   -1.5926   -1.7840 H   0  0  0  0  0  0  0  0  0  0  0  0
   -7.6586   -2.4028    0.3807 H   0  0  0  0  0  0  0  0  0  0  0  0
   -2.9917    2.3004    3.0691 H   0  0  0  0  0  0  0  0  0  0  0  0
   -1.2354    2.0388    3.0543 H   0  0  0  0  0  0  0  0  0  0  0  0
   -1.9613    3.2742    1.9460 H   0  0  0  0  0  0  0  0  0  0  0  0
    4.8267    2.3695    0.4869 H   0  0  0  0  0  0  0  0  0  0  0  0
    6.9809    1.3693   -0.1038 H   0  0  0  0  0  0  0  0  0  0  0  0
  1  2  1  0
  2  3  1  0
  3  4  2  0
  4  5  1  0
  5  6  2  0
  6  7  1  0
  7  8  1  0
  8  9  2  0
  9 10  1  0
 10 11  2  0
 11 12  1  0
 12 13  2  0
 13 14  1  0
 14 15  2  0
 15 16  1  0
 15 17  1  0
 17 18  2  0
 18 19  1  0
 19 20  2  0
 20 21  1  0
 13 22  1  0
 22 23  2  0
 22 24  1  0
 24 25  1  0
 24 26  1  0
 26 27  2  0
  6 28  1  0
 28 29  2  0
 29  3  1  0
 27  8  1  0
 26 11  1  0
 20 14  1  0
  1 30  1  0
  1 31  1  0
  1 32  1  0
  4 33  1  0
  5 34  1  0
  7 35  1  0
 10 36  1  0
 12 37  1  0
 17 38  1  0
 18 39  1  0
 19 40  1  0
 25 41  1  0
 25 42  1  0
 25 43  1  0
 28 44  1  0
 29 45  1  0
M  END
$$$$
