
     RDKit          3D

 28 30  0  0  0  0  0  0  0  0999 V2000
    5.9386    1.0615   -0.0160 O   0  0  0  0  0  0  0  0  0  0  0  0
    4.6377    0.5674   -0.0745 C   0  0  0  0  0  0  0  0  0  0  0  0
    4.4249   -0.7892   -0.3950 C   0  0  0  0  0  0  0  0  0  0  0  0
    3.1223   -1.3157   -0.4614 C   0  0  0  0  0  0  0  0  0  0  0  0
    2.9325   -2.6594   -0.7799 O   0  0  0  0  0  0  0  0  0  0  0  0
    2.0413   -0.4631   -0.2022 C   0  0  0  0  0  0  0  0  0  0  0  0
    0.7359   -0.8381   -0.2315 N   0  0  0  0  0  0  0  0  0  0  0  0
   -0.0889    0.2002    0.0608 C   0  0  0  0  0  0  0  0  0  0  0  0
   -1.5646    0.0755    0.1006 C   0  0  0  0  0  0  0  0  0  0  0  0
   -2.1753   -1.1612   -0.1717 C   0  0  0  0  0  0  0  0  0  0  0  0
   -3.5661   -1.2884   -0.1366 C   0  0  0  0  0  0  0  0  0  0  0  0
   -4.3699   -0.1836    0.1710 C   0  0  0  0  0  0  0  0  0  0  0  0
   -5.7573   -0.3140    0.2052 O   0  0  0  0  0  0  0  0  0  0  0  0
   -3.7713    1.0570    0.4449 C   0  0  0  0  0  0  0  0  0  0  0  0
   -4.5435    2.1762    0.7544 O   0  0  0  0  0  0  0  0  0  0  0  0
   -2.3775    1.1818    0.4090 C   0  0  0  0  0  0  0  0  0  0  0  0
    0.7878    1.6231    0.3659 S   0  0  0  0  0  0  0  0  0  0  0  0
    2.2625    0.8677    0.1117 C   0  0  0  0  0  0  0  0  0  0  0  0
    3.5416    1.4114    0.1833 C   0  0  0  0  0  0  0  0  0  0  0  0
    6.1265    2.0310    0.2114 H   0  0  0  0  0  0  0  0  0  0  0  0
    5.2732   -1.4326   -0.5922 H   0  0  0  0  0  0  0  0  0  0  0  0
    2.0078   -3.0694   -0.8358 H   0  0  0  0  0  0  0  0  0  0  0  0
   -1.5787   -2.0322   -0.4124 H   0  0  0  0  0  0  0  0  0  0  0  0
   -4.0189   -2.2486   -0.3491 H   0  0  0  0  0  0  0  0  0  0  0  0
   -6.2122   -1.1985    0.0112 H   0  0  0  0  0  0  0  0  0  0  0  0
   -5.5550    2.1383    0.7933 H   0  0  0  0  0  0  0  0  0  0  0  0
   -1.9385    2.1475    0.6235 H   0  0  0  0  0  0  0  0  0  0  0  0
    3.6850    2.4554    0.4309 H   0  0  0  0  0  0  0  0  0  0  0  0
  1  2  1  0
  2  3  2  0
  3  4  1  0
  4  5  1  0
  4  6  2  0
  6  7  1  0
  7  8  2  0
  8  9  1  0
  9 10  2  0
 10 11  1  0
 11 12  2  0
 12 13  1  0
 12 14  1  0
 14 15  1  0
 14 16  2  0
  8 17  1  0
 17 18  1  0
 18 19  2  0
 19  2  1  0
 18  6  1  0
 16  9  1  0
  1 20  1  0
  3 21  1  0
  5 22  1  0
 10 23  1  0
 11 24  1  0
 13 25  1  0
 15 26  1  0
 16 27  1  0
 19 28  1  0
M  END
$$$$
