
     RDKit          3D

 62 66  0  0  0  0  0  0  0  0999 V2000
    9.1023    2.5058   -1.2100 C   0  0  0  0  0  0  0  0  0  0  0  0
    8.9554    0.7416   -1.0371 S   0  0  0  0  0  6  0  0  0  0  0  0
    8.2081    0.1925   -2.2197 O   0  0  0  0  0  0  0  0  0  0  0  0
   10.3287    0.1337   -0.9872 O   0  0  0  0  0  0  0  0  0  0  0  0
    8.0705    0.3719    0.4724 C   0  0  0  0  0  0  0  0  0  0  0  0
    8.0308   -1.1328    0.7589 C   0  0  0  0  0  0  0  0  0  0  0  0
    7.2930   -1.8535   -0.2769 N   0  0  0  0  0  0  0  0  0  0  0  0
    5.8692   -1.7784   -0.3996 C   0  0  0  0  0  0  0  0  0  0  0  0
    5.0783   -1.0812    0.4431 N   0  0  0  0  0  0  0  0  0  0  0  0
    3.7624   -1.1710    0.1012 C   0  0  0  0  0  0  0  0  0  0  0  0
    2.7105   -0.4820    0.8927 C   0  0  0  0  0  0  0  0  0  0  0  0
    3.0013   -0.0353    2.1939 C   0  0  0  0  0  0  0  0  0  0  0  0
    2.0281    0.6052    2.9618 C   0  0  0  0  0  0  0  0  0  0  0  0
    0.7521    0.8252    2.4394 C   0  0  0  0  0  0  0  0  0  0  0  0
   -0.1917    1.4345    3.2018 N   0  0  0  0  0  0  0  0  0  0  0  0
   -1.4394    1.6592    2.7215 C   0  0  0  0  0  0  0  0  0  0  0  0
   -1.7602    1.2847    1.4578 N   0  0  0  0  0  0  0  0  0  0  0  0
   -0.8608    0.6680    0.6429 C   0  0  0  0  0  0  0  0  0  0  0  0
   -1.2421    0.3466   -0.7063 N   0  0  0  0  0  0  0  0  0  0  0  0
   -2.5857    0.0002   -1.0843 C   0  0  0  0  0  0  0  0  0  0  0  0
   -3.4492   -0.6554   -0.1910 C   0  0  0  0  0  0  0  0  0  0  0  0
   -4.7454   -0.9988   -0.5829 C   0  0  0  0  0  0  0  0  0  0  0  0
   -5.2012   -0.6989   -1.8808 C   0  0  0  0  0  0  0  0  0  0  0  0
   -6.5002   -1.0161   -2.3136 O   0  0  0  0  0  0  0  0  0  0  0  0
   -7.5413   -1.5421   -1.4896 C   0  0  0  0  0  0  0  0  0  0  0  0
   -8.0186   -0.5066   -0.5062 C   0  0  0  0  0  0  0  0  0  0  0  0
   -8.4236    0.7600   -0.9587 C   0  0  0  0  0  0  0  0  0  0  0  0
   -8.8738    1.7221   -0.0497 C   0  0  0  0  0  0  0  0  0  0  0  0
   -8.9300    1.4247    1.3143 C   0  0  0  0  0  0  0  0  0  0  0  0
   -8.5392    0.1632    1.7712 C   0  0  0  0  0  0  0  0  0  0  0  0
   -8.0891   -0.8022    0.8655 C   0  0  0  0  0  0  0  0  0  0  0  0
   -4.3292   -0.0661   -2.7797 C   0  0  0  0  0  0  0  0  0  0  0  0
   -4.8571    0.3156   -4.4116 Cl  0  0  0  0  0  0  0  0  0  0  0  0
   -3.0308    0.2747   -2.3849 C   0  0  0  0  0  0  0  0  0  0  0  0
    0.4426    0.4124    1.1249 C   0  0  0  0  0  0  0  0  0  0  0  0
    1.4247   -0.2520    0.3635 C   0  0  0  0  0  0  0  0  0  0  0  0
    3.5128   -1.9615   -1.0267 C   0  0  0  0  0  0  0  0  0  0  0  0
    4.9835   -2.5467   -1.5982 S   0  0  0  0  0  0  0  0  0  0  0  0
    9.6387    2.7440   -2.1518 H   0  0  0  0  0  0  0  0  0  0  0  0
    8.0905    2.9613   -1.2368 H   0  0  0  0  0  0  0  0  0  0  0  0
    9.6682    2.9175   -0.3491 H   0  0  0  0  0  0  0  0  0  0  0  0
    7.0416    0.7808    0.4007 H   0  0  0  0  0  0  0  0  0  0  0  0
    8.5834    0.8834    1.3140 H   0  0  0  0  0  0  0  0  0  0  0  0
    9.0696   -1.5245    0.8143 H   0  0  0  0  0  0  0  0  0  0  0  0
    7.5546   -1.3120    1.7470 H   0  0  0  0  0  0  0  0  0  0  0  0
    7.8202   -2.4808   -0.9250 H   0  0  0  0  0  0  0  0  0  0  0  0
    3.9802   -0.1960    2.6277 H   0  0  0  0  0  0  0  0  0  0  0  0
    2.2682    0.9275    3.9676 H   0  0  0  0  0  0  0  0  0  0  0  0
   -2.1778    2.1454    3.3438 H   0  0  0  0  0  0  0  0  0  0  0  0
   -0.5471    0.5065   -1.4698 H   0  0  0  0  0  0  0  0  0  0  0  0
   -3.1168   -0.9203    0.8042 H   0  0  0  0  0  0  0  0  0  0  0  0
   -5.3785   -1.5064    0.1299 H   0  0  0  0  0  0  0  0  0  0  0  0
   -7.1945   -2.4700   -0.9852 H   0  0  0  0  0  0  0  0  0  0  0  0
   -8.3949   -1.8250   -2.1403 H   0  0  0  0  0  0  0  0  0  0  0  0
   -8.3875    1.0019   -2.0137 H   0  0  0  0  0  0  0  0  0  0  0  0
   -9.1808    2.6977   -0.4030 H   0  0  0  0  0  0  0  0  0  0  0  0
   -9.2791    2.1704    2.0165 H   0  0  0  0  0  0  0  0  0  0  0  0
   -8.5869   -0.0673    2.8273 H   0  0  0  0  0  0  0  0  0  0  0  0
   -7.7927   -1.7760    1.2345 H   0  0  0  0  0  0  0  0  0  0  0  0
   -2.3699    0.7650   -3.0893 H   0  0  0  0  0  0  0  0  0  0  0  0
    1.1959   -0.5867   -0.6361 H   0  0  0  0  0  0  0  0  0  0  0  0
    2.5495   -2.1916   -1.4594 H   0  0  0  0  0  0  0  0  0  0  0  0
  1  2  1  0
  2  3  2  0
  2  4  2  0
  2  5  1  0
  5  6  1  0
  6  7  1  0
  7  8  1  0
  8  9  2  0
  9 10  1  0
 10 11  1  0
 11 12  2  0
 12 13  1  0
 13 14  2  0
 14 15  1  0
 15 16  2  0
 16 17  1  0
 17 18  2  0
 18 19  1  0
 19 20  1  0
 20 21  2  0
 21 22  1  0
 22 23  2  0
 23 24  1  0
 24 25  1  0
 25 26  1  0
 26 27  2  0
 27 28  1  0
 28 29  2  0
 29 30  1  0
 30 31  2  0
 23 32  1  0
 32 33  1  0
 32 34  2  0
 18 35  1  0
 35 36  2  0
 10 37  2  0
 37 38  1  0
 38  8  1  0
 36 11  1  0
 35 14  1  0
 34 20  1  0
 31 26  1  0
  1 39  1  0
  1 40  1  0
  1 41  1  0
  5 42  1  0
  5 43  1  0
  6 44  1  0
  6 45  1  0
  7 46  1  0
 12 47  1  0
 13 48  1  0
 16 49  1  0
 19 50  1  0
 21 51  1  0
 22 52  1  0
 25 53  1  0
 25 54  1  0
 27 55  1  0
 28 56  1  0
 29 57  1  0
 30 58  1  0
 31 59  1  0
 34 60  1  0
 36 61  1  0
 37 62  1  0
M  END
$$$$
