
     RDKit          3D

 78 83  0  0  0  0  0  0  0  0999 V2000
   -8.0876   -0.6682   -1.1501 C   0  0  0  0  0  0  0  0  0  0  0  0
   -6.9721   -1.3268   -1.8919 C   0  0  0  0  0  0  0  0  0  0  0  0
   -7.1955   -1.8416   -3.0210 O   0  0  0  0  0  0  0  0  0  0  0  0
   -5.6750   -1.2527   -1.3717 O   0  0  0  0  0  0  0  0  0  0  0  0
   -4.5549   -1.9468   -1.8518 C   0  0  0  0  0  0  0  0  0  0  0  0
   -4.6513   -3.1973   -2.5068 C   0  0  0  0  0  0  0  0  0  0  0  0
   -3.4959   -3.8444   -2.9905 C   0  0  0  0  0  0  0  0  0  0  0  0
   -2.2288   -3.2655   -2.8198 C   0  0  0  0  0  0  0  0  0  0  0  0
   -2.1481   -2.0451   -2.1453 C   0  0  0  0  0  0  0  0  0  0  0  0
   -3.2726   -1.4135   -1.6645 C   0  0  0  0  0  0  0  0  0  0  0  0
   -2.8472   -0.2336   -1.0710 C   0  0  0  0  0  0  0  0  0  0  0  0
   -3.6621    0.7643   -0.3556 C   0  0  0  0  0  0  0  0  0  0  0  0
   -4.5073    0.3734    0.4936 O   0  0  0  0  0  0  0  0  0  0  0  0
   -3.4518    2.1669   -0.5905 N   0  0  0  0  0  0  0  0  0  0  0  0
   -4.0629    3.2162    0.1795 C   0  0  0  0  0  0  0  0  0  0  0  0
   -5.4178    3.1584    0.5593 C   0  0  0  0  0  0  0  0  0  0  0  0
   -5.9908    4.2080    1.2872 C   0  0  0  0  0  0  0  0  0  0  0  0
   -5.2236    5.3257    1.6288 C   0  0  0  0  0  0  0  0  0  0  0  0
   -3.8840    5.4002    1.2364 C   0  0  0  0  0  0  0  0  0  0  0  0
   -3.3080    4.3546    0.5065 C   0  0  0  0  0  0  0  0  0  0  0  0
   -1.4600   -0.2217   -1.2114 C   0  0  0  0  0  0  0  0  0  0  0  0
   -0.3626    1.0265   -0.5275 S   0  0  0  0  0  0  0  0  0  0  0  0
   -0.5393    0.2666    1.4595 S   0  0  0  0  0  0  0  0  0  0  0  0
    0.7815   -0.9292    1.2280 C   0  0  0  0  0  0  0  0  0  0  0  0
    2.1394   -0.6201    1.1934 C   0  0  0  0  0  0  0  0  0  0  0  0
    2.7284    0.7231    1.3318 C   0  0  0  0  0  0  0  0  0  0  0  0
    2.2754    1.5108    2.2050 O   0  0  0  0  0  0  0  0  0  0  0  0
    3.7419    1.1643    0.4182 N   0  0  0  0  0  0  0  0  0  0  0  0
    4.6748    2.2208    0.7014 C   0  0  0  0  0  0  0  0  0  0  0  0
    5.0765    2.5136    2.0196 C   0  0  0  0  0  0  0  0  0  0  0  0
    6.0188    3.5183    2.2611 C   0  0  0  0  0  0  0  0  0  0  0  0
    6.5730    4.2318    1.1948 C   0  0  0  0  0  0  0  0  0  0  0  0
    6.1909    3.9382   -0.1165 C   0  0  0  0  0  0  0  0  0  0  0  0
    5.2512    2.9328   -0.3629 C   0  0  0  0  0  0  0  0  0  0  0  0
    2.7916   -1.8215    0.9473 C   0  0  0  0  0  0  0  0  0  0  0  0
    4.1551   -2.1405    0.8591 C   0  0  0  0  0  0  0  0  0  0  0  0
    5.1222   -1.1351    1.0046 O   0  0  0  0  0  0  0  0  0  0  0  0
    6.4427   -1.3215    1.4266 C   0  0  0  0  0  0  0  0  0  0  0  0
    7.4197   -0.2068    1.2642 C   0  0  0  0  0  0  0  0  0  0  0  0
    6.7921   -2.3700    2.0322 O   0  0  0  0  0  0  0  0  0  0  0  0
    4.4924   -3.4893    0.5951 C   0  0  0  0  0  0  0  0  0  0  0  0
    3.4886   -4.4718    0.4778 C   0  0  0  0  0  0  0  0  0  0  0  0
    2.1345   -4.1286    0.6144 C   0  0  0  0  0  0  0  0  0  0  0  0
    1.8155   -2.7886    0.8469 C   0  0  0  0  0  0  0  0  0  0  0  0
    0.5871   -2.2547    1.0106 N   0  0  0  0  0  0  0  0  0  0  0  0
   -0.6816   -2.9840    1.0273 C   0  0  0  0  0  0  0  0  0  0  0  0
   -1.0377   -1.3298   -1.8702 N   0  0  0  0  0  0  0  0  0  0  0  0
    0.3290   -1.6576   -2.2779 C   0  0  0  0  0  0  0  0  0  0  0  0
   -7.9297   -0.7791   -0.0569 H   0  0  0  0  0  0  0  0  0  0  0  0
   -9.0589   -1.1329   -1.4226 H   0  0  0  0  0  0  0  0  0  0  0  0
   -8.1120    0.4124   -1.4056 H   0  0  0  0  0  0  0  0  0  0  0  0
   -5.6061   -3.6899   -2.6256 H   0  0  0  0  0  0  0  0  0  0  0  0
   -3.5850   -4.7990   -3.4935 H   0  0  0  0  0  0  0  0  0  0  0  0
   -1.3439   -3.7644   -3.1925 H   0  0  0  0  0  0  0  0  0  0  0  0
   -2.7241    2.4430   -1.2876 H   0  0  0  0  0  0  0  0  0  0  0  0
   -6.0412    2.3211    0.2720 H   0  0  0  0  0  0  0  0  0  0  0  0
   -7.0325    4.1588    1.5798 H   0  0  0  0  0  0  0  0  0  0  0  0
   -5.6685    6.1371    2.1915 H   0  0  0  0  0  0  0  0  0  0  0  0
   -3.2929    6.2700    1.4939 H   0  0  0  0  0  0  0  0  0  0  0  0
   -2.2693    4.4249    0.2045 H   0  0  0  0  0  0  0  0  0  0  0  0
    3.7768    0.7116   -0.5232 H   0  0  0  0  0  0  0  0  0  0  0  0
    4.6911    1.9480    2.8575 H   0  0  0  0  0  0  0  0  0  0  0  0
    6.3271    3.7368    3.2751 H   0  0  0  0  0  0  0  0  0  0  0  0
    7.3032    5.0078    1.3845 H   0  0  0  0  0  0  0  0  0  0  0  0
    6.6253    4.4899   -0.9410 H   0  0  0  0  0  0  0  0  0  0  0  0
    4.9662    2.7104   -1.3827 H   0  0  0  0  0  0  0  0  0  0  0  0
    7.1491    0.4048    0.3786 H   0  0  0  0  0  0  0  0  0  0  0  0
    7.4039    0.4364    2.1695 H   0  0  0  0  0  0  0  0  0  0  0  0
    8.4435   -0.6123    1.1165 H   0  0  0  0  0  0  0  0  0  0  0  0
    5.5224   -3.7864    0.4571 H   0  0  0  0  0  0  0  0  0  0  0  0
    3.7652   -5.4990    0.2785 H   0  0  0  0  0  0  0  0  0  0  0  0
    1.3661   -4.8859    0.5325 H   0  0  0  0  0  0  0  0  0  0  0  0
   -0.7657   -3.6130    0.1165 H   0  0  0  0  0  0  0  0  0  0  0  0
   -1.5454   -2.2889    1.0444 H   0  0  0  0  0  0  0  0  0  0  0  0
   -0.7268   -3.6308    1.9267 H   0  0  0  0  0  0  0  0  0  0  0  0
    0.5715   -2.6992   -1.9841 H   0  0  0  0  0  0  0  0  0  0  0  0
    1.0661   -0.9824   -1.7979 H   0  0  0  0  0  0  0  0  0  0  0  0
    0.4215   -1.5582   -3.3794 H   0  0  0  0  0  0  0  0  0  0  0  0
  1  2  1  0
  2  3  2  0
  2  4  1  0
  4  5  1  0
  5  6  2  0
  6  7  1  0
  7  8  2  0
  8  9  1  0
  9 10  2  0
 10 11  1  0
 11 12  1  0
 12 13  2  0
 12 14  1  0
 14 15  1  0
 15 16  2  0
 16 17  1  0
 17 18  2  0
 18 19  1  0
 19 20  2  0
 11 21  2  0
 21 22  1  0
 22 23  1  0
 23 24  1  0
 24 25  2  0
 25 26  1  0
 26 27  2  0
 26 28  1  0
 28 29  1  0
 29 30  2  0
 30 31  1  0
 31 32  2  0
 32 33  1  0
 33 34  2  0
 25 35  1  0
 35 36  2  0
 36 37  1  0
 37 38  1  0
 38 39  1  0
 38 40  2  0
 36 41  1  0
 41 42  2  0
 42 43  1  0
 43 44  2  0
 44 45  1  0
 45 46  1  0
 21 47  1  0
 47 48  1  0
 10  5  1  0
 20 15  1  0
 45 24  1  0
 47  9  1  0
 34 29  1  0
 44 35  1  0
  1 49  1  0
  1 50  1  0
  1 51  1  0
  6 52  1  0
  7 53  1  0
  8 54  1  0
 14 55  1  0
 16 56  1  0
 17 57  1  0
 18 58  1  0
 19 59  1  0
 20 60  1  0
 28 61  1  0
 30 62  1  0
 31 63  1  0
 32 64  1  0
 33 65  1  0
 34 66  1  0
 39 67  1  0
 39 68  1  0
 39 69  1  0
 41 70  1  0
 42 71  1  0
 43 72  1  0
 46 73  1  0
 46 74  1  0
 46 75  1  0
 48 76  1  0
 48 77  1  0
 48 78  1  0
M  END
$$$$
