
     RDKit          3D

 54 57  0  0  0  0  0  0  0  0999 V2000
   -9.3609   -2.3558    2.2456 Br  0  0  0  0  0  0  0  0  0  0  0  0
   -7.8480   -2.0368    1.1245 C   0  0  0  0  0  0  0  0  0  0  0  0
   -7.6968   -2.7539   -0.0661 C   0  0  0  0  0  0  0  0  0  0  0  0
   -6.5856   -2.5275   -0.8818 C   0  0  0  0  0  0  0  0  0  0  0  0
   -5.6265   -1.5790   -0.5142 C   0  0  0  0  0  0  0  0  0  0  0  0
   -5.7794   -0.8378    0.6728 C   0  0  0  0  0  0  0  0  0  0  0  0
   -4.7958    0.1277    1.0841 N   0  0  0  0  0  0  0  0  0  0  0  0
   -3.9845    0.8739    0.1602 C   0  0  0  0  0  0  0  0  0  0  0  0
   -4.4904    1.1966   -1.0620 N   0  0  0  0  0  0  0  0  0  0  0  0
   -3.7859    1.9406   -1.9520 C   0  0  0  0  0  0  0  0  0  0  0  0
   -2.5480    2.3934   -1.6324 N   0  0  0  0  0  0  0  0  0  0  0  0
   -1.9884    2.1079   -0.4285 C   0  0  0  0  0  0  0  0  0  0  0  0
   -0.7092    2.5808   -0.1255 C   0  0  0  0  0  0  0  0  0  0  0  0
   -0.1278    2.2613    1.1138 C   0  0  0  0  0  0  0  0  0  0  0  0
    1.1849    2.7187    1.4836 N   0  0  0  0  0  0  0  0  0  0  0  0
    2.1353    3.3639    0.5752 C   0  0  0  0  0  0  0  0  0  0  0  0
    2.7018    2.3662   -0.4446 C   0  0  0  0  0  0  0  0  0  0  0  0
    3.5047    1.2475    0.2345 C   0  0  0  0  0  0  0  0  0  0  0  0
    4.0885    0.2793   -0.8024 C   0  0  0  0  0  0  0  0  0  0  0  0
    4.9293   -0.7422   -0.1415 N   0  0  0  0  0  0  0  0  0  0  0  0
    4.1211   -1.8754    0.3494 C   0  0  0  0  0  0  0  0  0  0  0  0
    5.0254   -2.8975    1.0716 C   0  0  0  0  0  0  0  0  0  0  0  0
    6.4037   -2.6249    0.8872 O   0  0  0  0  0  0  0  0  0  0  0  0
    6.6812   -2.4790   -0.4907 C   0  0  0  0  0  0  0  0  0  0  0  0
    5.9700   -1.2378   -1.0662 C   0  0  0  0  0  0  0  0  0  0  0  0
   -0.8280    1.5010    1.9992 N   0  0  0  0  0  0  0  0  0  0  0  0
   -2.0754    1.0305    1.7349 C   0  0  0  0  0  0  0  0  0  0  0  0
   -2.6960    1.3307    0.5109 C   0  0  0  0  0  0  0  0  0  0  0  0
   -6.8896   -1.0871    1.4956 C   0  0  0  0  0  0  0  0  0  0  0  0
   -8.4349   -3.4907   -0.3557 H   0  0  0  0  0  0  0  0  0  0  0  0
   -6.4631   -3.0930   -1.7965 H   0  0  0  0  0  0  0  0  0  0  0  0
   -4.7591   -1.4405   -1.1460 H   0  0  0  0  0  0  0  0  0  0  0  0
   -4.7625    0.3879    2.0952 H   0  0  0  0  0  0  0  0  0  0  0  0
   -4.2152    2.1783   -2.9155 H   0  0  0  0  0  0  0  0  0  0  0  0
   -0.1878    3.1878   -0.8526 H   0  0  0  0  0  0  0  0  0  0  0  0
    1.4914    2.5679    2.4715 H   0  0  0  0  0  0  0  0  0  0  0  0
    1.6479    4.2147    0.0544 H   0  0  0  0  0  0  0  0  0  0  0  0
    2.9747    3.7904    1.1668 H   0  0  0  0  0  0  0  0  0  0  0  0
    1.8772    1.9221   -1.0414 H   0  0  0  0  0  0  0  0  0  0  0  0
    3.3648    2.9215   -1.1434 H   0  0  0  0  0  0  0  0  0  0  0  0
    2.8397    0.6946    0.9300 H   0  0  0  0  0  0  0  0  0  0  0  0
    4.3363    1.6931    0.8232 H   0  0  0  0  0  0  0  0  0  0  0  0
    3.2695   -0.1918   -1.3927 H   0  0  0  0  0  0  0  0  0  0  0  0
    4.7005    0.8825   -1.5120 H   0  0  0  0  0  0  0  0  0  0  0  0
    3.3436   -1.5226    1.0595 H   0  0  0  0  0  0  0  0  0  0  0  0
    3.6036   -2.3795   -0.4991 H   0  0  0  0  0  0  0  0  0  0  0  0
    4.8137   -2.8598    2.1615 H   0  0  0  0  0  0  0  0  0  0  0  0
    4.7898   -3.9315    0.7333 H   0  0  0  0  0  0  0  0  0  0  0  0
    7.7787   -2.3688   -0.6217 H   0  0  0  0  0  0  0  0  0  0  0  0
    6.3819   -3.3949   -1.0509 H   0  0  0  0  0  0  0  0  0  0  0  0
    6.7227   -0.4340   -1.2235 H   0  0  0  0  0  0  0  0  0  0  0  0
    5.5301   -1.4973   -2.0567 H   0  0  0  0  0  0  0  0  0  0  0  0
   -2.5601    0.4153    2.4790 H   0  0  0  0  0  0  0  0  0  0  0  0
   -7.0129   -0.5371    2.4201 H   0  0  0  0  0  0  0  0  0  0  0  0
  1  2  1  0
  2  3  2  0
  3  4  1  0
  4  5  2  0
  5  6  1  0
  6  7  1  0
  7  8  1  0
  8  9  2  0
  9 10  1  0
 10 11  2  0
 11 12  1  0
 12 13  2  0
 13 14  1  0
 14 15  1  0
 15 16  1  0
 16 17  1  0
 17 18  1  0
 18 19  1  0
 19 20  1  0
 20 21  1  0
 21 22  1  0
 22 23  1  0
 23 24  1  0
 24 25  1  0
 14 26  2  0
 26 27  1  0
 27 28  2  0
  6 29  2  0
 29  2  1  0
 28  8  1  0
 28 12  1  0
 25 20  1  0
  3 30  1  0
  4 31  1  0
  5 32  1  0
  7 33  1  0
 10 34  1  0
 13 35  1  0
 15 36  1  0
 16 37  1  0
 16 38  1  0
 17 39  1  0
 17 40  1  0
 18 41  1  0
 18 42  1  0
 19 43  1  0
 19 44  1  0
 21 45  1  0
 21 46  1  0
 22 47  1  0
 22 48  1  0
 24 49  1  0
 24 50  1  0
 25 51  1  0
 25 52  1  0
 27 53  1  0
 29 54  1  0
M  END
$$$$
