
     RDKit          3D

 22 22  0  0  0  0  0  0  0  0999 V2000
    2.3666   -1.7739    3.9312 N   0  0  0  0  0  0  0  0  0  0  0  0
    1.8819   -1.1941    3.0547 C   0  0  0  0  0  0  0  0  0  0  0  0
    1.2774   -0.4709    1.9618 C   0  0  0  0  0  0  0  0  0  0  0  0
    0.6914   -1.1797    0.9788 C   0  0  0  0  0  0  0  0  0  0  0  0
   -0.0791   -0.5958   -0.1405 C   0  0  0  0  0  0  0  0  0  0  0  0
   -1.1644    0.2573    0.1301 C   0  0  0  0  0  0  0  0  0  0  0  0
   -1.9381    0.7765   -0.9119 C   0  0  0  0  0  0  0  0  0  0  0  0
   -3.0005    1.6292   -0.6206 O   0  0  0  0  0  0  0  0  0  0  0  0
   -1.6422    0.4322   -2.2357 C   0  0  0  0  0  0  0  0  0  0  0  0
   -0.5806   -0.4312   -2.5146 C   0  0  0  0  0  0  0  0  0  0  0  0
    0.2028   -0.9524   -1.4782 C   0  0  0  0  0  0  0  0  0  0  0  0
    1.2574   -1.8064   -1.8077 O   0  0  0  0  0  0  0  0  0  0  0  0
    1.3857    1.0069    1.9613 C   0  0  0  0  0  0  0  0  0  0  0  0
    1.5978    1.6195    3.0426 O   0  0  0  0  0  0  0  0  0  0  0  0
    1.3070    1.7311    0.7745 O   0  0  0  0  0  0  0  0  0  0  0  0
    0.7512   -2.2627    1.0080 H   0  0  0  0  0  0  0  0  0  0  0  0
   -1.4141    0.5141    1.1527 H   0  0  0  0  0  0  0  0  0  0  0  0
   -3.5810    2.0212   -1.3529 H   0  0  0  0  0  0  0  0  0  0  0  0
   -2.2372    0.8285   -3.0487 H   0  0  0  0  0  0  0  0  0  0  0  0
   -0.3632   -0.6958   -3.5417 H   0  0  0  0  0  0  0  0  0  0  0  0
    1.8874   -2.1936   -1.1165 H   0  0  0  0  0  0  0  0  0  0  0  0
    1.3937    2.7403    0.7735 H   0  0  0  0  0  0  0  0  0  0  0  0
  1  2  3  0
  2  3  1  0
  3  4  2  0
  4  5  1  0
  5  6  2  0
  6  7  1  0
  7  8  1  0
  7  9  2  0
  9 10  1  0
 10 11  2  0
 11 12  1  0
  3 13  1  0
 13 14  2  0
 13 15  1  0
 11  5  1  0
  4 16  1  0
  6 17  1  0
  8 18  1  0
  9 19  1  0
 10 20  1  0
 12 21  1  0
 15 22  1  0
M  END
$$$$
