
     RDKit          3D

 55 58  0  0  0  0  0  0  0  0999 V2000
   -1.2630   -4.9332    0.7605 C   0  0  0  0  0  0  0  0  0  0  0  0
   -1.0964   -3.5203    0.7018 O   0  0  0  0  0  0  0  0  0  0  0  0
    0.1417   -2.8610    0.7651 C   0  0  0  0  0  0  0  0  0  0  0  0
    1.3548   -3.5620    0.8929 C   0  0  0  0  0  0  0  0  0  0  0  0
    2.5684   -2.8724    0.9543 C   0  0  0  0  0  0  0  0  0  0  0  0
    3.7314   -3.5657    1.0590 N   0  0  0  0  0  0  0  0  0  0  0  0
    4.9250   -2.9251    1.1143 C   0  0  0  0  0  0  0  0  0  0  0  0
    4.9727   -1.5701    1.0743 N   0  0  0  0  0  0  0  0  0  0  0  0
    3.8438   -0.8169    0.9675 C   0  0  0  0  0  0  0  0  0  0  0  0
    3.9525    0.6171    0.9850 N   0  0  0  0  0  0  0  0  0  0  0  0
    5.0742    1.3316    0.4374 C   0  0  0  0  0  0  0  0  0  0  0  0
    5.4083    2.5935    0.9533 C   0  0  0  0  0  0  0  0  0  0  0  0
    6.4827    3.3133    0.4230 C   0  0  0  0  0  0  0  0  0  0  0  0
    7.2266    2.7862   -0.6360 C   0  0  0  0  0  0  0  0  0  0  0  0
    8.2665    3.4941   -1.1437 F   0  0  0  0  0  0  0  0  0  0  0  0
    6.8908    1.5372   -1.1722 C   0  0  0  0  0  0  0  0  0  0  0  0
    7.8063    0.8740   -2.5155 Cl  0  0  0  0  0  0  0  0  0  0  0  0
    5.8152    0.8151   -0.6422 C   0  0  0  0  0  0  0  0  0  0  0  0
    2.5890   -1.4626    0.9005 C   0  0  0  0  0  0  0  0  0  0  0  0
    1.3763   -0.7642    0.7554 C   0  0  0  0  0  0  0  0  0  0  0  0
    0.1529   -1.4601    0.6923 C   0  0  0  0  0  0  0  0  0  0  0  0
   -1.0760   -0.7956    0.5542 O   0  0  0  0  0  0  0  0  0  0  0  0
   -1.2294    0.6187    0.4537 C   0  0  0  0  0  0  0  0  0  0  0  0
   -2.7099    0.9745    0.3171 C   0  0  0  0  0  0  0  0  0  0  0  0
   -3.3117    0.3940   -0.9823 C   0  0  0  0  0  0  0  0  0  0  0  0
   -4.7011    0.8215   -1.2597 N   0  0  0  0  0  0  0  0  0  0  0  0
   -4.8004    2.1994   -1.7797 C   0  0  0  0  0  0  0  0  0  0  0  0
   -6.2741    2.6420   -1.8677 C   0  0  0  0  0  0  0  0  0  0  0  0
   -7.1326    1.5184   -1.8795 O   0  0  0  0  0  0  0  0  0  0  0  0
   -7.0817    0.8533   -0.6268 C   0  0  0  0  0  0  0  0  0  0  0  0
   -5.6371    0.5952   -0.1467 C   0  0  0  0  0  0  0  0  0  0  0  0
   -2.3434   -5.1737    0.6896 H   0  0  0  0  0  0  0  0  0  0  0  0
   -0.8743   -5.3238    1.7246 H   0  0  0  0  0  0  0  0  0  0  0  0
   -0.7352   -5.4155   -0.0892 H   0  0  0  0  0  0  0  0  0  0  0  0
    1.3660   -4.6429    0.9415 H   0  0  0  0  0  0  0  0  0  0  0  0
    5.8401   -3.4949    1.1977 H   0  0  0  0  0  0  0  0  0  0  0  0
    3.2497    1.1601    1.5352 H   0  0  0  0  0  0  0  0  0  0  0  0
    4.8401    3.0154    1.7728 H   0  0  0  0  0  0  0  0  0  0  0  0
    6.7371    4.2821    0.8335 H   0  0  0  0  0  0  0  0  0  0  0  0
    5.5498   -0.1358   -1.0857 H   0  0  0  0  0  0  0  0  0  0  0  0
    1.3773    0.3120    0.6755 H   0  0  0  0  0  0  0  0  0  0  0  0
   -0.6694    1.0006   -0.4279 H   0  0  0  0  0  0  0  0  0  0  0  0
   -0.8292    1.1003    1.3723 H   0  0  0  0  0  0  0  0  0  0  0  0
   -2.8007    2.0793    0.3312 H   0  0  0  0  0  0  0  0  0  0  0  0
   -3.2464    0.5690    1.2014 H   0  0  0  0  0  0  0  0  0  0  0  0
   -2.6653    0.6693   -1.8453 H   0  0  0  0  0  0  0  0  0  0  0  0
   -3.2930   -0.7158   -0.9211 H   0  0  0  0  0  0  0  0  0  0  0  0
   -4.2489    2.9194   -1.1398 H   0  0  0  0  0  0  0  0  0  0  0  0
   -4.3532    2.2303   -2.7972 H   0  0  0  0  0  0  0  0  0  0  0  0
   -6.5280    3.3219   -1.0215 H   0  0  0  0  0  0  0  0  0  0  0  0
   -6.4298    3.2207   -2.8027 H   0  0  0  0  0  0  0  0  0  0  0  0
   -7.6013   -0.1220   -0.7385 H   0  0  0  0  0  0  0  0  0  0  0  0
   -7.6452    1.4348    0.1365 H   0  0  0  0  0  0  0  0  0  0  0  0
   -5.4135    1.2890    0.6943 H   0  0  0  0  0  0  0  0  0  0  0  0
   -5.5491   -0.4498    0.2248 H   0  0  0  0  0  0  0  0  0  0  0  0
  1  2  1  0
  2  3  1  0
  3  4  2  0
  4  5  1  0
  5  6  2  0
  6  7  1  0
  7  8  2  0
  8  9  1  0
  9 10  1  0
 10 11  1  0
 11 12  2  0
 12 13  1  0
 13 14  2  0
 14 15  1  0
 14 16  1  0
 16 17  1  0
 16 18  2  0
  9 19  2  0
 19 20  1  0
 20 21  2  0
 21 22  1  0
 22 23  1  0
 23 24  1  0
 24 25  1  0
 25 26  1  0
 26 27  1  0
 27 28  1  0
 28 29  1  0
 29 30  1  0
 30 31  1  0
 21  3  1  0
 31 26  1  0
 19  5  1  0
 18 11  1  0
  1 32  1  0
  1 33  1  0
  1 34  1  0
  4 35  1  0
  7 36  1  0
 10 37  1  0
 12 38  1  0
 13 39  1  0
 18 40  1  0
 20 41  1  0
 23 42  1  0
 23 43  1  0
 24 44  1  0
 24 45  1  0
 25 46  1  0
 25 47  1  0
 27 48  1  0
 27 49  1  0
 28 50  1  0
 28 51  1  0
 30 52  1  0
 30 53  1  0
 31 54  1  0
 31 55  1  0
M  END
$$$$
