
     RDKit          3D

 17 17  0  0  0  0  0  0  0  0999 V2000
    2.5935   -1.9601    0.3362 N   0  0  0  0  0  0  0  0  0  0  0  0
    2.3608   -0.8263    0.3296 C   0  0  0  0  0  0  0  0  0  0  0  0
    2.0733    0.5867    0.3203 C   0  0  0  0  0  0  0  0  0  0  0  0
    3.1805    1.4953    0.4611 C   0  0  0  0  0  0  0  0  0  0  0  0
    4.0708    2.2259    0.5744 N   0  0  0  0  0  0  0  0  0  0  0  0
    0.8402    1.0763    0.1069 C   0  0  0  0  0  0  0  0  0  0  0  0
   -0.3802    0.2535   -0.0633 C   0  0  0  0  0  0  0  0  0  0  0  0
   -1.3115    0.6117   -1.0480 C   0  0  0  0  0  0  0  0  0  0  0  0
   -2.4820   -0.1363   -1.1973 C   0  0  0  0  0  0  0  0  0  0  0  0
   -2.7255   -1.1930   -0.3778 N   0  0  0  0  0  0  0  0  0  0  0  0
   -1.8537   -1.5493    0.6022 C   0  0  0  0  0  0  0  0  0  0  0  0
   -0.6709   -0.8286    0.7851 C   0  0  0  0  0  0  0  0  0  0  0  0
    0.7221    2.1490   -0.0065 H   0  0  0  0  0  0  0  0  0  0  0  0
   -1.1283    1.4556   -1.7020 H   0  0  0  0  0  0  0  0  0  0  0  0
   -3.1991    0.1261   -1.9635 H   0  0  0  0  0  0  0  0  0  0  0  0
   -2.0835   -2.3867    1.2473 H   0  0  0  0  0  0  0  0  0  0  0  0
   -0.0063   -1.0996    1.5951 H   0  0  0  0  0  0  0  0  0  0  0  0
  1  2  3  0
  2  3  1  0
  3  4  1  0
  4  5  3  0
  3  6  2  3
  6  7  1  0
  7  8  2  0
  8  9  1  0
  9 10  2  0
 10 11  1  0
 11 12  2  0
 12  7  1  0
  6 13  1  0
  8 14  1  0
  9 15  1  0
 11 16  1  0
 12 17  1  0
M  END
$$$$
