
     RDKit          3D

 38 40  0  0  0  0  0  0  0  0999 V2000
   -6.3673   -1.0984   -0.4617 C   0  0  0  0  0  0  0  0  0  0  0  0
   -5.2059   -0.2308   -0.0762 C   0  0  0  0  0  0  0  0  0  0  0  0
   -5.4117    1.1137    0.2665 C   0  0  0  0  0  0  0  0  0  0  0  0
   -4.3267    1.9274    0.6003 C   0  0  0  0  0  0  0  0  0  0  0  0
   -3.0280    1.4130    0.5733 C   0  0  0  0  0  0  0  0  0  0  0  0
   -2.8016    0.0788    0.1912 C   0  0  0  0  0  0  0  0  0  0  0  0
   -1.4766   -0.4788    0.1704 N   0  0  0  0  0  0  0  0  0  0  0  0
   -0.3039    0.2579   -0.2141 C   0  0  0  0  0  0  0  0  0  0  0  0
   -0.4057    1.4331   -0.9021 N   0  0  0  0  0  0  0  0  0  0  0  0
    0.7008    2.1300   -1.3005 C   0  0  0  0  0  0  0  0  0  0  0  0
    1.9509    1.6587   -1.0262 N   0  0  0  0  0  0  0  0  0  0  0  0
    2.0870    0.4885   -0.3534 C   0  0  0  0  0  0  0  0  0  0  0  0
    0.9745   -0.2273    0.0564 C   0  0  0  0  0  0  0  0  0  0  0  0
    1.4551   -1.6315    0.8669 S   0  0  0  0  0  0  0  0  0  0  0  0
    3.1057   -1.3126    0.6840 C   0  0  0  0  0  0  0  0  0  0  0  0
    4.1775   -2.0795    1.1268 C   0  0  0  0  0  0  0  0  0  0  0  0
    5.4780   -1.6225    0.8650 C   0  0  0  0  0  0  0  0  0  0  0  0
    5.6955   -0.4078    0.1660 C   0  0  0  0  0  0  0  0  0  0  0  0
    7.0330    0.0533   -0.0980 N   0  0  0  0  0  4  0  0  0  0  0  0
    8.0215   -0.6073    0.2834 O   0  0  0  0  0  0  0  0  0  0  0  0
    7.2452    1.2319   -0.7762 O   0  0  0  0  0  1  0  0  0  0  0  0
    4.5847    0.3489   -0.2707 C   0  0  0  0  0  0  0  0  0  0  0  0
    3.2952   -0.1187   -0.0030 C   0  0  0  0  0  0  0  0  0  0  0  0
   -3.8984   -0.7401   -0.1195 C   0  0  0  0  0  0  0  0  0  0  0  0
    0.6878    0.0000    0.0000 Cl  0  0  0  0  0  0  0  0  0  0  0  0
   -7.2895   -0.7783    0.0686 H   0  0  0  0  0  0  0  0  0  0  0  0
   -6.1693   -2.1585   -0.1955 H   0  0  0  0  0  0  0  0  0  0  0  0
   -6.5353   -1.0250   -1.5565 H   0  0  0  0  0  0  0  0  0  0  0  0
   -6.4118    1.5289    0.2842 H   0  0  0  0  0  0  0  0  0  0  0  0
   -4.4930    2.9581    0.8859 H   0  0  0  0  0  0  0  0  0  0  0  0
   -2.2063    2.0516    0.8691 H   0  0  0  0  0  0  0  0  0  0  0  0
   -1.3765   -1.5010    0.3641 H   0  0  0  0  0  0  0  0  0  0  0  0
    0.5839    3.0599   -1.8396 H   0  0  0  0  0  0  0  0  0  0  0  0
    4.0138   -3.0067    1.6605 H   0  0  0  0  0  0  0  0  0  0  0  0
    6.3151   -2.2167    1.2080 H   0  0  0  0  0  0  0  0  0  0  0  0
    4.7208    1.2798   -0.8063 H   0  0  0  0  0  0  0  0  0  0  0  0
   -3.7307   -1.7720   -0.4043 H   0  0  0  0  0  0  0  0  0  0  0  0
   -0.6878    0.0000    0.0000 H   0  0  0  0  0  0  0  0  0  0  0  0
  1  2  1  0
  2  3  2  0
  3  4  1  0
  4  5  2  0
  5  6  1  0
  6  7  1  0
  7  8  1  0
  8  9  2  0
  9 10  1  0
 10 11  2  0
 11 12  1  0
 12 13  2  0
 13 14  1  0
 14 15  1  0
 15 16  2  0
 16 17  1  0
 17 18  2  0
 18 19  1  0
 19 20  2  0
 19 21  1  0
 18 22  1  0
 22 23  2  0
  6 24  2  0
 24  2  1  0
 13  8  1  0
 23 15  1  0
 23 12  1  0
  1 26  1  0
  1 27  1  0
  1 28  1  0
  3 29  1  0
  4 30  1  0
  5 31  1  0
  7 32  1  0
 10 33  1  0
 16 34  1  0
 17 35  1  0
 22 36  1  0
 24 37  1  0
 25 38  1  0
M  CHG  2  19   1  21  -1
M  END
$$$$
