
     RDKit          3D

 47 48  0  0  0  0  0  0  0  0999 V2000
   -4.3719    1.8282   -2.6312 C   0  0  0  0  0  0  0  0  0  0  0  0
   -4.3832    1.5680   -1.2298 O   0  0  0  0  0  0  0  0  0  0  0  0
   -3.2856    1.0554   -0.5253 C   0  0  0  0  0  0  0  0  0  0  0  0
   -3.5035   -0.0574    0.2937 C   0  0  0  0  0  0  0  0  0  0  0  0
   -2.4407   -0.6721    0.9728 C   0  0  0  0  0  0  0  0  0  0  0  0
   -2.6432   -1.8928    1.7887 C   0  0  0  0  0  0  0  0  0  0  0  0
   -3.6302   -2.0576    2.6922 C   0  0  0  0  0  0  0  0  0  0  0  0
   -4.5274   -0.9727    3.0251 C   0  0  0  0  0  0  0  0  0  0  0  0
   -5.2453   -0.1054    3.2931 N   0  0  0  0  0  0  0  0  0  0  0  0
   -3.7615   -3.3210    3.4571 C   0  0  0  0  0  0  0  0  0  0  0  0
   -3.2628   -4.5621    2.9487 N   0  0  0  0  0  0  0  0  0  0  0  0
   -4.3489   -3.3124    4.5727 O   0  0  0  0  0  0  0  0  0  0  0  0
   -1.1428   -0.1786    0.7984 C   0  0  0  0  0  0  0  0  0  0  0  0
   -0.9100    0.9711    0.0286 C   0  0  0  0  0  0  0  0  0  0  0  0
    0.4961    1.4847   -0.1233 C   0  0  0  0  0  0  0  0  0  0  0  0
    1.2258    0.8039   -1.6488 S   0  0  0  0  0  0  0  0  0  0  0  0
    2.8591    1.4779   -1.3144 C   0  0  0  0  0  0  0  0  0  0  0  0
    3.1610    2.7668   -1.7732 C   0  0  0  0  0  0  0  0  0  0  0  0
    4.4230    3.3187   -1.5457 C   0  0  0  0  0  0  0  0  0  0  0  0
    5.3915    2.5869   -0.8575 C   0  0  0  0  0  0  0  0  0  0  0  0
    5.1032    1.2983   -0.4009 C   0  0  0  0  0  0  0  0  0  0  0  0
    3.8407    0.7229   -0.6360 C   0  0  0  0  0  0  0  0  0  0  0  0
    3.5380   -0.5962   -0.1456 N   0  0  0  0  0  0  0  0  0  0  0  0
    4.4690   -1.6883   -0.1768 C   0  0  0  0  0  0  0  0  0  0  0  0
    4.1272   -2.9759    0.4996 C   0  0  0  0  0  0  0  0  0  0  0  0
    5.5417   -1.5996   -0.8333 O   0  0  0  0  0  0  0  0  0  0  0  0
   -1.9864    1.6065   -0.6228 C   0  0  0  0  0  0  0  0  0  0  0  0
   -1.7453    2.7878   -1.3270 O   0  0  0  0  0  0  0  0  0  0  0  0
   -3.5020    1.3423   -3.1240 H   0  0  0  0  0  0  0  0  0  0  0  0
   -5.3018    1.4214   -3.0788 H   0  0  0  0  0  0  0  0  0  0  0  0
   -4.3545    2.9215   -2.8152 H   0  0  0  0  0  0  0  0  0  0  0  0
   -4.5009   -0.4753    0.3521 H   0  0  0  0  0  0  0  0  0  0  0  0
   -1.8864   -2.6605    1.6886 H   0  0  0  0  0  0  0  0  0  0  0  0
   -3.3215   -5.4250    3.5338 H   0  0  0  0  0  0  0  0  0  0  0  0
   -2.9175   -4.6553    1.9685 H   0  0  0  0  0  0  0  0  0  0  0  0
   -0.3117   -0.6775    1.2841 H   0  0  0  0  0  0  0  0  0  0  0  0
    1.1099    1.1874    0.7546 H   0  0  0  0  0  0  0  0  0  0  0  0
    0.5042    2.5946   -0.1695 H   0  0  0  0  0  0  0  0  0  0  0  0
    2.4149    3.3439   -2.3049 H   0  0  0  0  0  0  0  0  0  0  0  0
    4.6486    4.3166   -1.8989 H   0  0  0  0  0  0  0  0  0  0  0  0
    6.3655    3.0210   -0.6717 H   0  0  0  0  0  0  0  0  0  0  0  0
    5.8594    0.7599    0.1553 H   0  0  0  0  0  0  0  0  0  0  0  0
    2.5739   -0.7940    0.2043 H   0  0  0  0  0  0  0  0  0  0  0  0
    3.6454   -2.7716    1.4787 H   0  0  0  0  0  0  0  0  0  0  0  0
    3.4269   -3.5535   -0.1388 H   0  0  0  0  0  0  0  0  0  0  0  0
    5.0443   -3.5779    0.6727 H   0  0  0  0  0  0  0  0  0  0  0  0
   -2.4842    3.3969   -1.6473 H   0  0  0  0  0  0  0  0  0  0  0  0
  1  2  1  0
  2  3  1  0
  3  4  2  0
  4  5  1  0
  5  6  1  0
  6  7  2  0
  7  8  1  0
  8  9  3  0
  7 10  1  0
 10 11  1  0
 10 12  2  0
  5 13  2  0
 13 14  1  0
 14 15  1  0
 15 16  1  0
 16 17  1  0
 17 18  2  0
 18 19  1  0
 19 20  2  0
 20 21  1  0
 21 22  2  0
 22 23  1  0
 23 24  1  0
 24 25  1  0
 24 26  2  0
 14 27  2  0
 27 28  1  0
 27  3  1  0
 22 17  1  0
  1 29  1  0
  1 30  1  0
  1 31  1  0
  4 32  1  0
  6 33  1  0
 11 34  1  0
 11 35  1  0
 13 36  1  0
 15 37  1  0
 15 38  1  0
 18 39  1  0
 19 40  1  0
 20 41  1  0
 21 42  1  0
 23 43  1  0
 25 44  1  0
 25 45  1  0
 25 46  1  0
 28 47  1  0
M  END
$$$$
