
     RDKit          3D

 73 81  0  0  0  0  0  0  0  0999 V2000
    2.1722    2.1147    1.9834 C   0  0  0  0  0  0  0  0  0  0  0  0
    1.1811    1.3088    1.3745 O   0  0  0  0  0  0  0  0  0  0  0  0
    1.5687    0.8945    0.0712 C   0  0  1  0  0  0  0  0  0  0  0  0
    2.0393   -0.5831    0.0876 C   0  0  1  0  0  0  0  0  0  0  0  0
    2.9154   -0.9310    1.2336 N   0  0  0  0  0  0  0  0  0  0  0  0
    2.3645   -1.1738    2.5761 C   0  0  0  0  0  0  0  0  0  0  0  0
    4.2871   -1.3270    1.0012 C   0  0  0  0  0  0  0  0  0  0  0  0
    4.8138   -2.2107    1.7315 O   0  0  0  0  0  0  0  0  0  0  0  0
    5.0964   -0.7416   -0.0866 C   0  0  0  0  0  0  0  0  0  0  0  0
    5.8284   -1.5782   -0.9441 C   0  0  0  0  0  0  0  0  0  0  0  0
    6.5893   -1.0316   -1.9822 C   0  0  0  0  0  0  0  0  0  0  0  0
    6.6342    0.3545   -2.1639 C   0  0  0  0  0  0  0  0  0  0  0  0
    7.5882    1.0394   -3.4669 Cl  0  0  0  0  0  0  0  0  0  0  0  0
    5.9247    1.1941   -1.2995 C   0  0  0  0  0  0  0  0  0  0  0  0
    5.1634    0.6493   -0.2613 C   0  0  0  0  0  0  0  0  0  0  0  0
    0.8271   -1.4998    0.0117 C   0  0  0  0  0  0  0  0  0  0  0  0
    0.1184   -1.2727   -1.3308 C   0  0  2  0  0  0  0  0  0  0  0  0
    0.2672    0.0259   -1.8785 O   0  0  0  0  0  0  0  0  0  0  0  0
    0.3656    1.1028   -0.9482 C   0  0  2  0  0  0  0  0  0  0  0  0
    0.6781    2.3115   -1.8669 C   0  0  0  0  0  0  0  0  0  0  0  0
   -0.9464    1.3411   -0.2554 N   0  0  0  0  0  0  0  0  0  0  0  0
   -1.3613    2.4757    0.4019 C   0  0  0  0  0  0  0  0  0  0  0  0
   -0.6184    3.6217    0.7360 C   0  0  0  0  0  0  0  0  0  0  0  0
   -1.2535    4.6738    1.4152 C   0  0  0  0  0  0  0  0  0  0  0  0
   -2.6121    4.5844    1.7621 C   0  0  0  0  0  0  0  0  0  0  0  0
   -3.3490    3.4375    1.4414 C   0  0  0  0  0  0  0  0  0  0  0  0
   -2.6964    2.4029    0.7668 C   0  0  0  0  0  0  0  0  0  0  0  0
   -3.1487    1.1799    0.3483 C   0  0  0  0  0  0  0  0  0  0  0  0
   -4.4025    0.5531    0.4532 C   0  0  0  0  0  0  0  0  0  0  0  0
   -4.5675   -0.7396   -0.0392 C   0  0  0  0  0  0  0  0  0  0  0  0
   -3.4696   -1.4154   -0.6131 C   0  0  0  0  0  0  0  0  0  0  0  0
   -3.2510   -2.7139   -1.0610 C   0  0  0  0  0  0  0  0  0  0  0  0
   -4.0691   -3.8466   -1.1273 C   0  0  0  0  0  0  0  0  0  0  0  0
   -3.5050   -5.0513   -1.5785 C   0  0  0  0  0  0  0  0  0  0  0  0
   -2.1449   -5.1160   -1.9354 C   0  0  0  0  0  0  0  0  0  0  0  0
   -1.3308   -3.9766   -1.8464 C   0  0  0  0  0  0  0  0  0  0  0  0
   -1.9112   -2.7794   -1.4116 C   0  0  0  0  0  0  0  0  0  0  0  0
   -1.2960   -1.5881   -1.2201 N   0  0  0  0  0  0  0  0  0  0  0  0
   -2.2374   -0.7648   -0.7275 C   0  0  0  0  0  0  0  0  0  0  0  0
   -2.0657    0.5499   -0.2550 C   0  0  0  0  0  0  0  0  0  0  0  0
   -5.9535   -1.0909    0.2084 C   0  0  0  0  0  0  0  0  0  0  0  0
   -6.5378   -2.1450   -0.1447 O   0  0  0  0  0  0  0  0  0  0  0  0
   -6.6163   -0.0225    0.8685 N   0  0  0  0  0  0  0  0  0  0  0  0
   -5.6733    1.0754    1.0598 C   0  0  0  0  0  0  0  0  0  0  0  0
    1.7755    2.4908    2.9480 H   0  0  0  0  0  0  0  0  0  0  0  0
    2.4335    2.9974    1.3607 H   0  0  0  0  0  0  0  0  0  0  0  0
    3.0882    1.5307    2.2015 H   0  0  0  0  0  0  0  0  0  0  0  0
    2.4426    1.4723   -0.3126 H   0  0  0  0  0  0  0  0  0  0  0  0
    2.6081   -0.7498   -0.8564 H   0  0  0  0  0  0  0  0  0  0  0  0
    2.3332   -2.2655    2.7772 H   0  0  0  0  0  0  0  0  0  0  0  0
    3.0043   -0.6834    3.3398 H   0  0  0  0  0  0  0  0  0  0  0  0
    1.3386   -0.7736    2.6872 H   0  0  0  0  0  0  0  0  0  0  0  0
    5.7975   -2.6536   -0.8191 H   0  0  0  0  0  0  0  0  0  0  0  0
    7.1416   -1.6857   -2.6445 H   0  0  0  0  0  0  0  0  0  0  0  0
    5.9676    2.2685   -1.4268 H   0  0  0  0  0  0  0  0  0  0  0  0
    4.6497    1.3137    0.4179 H   0  0  0  0  0  0  0  0  0  0  0  0
    0.1275   -1.2851    0.8480 H   0  0  0  0  0  0  0  0  0  0  0  0
    1.1429   -2.5633    0.0921 H   0  0  0  0  0  0  0  0  0  0  0  0
    0.5854   -1.9593   -2.0674 H   0  0  0  0  0  0  0  0  0  0  0  0
    1.1663    3.1553   -1.3499 H   0  0  0  0  0  0  0  0  0  0  0  0
   -0.2479    2.6725   -2.3640 H   0  0  0  0  0  0  0  0  0  0  0  0
    1.3925    2.0092   -2.6640 H   0  0  0  0  0  0  0  0  0  0  0  0
    0.4274    3.7184    0.5286 H   0  0  0  0  0  0  0  0  0  0  0  0
   -0.6892    5.5580    1.6829 H   0  0  0  0  0  0  0  0  0  0  0  0
   -3.0888    5.4010    2.2884 H   0  0  0  0  0  0  0  0  0  0  0  0
   -4.3900    3.3731    1.7192 H   0  0  0  0  0  0  0  0  0  0  0  0
   -5.1016   -3.8346   -0.8362 H   0  0  0  0  0  0  0  0  0  0  0  0
   -4.1184   -5.9410   -1.6411 H   0  0  0  0  0  0  0  0  0  0  0  0
   -1.7218   -6.0538   -2.2713 H   0  0  0  0  0  0  0  0  0  0  0  0
   -0.2832   -4.0430   -2.1030 H   0  0  0  0  0  0  0  0  0  0  0  0
   -7.6217   -0.0138    1.1497 H   0  0  0  0  0  0  0  0  0  0  0  0
   -6.0257    1.9785    0.5184 H   0  0  0  0  0  0  0  0  0  0  0  0
   -5.5398    1.2749    2.1438 H   0  0  0  0  0  0  0  0  0  0  0  0
  1  2  1  0
  2  3  1  0
  3  4  1  0
  4  5  1  0
  5  6  1  0
  5  7  1  0
  7  8  2  0
  7  9  1  0
  9 10  2  0
 10 11  1  0
 11 12  2  0
 12 13  1  0
 12 14  1  0
 14 15  2  0
  4 16  1  0
 16 17  1  0
 17 18  1  0
 18 19  1  0
 19 20  1  6
 19 21  1  0
 21 22  1  0
 22 23  2  0
 23 24  1  0
 24 25  2  0
 25 26  1  0
 26 27  2  0
 27 28  1  0
 28 29  2  0
 29 30  1  0
 30 31  2  0
 31 32  1  0
 32 33  2  0
 33 34  1  0
 34 35  2  0
 35 36  1  0
 36 37  2  0
 37 38  1  0
 38 39  1  0
 39 40  2  0
 30 41  1  0
 41 42  2  0
 41 43  1  0
 43 44  1  0
 19  3  1  0
 40 21  1  0
 15  9  1  0
 38 17  1  0
 27 22  1  0
 40 28  1  0
 44 29  1  0
 39 31  1  0
 37 32  1  0
  1 45  1  0
  1 46  1  0
  1 47  1  0
  3 48  1  6
  4 49  1  6
  6 50  1  0
  6 51  1  0
  6 52  1  0
 10 53  1  0
 11 54  1  0
 14 55  1  0
 15 56  1  0
 16 57  1  0
 16 58  1  0
 17 59  1  6
 20 60  1  0
 20 61  1  0
 20 62  1  0
 23 63  1  0
 24 64  1  0
 25 65  1  0
 26 66  1  0
 33 67  1  0
 34 68  1  0
 35 69  1  0
 36 70  1  0
 43 71  1  0
 44 72  1  0
 44 73  1  0
M  END
$$$$
