
     RDKit          3D

 36 37  0  0  0  0  0  0  0  0999 V2000
    6.9475   -0.4836   -1.4610 C   0  0  0  0  0  0  0  0  0  0  0  0
    5.5293   -0.4374   -1.3605 O   0  0  0  0  0  0  0  0  0  0  0  0
    4.8646   -0.1451   -0.1638 C   0  0  0  0  0  0  0  0  0  0  0  0
    5.5326    0.0890    0.8808 O   0  0  0  0  0  0  0  0  0  0  0  0
    3.3795   -0.1121   -0.1358 C   0  0  0  0  0  0  0  0  0  0  0  0
    2.6660   -0.3243   -1.3285 C   0  0  0  0  0  0  0  0  0  0  0  0
    1.2703   -0.2990   -1.3411 C   0  0  0  0  0  0  0  0  0  0  0  0
    0.5489   -0.0620   -0.1644 C   0  0  0  0  0  0  0  0  0  0  0  0
   -0.8905   -0.0418   -0.2135 N   0  0  0  0  0  0  0  0  0  0  0  0
   -1.7324    0.2238    0.9554 C   0  0  0  0  0  0  0  0  0  0  0  0
   -3.1930    0.2415    0.5720 C   0  0  0  0  0  0  0  0  0  0  0  0
   -4.0100   -0.8467    0.9280 C   0  0  0  0  0  0  0  0  0  0  0  0
   -5.3670   -0.8637    0.5807 C   0  0  0  0  0  0  0  0  0  0  0  0
   -6.1783   -1.9385    0.9376 O   0  0  0  0  0  0  0  0  0  0  0  0
   -5.9147    0.2055   -0.1306 C   0  0  0  0  0  0  0  0  0  0  0  0
   -5.1123    1.2857   -0.5021 C   0  0  0  0  0  0  0  0  0  0  0  0
   -3.7540    1.3126   -0.1652 C   0  0  0  0  0  0  0  0  0  0  0  0
   -2.9939    2.4081   -0.5810 O   0  0  0  0  0  0  0  0  0  0  0  0
    1.2540    0.1490    1.0339 C   0  0  0  0  0  0  0  0  0  0  0  0
    2.6570    0.1259    1.0558 C   0  0  0  0  0  0  0  0  0  0  0  0
    3.3240    0.3377    2.2629 O   0  0  0  0  0  0  0  0  0  0  0  0
    7.3522   -1.2602   -0.7778 H   0  0  0  0  0  0  0  0  0  0  0  0
    7.2310   -0.7382   -2.5028 H   0  0  0  0  0  0  0  0  0  0  0  0
    7.3793    0.5063   -1.2022 H   0  0  0  0  0  0  0  0  0  0  0  0
    3.1858   -0.5091   -2.2601 H   0  0  0  0  0  0  0  0  0  0  0  0
    0.7488   -0.4642   -2.2756 H   0  0  0  0  0  0  0  0  0  0  0  0
   -1.3532   -0.2260   -1.1338 H   0  0  0  0  0  0  0  0  0  0  0  0
   -1.5423   -0.5565    1.7243 H   0  0  0  0  0  0  0  0  0  0  0  0
   -1.4592    1.2013    1.4066 H   0  0  0  0  0  0  0  0  0  0  0  0
   -3.5945   -1.6830    1.4770 H   0  0  0  0  0  0  0  0  0  0  0  0
   -5.8126   -2.7299    1.4540 H   0  0  0  0  0  0  0  0  0  0  0  0
   -6.9631    0.1972   -0.4006 H   0  0  0  0  0  0  0  0  0  0  0  0
   -5.5464    2.1051   -1.0611 H   0  0  0  0  0  0  0  0  0  0  0  0
   -2.0010    2.4929   -0.4069 H   0  0  0  0  0  0  0  0  0  0  0  0
    0.7245    0.3310    1.9590 H   0  0  0  0  0  0  0  0  0  0  0  0
    2.8230    0.5089    3.1270 H   0  0  0  0  0  0  0  0  0  0  0  0
  1  2  1  0
  2  3  1  0
  3  4  2  0
  3  5  1  0
  5  6  2  0
  6  7  1  0
  7  8  2  0
  8  9  1  0
  9 10  1  0
 10 11  1  0
 11 12  2  0
 12 13  1  0
 13 14  1  0
 13 15  2  0
 15 16  1  0
 16 17  2  0
 17 18  1  0
  8 19  1  0
 19 20  2  0
 20 21  1  0
 20  5  1  0
 17 11  1  0
  1 22  1  0
  1 23  1  0
  1 24  1  0
  6 25  1  0
  7 26  1  0
  9 27  1  0
 10 28  1  0
 10 29  1  0
 12 30  1  0
 14 31  1  0
 15 32  1  0
 16 33  1  0
 18 34  1  0
 19 35  1  0
 21 36  1  0
M  END
$$$$
