
     RDKit          3D

 54 57  0  0  0  0  0  0  0  0999 V2000
   -0.9468   -2.4051   -3.3148 C   0  0  0  0  0  0  0  0  0  0  0  0
   -0.0671   -2.3009   -2.1999 O   0  0  0  0  0  0  0  0  0  0  0  0
   -0.3296   -1.5498   -1.0426 C   0  0  0  0  0  0  0  0  0  0  0  0
   -1.5241   -0.8201   -0.8806 C   0  0  0  0  0  0  0  0  0  0  0  0
   -1.7508   -0.0701    0.2879 C   0  0  0  0  0  0  0  0  0  0  0  0
   -2.9279    0.6816    0.5030 C   0  0  0  0  0  0  0  0  0  0  0  0
   -3.9408    0.8042   -0.5105 N   0  0  0  0  0  0  0  0  0  0  0  0
   -5.3206    1.0691   -0.2048 C   0  0  0  0  0  0  0  0  0  0  0  0
   -5.9659    0.4255    0.8705 C   0  0  0  0  0  0  0  0  0  0  0  0
   -5.3084   -0.4854    1.6315 F   0  0  0  0  0  0  0  0  0  0  0  0
   -7.3127    0.6882    1.1410 C   0  0  0  0  0  0  0  0  0  0  0  0
   -8.0302    1.5807    0.3399 C   0  0  0  0  0  0  0  0  0  0  0  0
   -9.8696    1.9339    0.7131 Br  0  0  0  0  0  0  0  0  0  0  0  0
   -7.4031    2.2062   -0.7410 C   0  0  0  0  0  0  0  0  0  0  0  0
   -6.0570    1.9480   -1.0184 C   0  0  0  0  0  0  0  0  0  0  0  0
   -5.4650    2.5697   -2.0692 F   0  0  0  0  0  0  0  0  0  0  0  0
   -3.0846    1.3464    1.6808 N   0  0  0  0  0  0  0  0  0  0  0  0
   -2.1401    1.3065    2.6535 C   0  0  0  0  0  0  0  0  0  0  0  0
   -0.9985    0.6003    2.4645 N   0  0  0  0  0  0  0  0  0  0  0  0
   -0.7807   -0.0844    1.3122 C   0  0  0  0  0  0  0  0  0  0  0  0
    0.4031   -0.8085    1.1516 C   0  0  0  0  0  0  0  0  0  0  0  0
    0.6402   -1.5368   -0.0289 C   0  0  0  0  0  0  0  0  0  0  0  0
    1.8201   -2.2727   -0.2349 O   0  0  0  0  0  0  0  0  0  0  0  0
    2.9859   -2.2295    0.5902 C   0  0  0  0  0  0  0  0  0  0  0  0
    3.7454   -0.9016    0.4062 C   0  0  0  0  0  0  0  0  0  0  0  0
    4.9861   -0.8590    1.3069 C   0  0  0  0  0  0  0  0  0  0  0  0
    5.7008    0.5023    1.1886 C   0  0  0  0  0  0  0  0  0  0  0  0
    5.7306    1.0570   -0.1904 N   0  0  0  0  0  0  0  0  0  0  0  0
    4.8644    2.2386   -0.3421 C   0  0  0  0  0  0  0  0  0  0  0  0
    5.4831    0.0513   -1.2435 C   0  0  0  0  0  0  0  0  0  0  0  0
    4.1304   -0.6702   -1.0755 C   0  0  0  0  0  0  0  0  0  0  0  0
   -1.9094   -2.8611   -3.0006 H   0  0  0  0  0  0  0  0  0  0  0  0
   -1.1236   -1.4019   -3.7570 H   0  0  0  0  0  0  0  0  0  0  0  0
   -0.4812   -3.0546   -4.0839 H   0  0  0  0  0  0  0  0  0  0  0  0
   -2.2731   -0.8547   -1.6565 H   0  0  0  0  0  0  0  0  0  0  0  0
   -3.6382    0.8857   -1.5068 H   0  0  0  0  0  0  0  0  0  0  0  0
   -7.8017    0.1898    1.9682 H   0  0  0  0  0  0  0  0  0  0  0  0
   -7.9590    2.8925   -1.3670 H   0  0  0  0  0  0  0  0  0  0  0  0
   -2.2951    1.8446    3.5783 H   0  0  0  0  0  0  0  0  0  0  0  0
    1.1255   -0.8018    1.9558 H   0  0  0  0  0  0  0  0  0  0  0  0
    2.7116   -2.3924    1.6543 H   0  0  0  0  0  0  0  0  0  0  0  0
    3.6481   -3.0725    0.2976 H   0  0  0  0  0  0  0  0  0  0  0  0
    3.0754   -0.0760    0.7284 H   0  0  0  0  0  0  0  0  0  0  0  0
    4.6952   -1.0245    2.3676 H   0  0  0  0  0  0  0  0  0  0  0  0
    5.6873   -1.6735    1.0185 H   0  0  0  0  0  0  0  0  0  0  0  0
    6.7480    0.3768    1.5366 H   0  0  0  0  0  0  0  0  0  0  0  0
    5.2240    1.2137    1.9011 H   0  0  0  0  0  0  0  0  0  0  0  0
    5.1949    3.0396    0.3532 H   0  0  0  0  0  0  0  0  0  0  0  0
    3.8023    1.9952   -0.1296 H   0  0  0  0  0  0  0  0  0  0  0  0
    4.9434    2.6475   -1.3722 H   0  0  0  0  0  0  0  0  0  0  0  0
    6.3017   -0.7012   -1.2145 H   0  0  0  0  0  0  0  0  0  0  0  0
    5.5342    0.5214   -2.2502 H   0  0  0  0  0  0  0  0  0  0  0  0
    4.1921   -1.6358   -1.6243 H   0  0  0  0  0  0  0  0  0  0  0  0
    3.3312   -0.0720   -1.5656 H   0  0  0  0  0  0  0  0  0  0  0  0
  1  2  1  0
  2  3  1  0
  3  4  2  0
  4  5  1  0
  5  6  2  0
  6  7  1  0
  7  8  1  0
  8  9  2  0
  9 10  1  0
  9 11  1  0
 11 12  2  0
 12 13  1  0
 12 14  1  0
 14 15  2  0
 15 16  1  0
  6 17  1  0
 17 18  2  0
 18 19  1  0
 19 20  2  0
 20 21  1  0
 21 22  2  0
 22 23  1  0
 23 24  1  0
 24 25  1  0
 25 26  1  0
 26 27  1  0
 27 28  1  0
 28 29  1  0
 28 30  1  0
 30 31  1  0
 22  3  1  0
 31 25  1  0
 20  5  1  0
 15  8  1  0
  1 32  1  0
  1 33  1  0
  1 34  1  0
  4 35  1  0
  7 36  1  0
 11 37  1  0
 14 38  1  0
 18 39  1  0
 21 40  1  0
 24 41  1  0
 24 42  1  0
 25 43  1  0
 26 44  1  0
 26 45  1  0
 27 46  1  0
 27 47  1  0
 29 48  1  0
 29 49  1  0
 29 50  1  0
 30 51  1  0
 30 52  1  0
 31 53  1  0
 31 54  1  0
M  END
$$$$
