
     RDKit          3D

 45 48  0  0  0  0  0  0  0  0999 V2000
   -7.5575    1.1577   -1.0590 C   0  0  0  0  0  0  0  0  0  0  0  0
   -7.0260   -0.1631   -1.0768 O   0  0  0  0  0  0  0  0  0  0  0  0
   -5.7894   -0.5273   -0.5235 C   0  0  0  0  0  0  0  0  0  0  0  0
   -5.3903   -1.8654   -0.6133 C   0  0  0  0  0  0  0  0  0  0  0  0
   -4.1730   -2.2795   -0.0686 C   0  0  0  0  0  0  0  0  0  0  0  0
   -3.3371   -1.3569    0.5637 C   0  0  0  0  0  0  0  0  0  0  0  0
   -3.7074   -0.0028    0.6424 C   0  0  0  0  0  0  0  0  0  0  0  0
   -2.8729    0.9639    1.3035 N   0  0  0  0  0  0  0  0  0  0  0  0
   -1.4394    0.9635    1.2435 C   0  0  0  0  0  0  0  0  0  0  0  0
   -0.7341    1.8037    2.0463 N   0  0  0  0  0  0  0  0  0  0  0  0
    0.6219    1.8486    1.9986 C   0  0  0  0  0  0  0  0  0  0  0  0
    1.3150    1.0246    1.1064 C   0  0  0  0  0  0  0  0  0  0  0  0
    2.7065    1.0300    1.0362 C   0  0  0  0  0  0  0  0  0  0  0  0
    3.3585    0.1759    0.1448 C   0  0  0  0  0  0  0  0  0  0  0  0
    4.8374    0.1745    0.0875 C   0  0  0  0  0  0  0  0  0  0  0  0
    5.5091    0.7743   -0.9991 C   0  0  0  0  0  0  0  0  0  0  0  0
    4.6281    1.5621   -2.3047 Cl  0  0  0  0  0  0  0  0  0  0  0  0
    6.9077    0.7696   -1.0447 C   0  0  0  0  0  0  0  0  0  0  0  0
    7.6439    0.1749   -0.0190 C   0  0  0  0  0  0  0  0  0  0  0  0
    6.9877   -0.4187    1.0602 C   0  0  0  0  0  0  0  0  0  0  0  0
    5.5898   -0.4226    1.1214 C   0  0  0  0  0  0  0  0  0  0  0  0
    4.8105   -1.2048    2.4934 Cl  0  0  0  0  0  0  0  0  0  0  0  0
    2.5972   -0.6762   -0.6781 C   0  0  0  0  0  0  0  0  0  0  0  0
    3.1933   -1.4708   -1.4584 O   0  0  0  0  0  0  0  0  0  0  0  0
    1.2226   -0.6513   -0.6285 N   0  0  0  0  0  0  0  0  0  0  0  0
    0.4349   -1.5619   -1.4785 C   0  0  0  0  0  0  0  0  0  0  0  0
    0.5782    0.1691    0.2659 C   0  0  0  0  0  0  0  0  0  0  0  0
   -0.7805    0.1677    0.3586 N   0  0  0  0  0  0  0  0  0  0  0  0
   -4.9437    0.4016    0.1149 C   0  0  0  0  0  0  0  0  0  0  0  0
   -6.8795    1.8495   -1.6021 H   0  0  0  0  0  0  0  0  0  0  0  0
   -8.5447    1.1581   -1.5649 H   0  0  0  0  0  0  0  0  0  0  0  0
   -7.6947    1.5001   -0.0116 H   0  0  0  0  0  0  0  0  0  0  0  0
   -6.0316   -2.5892   -1.1002 H   0  0  0  0  0  0  0  0  0  0  0  0
   -3.8808   -3.3200   -0.1288 H   0  0  0  0  0  0  0  0  0  0  0  0
   -2.4162   -1.7073    1.0104 H   0  0  0  0  0  0  0  0  0  0  0  0
   -3.3357    1.7705    1.7809 H   0  0  0  0  0  0  0  0  0  0  0  0
    1.1539    2.5242    2.6568 H   0  0  0  0  0  0  0  0  0  0  0  0
    3.2843    1.6877    1.6763 H   0  0  0  0  0  0  0  0  0  0  0  0
    7.4264    1.2311   -1.8754 H   0  0  0  0  0  0  0  0  0  0  0  0
    8.7255    0.1747   -0.0603 H   0  0  0  0  0  0  0  0  0  0  0  0
    7.5681   -0.8793    1.8497 H   0  0  0  0  0  0  0  0  0  0  0  0
   -0.4960   -1.0686   -1.8320 H   0  0  0  0  0  0  0  0  0  0  0  0
    0.9927   -1.8606   -2.3912 H   0  0  0  0  0  0  0  0  0  0  0  0
    0.1689   -2.4726   -0.9016 H   0  0  0  0  0  0  0  0  0  0  0  0
   -5.2312    1.4412    0.1965 H   0  0  0  0  0  0  0  0  0  0  0  0
  1  2  1  0
  2  3  1  0
  3  4  2  0
  4  5  1  0
  5  6  2  0
  6  7  1  0
  7  8  1  0
  8  9  1  0
  9 10  2  0
 10 11  1  0
 11 12  2  0
 12 13  1  0
 13 14  2  0
 14 15  1  0
 15 16  2  0
 16 17  1  0
 16 18  1  0
 18 19  2  0
 19 20  1  0
 20 21  2  0
 21 22  1  0
 14 23  1  0
 23 24  2  0
 23 25  1  0
 25 26  1  0
 25 27  1  0
 27 28  2  0
  7 29  2  0
 29  3  1  0
 28  9  1  0
 27 12  1  0
 21 15  1  0
  1 30  1  0
  1 31  1  0
  1 32  1  0
  4 33  1  0
  5 34  1  0
  6 35  1  0
  8 36  1  0
 11 37  1  0
 13 38  1  0
 18 39  1  0
 19 40  1  0
 20 41  1  0
 26 42  1  0
 26 43  1  0
 26 44  1  0
 29 45  1  0
M  END
$$$$
