
     RDKit          3D

 32 34  0  0  0  0  0  0  0  0999 V2000
    5.6234    0.7418   -1.5627 C   0  0  0  0  0  0  0  0  0  0  0  0
    4.9880   -0.3586   -0.8483 N   0  0  0  0  0  0  0  0  0  0  0  0
    3.5981   -0.3307   -0.4959 C   0  0  0  0  0  0  0  0  0  0  0  0
    3.0252   -1.4098    0.1876 C   0  0  0  0  0  0  0  0  0  0  0  0
    1.6699   -1.3696    0.5239 C   0  0  0  0  0  0  0  0  0  0  0  0
    1.1011   -2.4186    1.1716 N   0  0  0  0  0  0  0  0  0  0  0  0
   -0.2142   -2.4040    1.5028 C   0  0  0  0  0  0  0  0  0  0  0  0
   -0.9828   -1.3285    1.1953 N   0  0  0  0  0  0  0  0  0  0  0  0
   -0.4734   -0.2469    0.5438 C   0  0  0  0  0  0  0  0  0  0  0  0
   -1.3213    0.8869    0.2897 N   0  0  0  0  0  0  0  0  0  0  0  0
   -2.7385    0.7809    0.0680 C   0  0  0  0  0  0  0  0  0  0  0  0
   -3.5732    1.8587    0.4037 C   0  0  0  0  0  0  0  0  0  0  0  0
   -4.9510    1.7837    0.1787 C   0  0  0  0  0  0  0  0  0  0  0  0
   -5.5059    0.6374   -0.3953 C   0  0  0  0  0  0  0  0  0  0  0  0
   -4.6824   -0.4345   -0.7526 C   0  0  0  0  0  0  0  0  0  0  0  0
   -5.4390   -1.9925   -1.5575 Br  0  0  0  0  0  0  0  0  0  0  0  0
   -3.3029   -0.3626   -0.5285 C   0  0  0  0  0  0  0  0  0  0  0  0
    0.8915   -0.2433    0.1850 C   0  0  0  0  0  0  0  0  0  0  0  0
    1.5055    0.8107   -0.5143 C   0  0  0  0  0  0  0  0  0  0  0  0
    2.8260    0.7405   -0.8299 N   0  0  0  0  0  0  0  0  0  0  0  0
    5.1293    0.8875   -2.5463 H   0  0  0  0  0  0  0  0  0  0  0  0
    6.6969    0.5127   -1.7310 H   0  0  0  0  0  0  0  0  0  0  0  0
    5.5450    1.6741   -0.9649 H   0  0  0  0  0  0  0  0  0  0  0  0
    5.5700   -1.1874   -0.5891 H   0  0  0  0  0  0  0  0  0  0  0  0
    3.6259   -2.2721    0.4511 H   0  0  0  0  0  0  0  0  0  0  0  0
   -0.6500   -3.2483    2.0188 H   0  0  0  0  0  0  0  0  0  0  0  0
   -0.9159    1.8435    0.3975 H   0  0  0  0  0  0  0  0  0  0  0  0
   -3.1562    2.7536    0.8482 H   0  0  0  0  0  0  0  0  0  0  0  0
   -5.5886    2.6158    0.4482 H   0  0  0  0  0  0  0  0  0  0  0  0
   -6.5732    0.5856   -0.5683 H   0  0  0  0  0  0  0  0  0  0  0  0
   -2.6758   -1.1884   -0.8375 H   0  0  0  0  0  0  0  0  0  0  0  0
    0.9487    1.6822   -0.8269 H   0  0  0  0  0  0  0  0  0  0  0  0
  1  2  1  0
  2  3  1  0
  3  4  2  0
  4  5  1  0
  5  6  2  0
  6  7  1  0
  7  8  2  0
  8  9  1  0
  9 10  1  0
 10 11  1  0
 11 12  2  0
 12 13  1  0
 13 14  2  0
 14 15  1  0
 15 16  1  0
 15 17  2  0
  9 18  2  0
 18 19  1  0
 19 20  2  0
 20  3  1  0
 18  5  1  0
 17 11  1  0
  1 21  1  0
  1 22  1  0
  1 23  1  0
  2 24  1  0
  4 25  1  0
  7 26  1  0
 10 27  1  0
 12 28  1  0
 13 29  1  0
 14 30  1  0
 17 31  1  0
 19 32  1  0
M  END
$$$$
