
     RDKit          3D

 38 41  0  0  0  0  0  0  0  0999 V2000
    6.2690   -1.1692   -1.4221 O   0  0  0  0  0  0  0  0  0  0  0  0
    5.7151   -0.5159   -0.4981 C   0  0  0  0  0  0  0  0  0  0  0  0
    5.6351   -1.0529    0.7827 O   0  0  0  0  0  0  0  0  0  0  0  0
    5.1012    0.8156   -0.7883 C   0  0  0  0  0  0  0  0  0  0  0  0
    3.7584    0.6379   -1.3397 N   0  0  0  0  0  0  0  0  0  0  0  0
    3.4385    0.6070   -2.6556 C   0  0  0  0  0  0  0  0  0  0  0  0
    2.0805    0.3604   -2.8220 C   0  0  0  0  0  0  0  0  0  0  0  0
    1.5751    0.2263   -1.5461 C   0  0  0  0  0  0  0  0  0  0  0  0
    0.2768   -0.0394   -1.1185 C   0  0  0  0  0  0  0  0  0  0  0  0
    0.0432   -0.1440    0.2741 C   0  0  0  0  0  0  0  0  0  0  0  0
   -1.2333   -0.4058    0.8158 C   0  0  0  0  0  0  0  0  0  0  0  0
   -2.3681   -0.6690   -0.0279 N   0  0  0  0  0  0  0  0  0  0  0  0
   -3.7209   -0.3536    0.3450 C   0  0  0  0  0  0  0  0  0  0  0  0
   -4.7785   -1.1081   -0.1872 C   0  0  0  0  0  0  0  0  0  0  0  0
   -6.1019   -0.8061    0.1473 C   0  0  0  0  0  0  0  0  0  0  0  0
   -6.3819    0.2598    1.0057 C   0  0  0  0  0  0  0  0  0  0  0  0
   -5.3385    1.0311    1.5262 C   0  0  0  0  0  0  0  0  0  0  0  0
   -5.7234    2.5017    2.6825 Br  0  0  0  0  0  0  0  0  0  0  0  0
   -4.0127    0.7313    1.1935 C   0  0  0  0  0  0  0  0  0  0  0  0
   -1.3815   -0.4644    2.1678 N   0  0  0  0  0  0  0  0  0  0  0  0
   -0.3374   -0.2735    3.0130 C   0  0  0  0  0  0  0  0  0  0  0  0
    0.9021   -0.0264    2.5223 N   0  0  0  0  0  0  0  0  0  0  0  0
    1.1253    0.0437    1.1855 C   0  0  0  0  0  0  0  0  0  0  0  0
    2.4235    0.3088    0.7117 C   0  0  0  0  0  0  0  0  0  0  0  0
    2.6139    0.3947   -0.6685 C   0  0  0  0  0  0  0  0  0  0  0  0
    6.0304   -1.9621    0.9904 H   0  0  0  0  0  0  0  0  0  0  0  0
    5.7388    1.3688   -1.5120 H   0  0  0  0  0  0  0  0  0  0  0  0
    5.0549    1.4222    0.1410 H   0  0  0  0  0  0  0  0  0  0  0  0
    4.1507    0.7474   -3.4586 H   0  0  0  0  0  0  0  0  0  0  0  0
    1.5399    0.2786   -3.7557 H   0  0  0  0  0  0  0  0  0  0  0  0
   -0.5124   -0.1454   -1.8501 H   0  0  0  0  0  0  0  0  0  0  0  0
   -2.2208   -1.2314   -0.8958 H   0  0  0  0  0  0  0  0  0  0  0  0
   -4.5758   -1.9362   -0.8547 H   0  0  0  0  0  0  0  0  0  0  0  0
   -6.9110   -1.3980   -0.2608 H   0  0  0  0  0  0  0  0  0  0  0  0
   -7.4086    0.4897    1.2601 H   0  0  0  0  0  0  0  0  0  0  0  0
   -3.2186    1.3557    1.5813 H   0  0  0  0  0  0  0  0  0  0  0  0
   -0.4933   -0.3255    4.0817 H   0  0  0  0  0  0  0  0  0  0  0  0
    3.2460    0.4463    1.4016 H   0  0  0  0  0  0  0  0  0  0  0  0
  1  2  2  0
  2  3  1  0
  2  4  1  0
  4  5  1  0
  5  6  1  0
  6  7  2  0
  7  8  1  0
  8  9  2  0
  9 10  1  0
 10 11  2  0
 11 12  1  0
 12 13  1  0
 13 14  2  0
 14 15  1  0
 15 16  2  0
 16 17  1  0
 17 18  1  0
 17 19  2  0
 11 20  1  0
 20 21  2  0
 21 22  1  0
 22 23  2  0
 23 24  1  0
 24 25  2  0
 25  5  1  0
 25  8  1  0
 23 10  1  0
 19 13  1  0
  3 26  1  0
  4 27  1  0
  4 28  1  0
  6 29  1  0
  7 30  1  0
  9 31  1  0
 12 32  1  0
 14 33  1  0
 15 34  1  0
 16 35  1  0
 19 36  1  0
 21 37  1  0
 24 38  1  0
M  END
$$$$
