
     RDKit          3D

 23 23  0  0  0  0  0  0  0  0999 V2000
   -0.0606   -1.9878   -2.4814 N   0  0  0  0  0  0  0  0  0  0  0  0
    0.6518   -1.1912   -2.0371 C   0  0  0  0  0  0  0  0  0  0  0  0
    1.5446   -0.1972   -1.4821 C   0  0  0  0  0  0  0  0  0  0  0  0
    1.2091    0.4758   -0.3595 C   0  0  0  0  0  0  0  0  0  0  0  0
   -0.0780    0.3309    0.3601 C   0  0  0  0  0  0  0  0  0  0  0  0
   -1.3103    0.3886   -0.3143 C   0  0  0  0  0  0  0  0  0  0  0  0
   -2.5089    0.2848    0.3966 C   0  0  0  0  0  0  0  0  0  0  0  0
   -2.4928    0.1423    1.7903 C   0  0  0  0  0  0  0  0  0  0  0  0
   -3.6858    0.0363    2.5029 O   0  0  0  0  0  0  0  0  0  0  0  0
   -1.2702    0.1124    2.4730 C   0  0  0  0  0  0  0  0  0  0  0  0
   -1.2572   -0.0190    3.8605 O   0  0  0  0  0  0  0  0  0  0  0  0
   -0.0679    0.2166    1.7585 C   0  0  0  0  0  0  0  0  0  0  0  0
    2.8606    0.0084   -2.1524 C   0  0  0  0  0  0  0  0  0  0  0  0
    3.0507   -0.4002   -3.5116 N   0  0  0  0  0  0  0  0  0  0  0  0
    4.1438    0.6491   -1.3490 S   0  0  0  0  0  0  0  0  0  0  0  0
    1.9238    1.1495    0.0949 H   0  0  0  0  0  0  0  0  0  0  0  0
   -1.3476    0.5348   -1.3863 H   0  0  0  0  0  0  0  0  0  0  0  0
   -3.4506    0.3250   -0.1360 H   0  0  0  0  0  0  0  0  0  0  0  0
   -4.5853    0.0566    2.0366 H   0  0  0  0  0  0  0  0  0  0  0  0
   -0.3891   -0.0433    4.3827 H   0  0  0  0  0  0  0  0  0  0  0  0
    0.8746    0.1973    2.2927 H   0  0  0  0  0  0  0  0  0  0  0  0
    3.9837   -0.2991   -3.9700 H   0  0  0  0  0  0  0  0  0  0  0  0
    2.2620   -0.7706   -4.0862 H   0  0  0  0  0  0  0  0  0  0  0  0
  1  2  3  0
  2  3  1  0
  3  4  2  0
  4  5  1  0
  5  6  2  0
  6  7  1  0
  7  8  2  0
  8  9  1  0
  8 10  1  0
 10 11  1  0
 10 12  2  0
  3 13  1  0
 13 14  1  0
 13 15  2  0
 12  5  1  0
  4 16  1  0
  6 17  1  0
  7 18  1  0
  9 19  1  0
 11 20  1  0
 12 21  1  0
 14 22  1  0
 14 23  1  0
M  END
$$$$
