
     RDKit          3D

 54 57  0  0  0  0  0  0  0  0999 V2000
    8.0153    2.0252   -0.9156 C   0  0  0  0  0  0  0  0  0  0  0  0
    7.4328    0.8393   -0.2052 C   0  0  0  0  0  0  0  0  0  0  0  0
    8.2762   -0.1097    0.3909 C   0  0  0  0  0  0  0  0  0  0  0  0
    7.7363   -1.2401    1.0083 C   0  0  0  0  0  0  0  0  0  0  0  0
    6.3531   -1.4341    1.0316 C   0  0  0  0  0  0  0  0  0  0  0  0
    5.4938   -0.4944    0.4426 C   0  0  0  0  0  0  0  0  0  0  0  0
    4.0747   -0.7287    0.4538 N   0  0  0  0  0  0  0  0  0  0  0  0
    3.0984    0.3275    0.4373 C   0  0  0  0  0  0  0  0  0  0  0  0
    3.3967    1.5209    1.0209 N   0  0  0  0  0  0  0  0  0  0  0  0
    2.4949    2.5335    1.0760 C   0  0  0  0  0  0  0  0  0  0  0  0
    1.2546    2.3704    0.5520 N   0  0  0  0  0  0  0  0  0  0  0  0
    0.8942    1.2031   -0.0409 C   0  0  0  0  0  0  0  0  0  0  0  0
   -0.3874    1.0619   -0.5787 C   0  0  0  0  0  0  0  0  0  0  0  0
   -0.7464   -0.1438   -1.2058 C   0  0  0  0  0  0  0  0  0  0  0  0
   -2.0505   -0.3453   -1.7752 N   0  0  0  0  0  0  0  0  0  0  0  0
   -3.1267    0.6460   -1.6946 C   0  0  0  0  0  0  0  0  0  0  0  0
   -4.4376    0.1157   -2.2968 C   0  0  0  0  0  0  0  0  0  0  0  0
   -5.0495   -1.0431   -1.4899 C   0  0  0  0  0  0  0  0  0  0  0  0
   -5.2561   -0.6692   -0.0735 N   0  0  0  0  0  0  0  0  0  0  0  0
   -5.2577   -1.8699    0.7866 C   0  0  0  0  0  0  0  0  0  0  0  0
   -5.7135   -1.5266    2.2189 C   0  0  0  0  0  0  0  0  0  0  0  0
   -5.7052   -0.1294    2.4299 O   0  0  0  0  0  0  0  0  0  0  0  0
   -6.6718    0.4855    1.5964 C   0  0  0  0  0  0  0  0  0  0  0  0
   -6.5116    0.0823    0.1145 C   0  0  0  0  0  0  0  0  0  0  0  0
    0.1677   -1.1490   -1.2865 N   0  0  0  0  0  0  0  0  0  0  0  0
    1.4206   -1.0420   -0.7707 C   0  0  0  0  0  0  0  0  0  0  0  0
    1.8154    0.1388   -0.1196 C   0  0  0  0  0  0  0  0  0  0  0  0
    6.0442    0.6321   -0.1970 C   0  0  0  0  0  0  0  0  0  0  0  0
    8.9676    2.3392   -0.4375 H   0  0  0  0  0  0  0  0  0  0  0  0
    8.2119    1.7608   -1.9756 H   0  0  0  0  0  0  0  0  0  0  0  0
    7.3142    2.8862   -0.8808 H   0  0  0  0  0  0  0  0  0  0  0  0
    9.3509    0.0225    0.3723 H   0  0  0  0  0  0  0  0  0  0  0  0
    8.3916   -1.9698    1.4662 H   0  0  0  0  0  0  0  0  0  0  0  0
    5.9493   -2.3159    1.5129 H   0  0  0  0  0  0  0  0  0  0  0  0
    3.7443   -1.7070    0.6121 H   0  0  0  0  0  0  0  0  0  0  0  0
    2.7637    3.4701    1.5445 H   0  0  0  0  0  0  0  0  0  0  0  0
   -1.0831    1.8878   -0.5102 H   0  0  0  0  0  0  0  0  0  0  0  0
   -2.2204   -1.2488   -2.2727 H   0  0  0  0  0  0  0  0  0  0  0  0
   -2.8219    1.5539   -2.2582 H   0  0  0  0  0  0  0  0  0  0  0  0
   -3.2928    0.9372   -0.6352 H   0  0  0  0  0  0  0  0  0  0  0  0
   -4.2498   -0.2273   -3.3375 H   0  0  0  0  0  0  0  0  0  0  0  0
   -5.1657    0.9509   -2.3623 H   0  0  0  0  0  0  0  0  0  0  0  0
   -4.3606   -1.9135   -1.5683 H   0  0  0  0  0  0  0  0  0  0  0  0
   -6.0065   -1.3573   -1.9646 H   0  0  0  0  0  0  0  0  0  0  0  0
   -5.9283   -2.6557    0.3690 H   0  0  0  0  0  0  0  0  0  0  0  0
   -4.2257   -2.2833    0.8278 H   0  0  0  0  0  0  0  0  0  0  0  0
   -5.0223   -1.9991    2.9486 H   0  0  0  0  0  0  0  0  0  0  0  0
   -6.7261   -1.9478    2.4175 H   0  0  0  0  0  0  0  0  0  0  0  0
   -6.5491    1.5859    1.6867 H   0  0  0  0  0  0  0  0  0  0  0  0
   -7.6978    0.2457    1.9555 H   0  0  0  0  0  0  0  0  0  0  0  0
   -6.5097    1.0028   -0.5067 H   0  0  0  0  0  0  0  0  0  0  0  0
   -7.3850   -0.5370   -0.1939 H   0  0  0  0  0  0  0  0  0  0  0  0
    2.0974   -1.8757   -0.8895 H   0  0  0  0  0  0  0  0  0  0  0  0
    5.3989    1.3384   -0.7039 H   0  0  0  0  0  0  0  0  0  0  0  0
  1  2  1  0
  2  3  2  0
  3  4  1  0
  4  5  2  0
  5  6  1  0
  6  7  1  0
  7  8  1  0
  8  9  2  0
  9 10  1  0
 10 11  2  0
 11 12  1  0
 12 13  2  0
 13 14  1  0
 14 15  1  0
 15 16  1  0
 16 17  1  0
 17 18  1  0
 18 19  1  0
 19 20  1  0
 20 21  1  0
 21 22  1  0
 22 23  1  0
 23 24  1  0
 14 25  2  0
 25 26  1  0
 26 27  2  0
  6 28  2  0
 28  2  1  0
 27  8  1  0
 27 12  1  0
 24 19  1  0
  1 29  1  0
  1 30  1  0
  1 31  1  0
  3 32  1  0
  4 33  1  0
  5 34  1  0
  7 35  1  0
 10 36  1  0
 13 37  1  0
 15 38  1  0
 16 39  1  0
 16 40  1  0
 17 41  1  0
 17 42  1  0
 18 43  1  0
 18 44  1  0
 20 45  1  0
 20 46  1  0
 21 47  1  0
 21 48  1  0
 23 49  1  0
 23 50  1  0
 24 51  1  0
 24 52  1  0
 26 53  1  0
 28 54  1  0
M  END
$$$$
