
     RDKit          3D

 50 53  0  0  0  0  0  0  0  0999 V2000
   -5.6726   -2.8515   -1.2998 C   0  0  0  0  0  0  0  0  0  0  0  0
   -5.2099   -2.1296   -0.1655 O   0  0  0  0  0  0  0  0  0  0  0  0
   -3.8986   -2.2393    0.3124 C   0  0  0  0  0  0  0  0  0  0  0  0
   -3.0564   -2.9630   -0.2857 O   0  0  0  0  0  0  0  0  0  0  0  0
   -3.4911   -1.4669    1.5234 C   0  0  0  0  0  0  0  0  0  0  0  0
   -2.7926   -0.1983    1.1275 C   0  0  0  0  0  0  0  0  0  0  0  0
   -1.4229    0.0645    1.1576 C   0  0  0  0  0  0  0  0  0  0  0  0
   -0.1459   -1.0487    1.7380 S   0  0  0  0  0  0  0  0  0  0  0  0
    0.0885   -1.9582   -0.1770 S   0  0  0  0  0  0  0  0  0  0  0  0
    1.3612   -0.8031   -0.6758 C   0  0  0  0  0  0  0  0  0  0  0  0
    1.1013    0.3174   -1.3866 N   0  0  0  0  0  0  0  0  0  0  0  0
    2.2905    0.9146   -1.5714 C   0  0  0  0  0  0  0  0  0  0  0  0
    2.5335    2.1239   -2.2199 C   0  0  0  0  0  0  0  0  0  0  0  0
    3.8632    2.5793   -2.2871 C   0  0  0  0  0  0  0  0  0  0  0  0
    4.9087    1.8223   -1.7120 C   0  0  0  0  0  0  0  0  0  0  0  0
    4.6316    0.6125   -1.0535 C   0  0  0  0  0  0  0  0  0  0  0  0
    3.3040    0.1865   -1.0003 C   0  0  0  0  0  0  0  0  0  0  0  0
    2.7270   -0.9271   -0.4241 C   0  0  0  0  0  0  0  0  0  0  0  0
    3.4261   -2.0257    0.3249 C   0  0  0  0  0  0  0  0  0  0  0  0
    3.9629   -1.5278    1.6287 C   0  0  0  0  0  0  0  0  0  0  0  0
    3.1820   -1.0097    2.4748 O   0  0  0  0  0  0  0  0  0  0  0  0
    5.3239   -1.6779    1.9104 O   0  0  0  0  0  0  0  0  0  0  0  0
    5.8937   -1.3095    3.1605 C   0  0  0  0  0  0  0  0  0  0  0  0
   -1.1622    1.3139    0.7085 N   0  0  0  0  0  0  0  0  0  0  0  0
   -2.3538    1.8371    0.3736 C   0  0  0  0  0  0  0  0  0  0  0  0
   -2.5978    3.1007   -0.1627 C   0  0  0  0  0  0  0  0  0  0  0  0
   -3.9304    3.4470   -0.4545 C   0  0  0  0  0  0  0  0  0  0  0  0
   -4.9774    2.5300   -0.2070 C   0  0  0  0  0  0  0  0  0  0  0  0
   -4.7019    1.2605    0.3361 C   0  0  0  0  0  0  0  0  0  0  0  0
   -3.3706    0.9478    0.6144 C   0  0  0  0  0  0  0  0  0  0  0  0
   -5.0952   -2.5520   -2.2020 H   0  0  0  0  0  0  0  0  0  0  0  0
   -6.7441   -2.6240   -1.4640 H   0  0  0  0  0  0  0  0  0  0  0  0
   -5.5584   -3.9430   -1.1283 H   0  0  0  0  0  0  0  0  0  0  0  0
   -4.3905   -1.2183    2.1273 H   0  0  0  0  0  0  0  0  0  0  0  0
   -2.8286   -2.0934    2.1561 H   0  0  0  0  0  0  0  0  0  0  0  0
    0.1669    0.6527   -1.7150 H   0  0  0  0  0  0  0  0  0  0  0  0
    1.7233    2.6999   -2.6544 H   0  0  0  0  0  0  0  0  0  0  0  0
    4.0858    3.5181   -2.7785 H   0  0  0  0  0  0  0  0  0  0  0  0
    5.9271    2.1849   -1.7667 H   0  0  0  0  0  0  0  0  0  0  0  0
    5.4233    0.0372   -0.5965 H   0  0  0  0  0  0  0  0  0  0  0  0
    2.7332   -2.8711    0.5203 H   0  0  0  0  0  0  0  0  0  0  0  0
    4.2597   -2.4111   -0.3005 H   0  0  0  0  0  0  0  0  0  0  0  0
    5.7969   -0.2128    3.3143 H   0  0  0  0  0  0  0  0  0  0  0  0
    6.9715   -1.5816    3.1660 H   0  0  0  0  0  0  0  0  0  0  0  0
    5.3825   -1.8515    3.9854 H   0  0  0  0  0  0  0  0  0  0  0  0
   -0.2268    1.7749    0.6385 H   0  0  0  0  0  0  0  0  0  0  0  0
   -1.7879    3.7929   -0.3556 H   0  0  0  0  0  0  0  0  0  0  0  0
   -4.1555    4.4179   -0.8766 H   0  0  0  0  0  0  0  0  0  0  0  0
   -5.9987    2.8029   -0.4389 H   0  0  0  0  0  0  0  0  0  0  0  0
   -5.4989    0.5559    0.5262 H   0  0  0  0  0  0  0  0  0  0  0  0
  1  2  1  0
  2  3  1  0
  3  4  2  0
  3  5  1  0
  5  6  1  0
  6  7  2  0
  7  8  1  0
  8  9  1  0
  9 10  1  0
 10 11  1  0
 11 12  1  0
 12 13  2  0
 13 14  1  0
 14 15  2  0
 15 16  1  0
 16 17  2  0
 17 18  1  0
 18 19  1  0
 19 20  1  0
 20 21  2  0
 20 22  1  0
 22 23  1  0
  7 24  1  0
 24 25  1  0
 25 26  2  0
 26 27  1  0
 27 28  2  0
 28 29  1  0
 29 30  2  0
 30  6  1  0
 18 10  2  0
 30 25  1  0
 17 12  1  0
  1 31  1  0
  1 32  1  0
  1 33  1  0
  5 34  1  0
  5 35  1  0
 11 36  1  0
 13 37  1  0
 14 38  1  0
 15 39  1  0
 16 40  1  0
 19 41  1  0
 19 42  1  0
 23 43  1  0
 23 44  1  0
 23 45  1  0
 24 46  1  0
 26 47  1  0
 27 48  1  0
 28 49  1  0
 29 50  1  0
M  END
$$$$
