
     RDKit          3D

 70 75  0  0  0  0  0  0  0  0999 V2000
   -0.1678    0.0822    2.7068 C   0  0  0  0  0  0  0  0  0  0  0  0
    0.6965   -0.3027    1.5904 N   0  0  0  0  0  0  0  0  0  0  0  0
    1.2655    0.5166    0.6677 C   0  0  0  0  0  0  0  0  0  0  0  0
    1.1378    2.3048    0.7072 S   0  0  0  0  0  0  0  0  0  0  0  0
   -0.1582    2.4697   -0.9764 S   0  0  0  0  0  0  0  0  0  0  0  0
   -1.6276    2.6980    0.0374 C   0  0  0  0  0  0  0  0  0  0  0  0
   -2.6713    1.7814    0.1663 C   0  0  0  0  0  0  0  0  0  0  0  0
   -2.9148    0.5847   -0.6470 C   0  0  0  0  0  0  0  0  0  0  0  0
   -3.6770    0.6569   -1.6440 O   0  0  0  0  0  0  0  0  0  0  0  0
   -2.2559   -0.6465   -0.3334 N   0  0  0  0  0  0  0  0  0  0  0  0
   -2.7119   -1.9334   -0.7827 C   0  0  0  0  0  0  0  0  0  0  0  0
   -1.7796   -2.9473   -1.0589 C   0  0  0  0  0  0  0  0  0  0  0  0
   -2.2135   -4.2124   -1.4644 C   0  0  0  0  0  0  0  0  0  0  0  0
   -3.5788   -4.4854   -1.5713 C   0  0  0  0  0  0  0  0  0  0  0  0
   -4.5126   -3.4876   -1.2893 C   0  0  0  0  0  0  0  0  0  0  0  0
   -4.0858   -2.2147   -0.8922 C   0  0  0  0  0  0  0  0  0  0  0  0
   -3.5484    2.3381    1.0738 C   0  0  0  0  0  0  0  0  0  0  0  0
   -4.7327    1.8455    1.6119 C   0  0  0  0  0  0  0  0  0  0  0  0
   -5.4113    2.6356    2.5695 C   0  0  0  0  0  0  0  0  0  0  0  0
   -6.6214    2.1576    3.1876 N   0  0  0  0  0  4  0  0  0  0  0  0
   -7.0893    1.0398    2.8906 O   0  0  0  0  0  0  0  0  0  0  0  0
   -7.2572    2.9170    4.1496 O   0  0  0  0  0  1  0  0  0  0  0  0
   -4.8814    3.9013    2.9352 C   0  0  0  0  0  0  0  0  0  0  0  0
   -3.6873    4.3716    2.3664 C   0  0  0  0  0  0  0  0  0  0  0  0
   -3.0381    3.5582    1.4369 C   0  0  0  0  0  0  0  0  0  0  0  0
   -1.8745    3.7997    0.7953 N   0  0  0  0  0  0  0  0  0  0  0  0
   -1.0247    4.9797    0.9640 C   0  0  0  0  0  0  0  0  0  0  0  0
    2.1474   -0.1998   -0.1383 C   0  0  0  0  0  0  0  0  0  0  0  0
    3.0007    0.3275   -1.2099 C   0  0  0  0  0  0  0  0  0  0  0  0
    2.4674    0.9591   -2.1710 O   0  0  0  0  0  0  0  0  0  0  0  0
    4.4230    0.1475   -1.1518 N   0  0  0  0  0  0  0  0  0  0  0  0
    5.2951    0.4555   -2.2508 C   0  0  0  0  0  0  0  0  0  0  0  0
    6.5335    1.0723   -2.0040 C   0  0  0  0  0  0  0  0  0  0  0  0
    7.3942    1.3808   -3.0606 C   0  0  0  0  0  0  0  0  0  0  0  0
    7.0345    1.0537   -4.3695 C   0  0  0  0  0  0  0  0  0  0  0  0
    5.8188    0.4137   -4.6222 C   0  0  0  0  0  0  0  0  0  0  0  0
    4.9485    0.1103   -3.5704 C   0  0  0  0  0  0  0  0  0  0  0  0
    2.1020   -1.4976    0.3199 C   0  0  0  0  0  0  0  0  0  0  0  0
    2.8205   -2.6262   -0.0737 C   0  0  0  0  0  0  0  0  0  0  0  0
    2.6055   -3.8383    0.6230 C   0  0  0  0  0  0  0  0  0  0  0  0
    3.3458   -5.0230    0.2729 N   0  0  0  0  0  4  0  0  0  0  0  0
    4.1275   -5.0237   -0.7010 O   0  0  0  0  0  0  0  0  0  0  0  0
    3.2063   -6.1768    1.0121 O   0  0  0  0  0  1  0  0  0  0  0  0
    1.6666   -3.8692    1.6859 C   0  0  0  0  0  0  0  0  0  0  0  0
    0.9546   -2.7145    2.0528 C   0  0  0  0  0  0  0  0  0  0  0  0
    1.2066   -1.5317    1.3567 C   0  0  0  0  0  0  0  0  0  0  0  0
   -0.6338    1.0762    2.5257 H   0  0  0  0  0  0  0  0  0  0  0  0
    0.4288    0.1216    3.6475 H   0  0  0  0  0  0  0  0  0  0  0  0
   -0.9899   -0.6584    2.8141 H   0  0  0  0  0  0  0  0  0  0  0  0
   -1.3417   -0.6042    0.1688 H   0  0  0  0  0  0  0  0  0  0  0  0
   -0.7159   -2.7519   -0.9628 H   0  0  0  0  0  0  0  0  0  0  0  0
   -1.4880   -4.9829   -1.6810 H   0  0  0  0  0  0  0  0  0  0  0  0
   -3.9172   -5.4713   -1.8645 H   0  0  0  0  0  0  0  0  0  0  0  0
   -5.5708   -3.7015   -1.3620 H   0  0  0  0  0  0  0  0  0  0  0  0
   -4.8235   -1.4602   -0.6532 H   0  0  0  0  0  0  0  0  0  0  0  0
   -5.0976    0.8681    1.3195 H   0  0  0  0  0  0  0  0  0  0  0  0
   -5.3883    4.5236    3.6616 H   0  0  0  0  0  0  0  0  0  0  0  0
   -3.2894    5.3362    2.6585 H   0  0  0  0  0  0  0  0  0  0  0  0
   -0.2660    5.0445    0.1529 H   0  0  0  0  0  0  0  0  0  0  0  0
   -0.5085    4.9352    1.9505 H   0  0  0  0  0  0  0  0  0  0  0  0
   -1.6464    5.9025    0.9124 H   0  0  0  0  0  0  0  0  0  0  0  0
    4.8482   -0.1212   -0.2400 H   0  0  0  0  0  0  0  0  0  0  0  0
    6.8218    1.3307   -0.9920 H   0  0  0  0  0  0  0  0  0  0  0  0
    8.3432    1.8696   -2.8690 H   0  0  0  0  0  0  0  0  0  0  0  0
    7.7048    1.2877   -5.1878 H   0  0  0  0  0  0  0  0  0  0  0  0
    5.5513    0.1395   -5.6351 H   0  0  0  0  0  0  0  0  0  0  0  0
    4.0233   -0.4087   -3.7873 H   0  0  0  0  0  0  0  0  0  0  0  0
    3.5300   -2.5727   -0.8901 H   0  0  0  0  0  0  0  0  0  0  0  0
    1.4842   -4.7863    2.2340 H   0  0  0  0  0  0  0  0  0  0  0  0
    0.2641   -2.7444    2.8820 H   0  0  0  0  0  0  0  0  0  0  0  0
  1  2  1  0
  2  3  1  0
  3  4  1  0
  4  5  1  0
  5  6  1  0
  6  7  2  0
  7  8  1  0
  8  9  2  0
  8 10  1  0
 10 11  1  0
 11 12  2  0
 12 13  1  0
 13 14  2  0
 14 15  1  0
 15 16  2  0
  7 17  1  0
 17 18  2  0
 18 19  1  0
 19 20  1  0
 20 21  2  0
 20 22  1  0
 19 23  2  0
 23 24  1  0
 24 25  2  0
 25 26  1  0
 26 27  1  0
  3 28  2  0
 28 29  1  0
 29 30  2  0
 29 31  1  0
 31 32  1  0
 32 33  2  0
 33 34  1  0
 34 35  2  0
 35 36  1  0
 36 37  2  0
 28 38  1  0
 38 39  2  0
 39 40  1  0
 40 41  1  0
 41 42  2  0
 41 43  1  0
 40 44  2  0
 44 45  1  0
 45 46  2  0
 46  2  1  0
 26  6  1  0
 37 32  1  0
 46 38  1  0
 16 11  1  0
 25 17  1  0
  1 47  1  0
  1 48  1  0
  1 49  1  0
 10 50  1  0
 12 51  1  0
 13 52  1  0
 14 53  1  0
 15 54  1  0
 16 55  1  0
 18 56  1  0
 23 57  1  0
 24 58  1  0
 27 59  1  0
 27 60  1  0
 27 61  1  0
 31 62  1  0
 33 63  1  0
 34 64  1  0
 35 65  1  0
 36 66  1  0
 37 67  1  0
 39 68  1  0
 44 69  1  0
 45 70  1  0
M  CHG  4  20   1  22  -1  41   1  43  -1
M  END
$$$$
