
     RDKit          3D

 61 65  0  0  0  0  0  0  0  0999 V2000
   -0.4637   -2.5460    1.2513 C   0  0  0  0  0  0  0  0  0  0  0  0
    0.1473   -1.2075    0.9676 C   0  0  0  0  0  0  0  0  0  0  0  0
    1.4181   -0.8112    1.3379 C   0  0  0  0  0  0  0  0  0  0  0  0
    1.5560    0.4996    0.8935 C   0  0  0  0  0  0  0  0  0  0  0  0
    2.7386    1.3667    1.0629 C   0  0  0  0  0  0  0  0  0  0  0  0
    2.5479    2.6122    1.1474 O   0  0  0  0  0  0  0  0  0  0  0  0
    4.0885    0.8434    1.0916 N   0  0  0  0  0  0  0  0  0  0  0  0
    5.2005    1.6821    1.5595 C   0  0  0  0  0  0  0  0  0  0  0  0
    6.1637    1.9853    0.3827 C   0  0  0  0  0  0  0  0  0  0  0  0
    7.5778    2.2799    0.9109 C   0  0  0  0  0  0  0  0  0  0  0  0
    6.1753    0.9076   -0.6431 N   0  0  0  0  0  0  0  0  0  0  0  0
    5.8779   -0.4246   -0.0799 C   0  0  0  0  0  0  0  0  0  0  0  0
    6.0885   -1.5190   -1.1406 C   0  0  0  0  0  0  0  0  0  0  0  0
    4.4244   -0.4354    0.4361 C   0  0  0  0  0  0  0  0  0  0  0  0
    0.4171    0.9177    0.3007 N   0  0  0  0  0  0  0  0  0  0  0  0
   -0.4346   -0.1242    0.3181 C   0  0  0  0  0  0  0  0  0  0  0  0
   -1.8014   -0.0560   -0.2183 C   0  0  0  0  0  0  0  0  0  0  0  0
   -2.1878   -0.7417   -1.3088 C   0  0  0  0  0  0  0  0  0  0  0  0
   -1.3788   -1.6449   -2.1522 C   0  0  0  0  0  0  0  0  0  0  0  0
   -0.1433   -1.8534   -2.0353 O   0  0  0  0  0  0  0  0  0  0  0  0
   -2.1770   -2.2577   -3.1600 N   0  0  0  0  0  0  0  0  0  0  0  0
   -3.4772   -1.7220   -2.9527 C   0  0  0  0  0  0  0  0  0  0  0  0
   -4.5766   -2.0568   -3.6689 N   0  0  0  0  0  0  0  0  0  0  0  0
   -5.7720   -1.4805   -3.3505 C   0  0  0  0  0  0  0  0  0  0  0  0
   -5.8550   -0.5705   -2.3317 N   0  0  0  0  0  0  0  0  0  0  0  0
   -4.7622   -0.2190   -1.5930 C   0  0  0  0  0  0  0  0  0  0  0  0
   -4.8779    0.7989   -0.5895 N   0  0  0  0  0  0  0  0  0  0  0  0
   -5.9458    0.8439    0.3755 C   0  0  0  0  0  0  0  0  0  0  0  0
   -6.7140   -0.2996    0.6763 C   0  0  0  0  0  0  0  0  0  0  0  0
   -7.7176   -0.2397    1.6447 C   0  0  0  0  0  0  0  0  0  0  0  0
   -7.9630    0.9550    2.3286 C   0  0  0  0  0  0  0  0  0  0  0  0
   -8.9333    0.9972    3.2719 F   0  0  0  0  0  0  0  0  0  0  0  0
   -7.1980    2.0942    2.0472 C   0  0  0  0  0  0  0  0  0  0  0  0
   -7.4870    3.5944    2.9125 Cl  0  0  0  0  0  0  0  0  0  0  0  0
   -6.1902    2.0365    1.0778 C   0  0  0  0  0  0  0  0  0  0  0  0
   -3.5333   -0.8179   -1.9081 C   0  0  0  0  0  0  0  0  0  0  0  0
   -0.3526   -2.7843    2.3326 H   0  0  0  0  0  0  0  0  0  0  0  0
    0.0523   -3.3255    0.6496 H   0  0  0  0  0  0  0  0  0  0  0  0
   -1.5442   -2.5478    0.9966 H   0  0  0  0  0  0  0  0  0  0  0  0
    2.1317   -1.3986    1.9072 H   0  0  0  0  0  0  0  0  0  0  0  0
    5.7353    1.1237    2.3657 H   0  0  0  0  0  0  0  0  0  0  0  0
    4.8476    2.6357    2.0154 H   0  0  0  0  0  0  0  0  0  0  0  0
    5.7954    2.9118   -0.1183 H   0  0  0  0  0  0  0  0  0  0  0  0
    8.0133    1.3748    1.3998 H   0  0  0  0  0  0  0  0  0  0  0  0
    8.2399    2.5892    0.0707 H   0  0  0  0  0  0  0  0  0  0  0  0
    7.5469    3.1122    1.6576 H   0  0  0  0  0  0  0  0  0  0  0  0
    7.0951    0.8873   -1.1404 H   0  0  0  0  0  0  0  0  0  0  0  0
    6.5679   -0.6409    0.7707 H   0  0  0  0  0  0  0  0  0  0  0  0
    5.8022   -2.5201   -0.7317 H   0  0  0  0  0  0  0  0  0  0  0  0
    5.4835   -1.3134   -2.0498 H   0  0  0  0  0  0  0  0  0  0  0  0
    7.1537   -1.5533   -1.4284 H   0  0  0  0  0  0  0  0  0  0  0  0
    3.7347   -0.5995   -0.4231 H   0  0  0  0  0  0  0  0  0  0  0  0
    4.3051   -1.2693    1.1592 H   0  0  0  0  0  0  0  0  0  0  0  0
    0.2341    1.8650   -0.1127 H   0  0  0  0  0  0  0  0  0  0  0  0
   -2.4942    0.5833    0.3068 H   0  0  0  0  0  0  0  0  0  0  0  0
   -1.8774   -2.9432   -3.8871 H   0  0  0  0  0  0  0  0  0  0  0  0
   -6.6585   -1.7362   -3.9140 H   0  0  0  0  0  0  0  0  0  0  0  0
   -4.2250    1.6119   -0.6511 H   0  0  0  0  0  0  0  0  0  0  0  0
   -6.5243   -1.2447    0.1826 H   0  0  0  0  0  0  0  0  0  0  0  0
   -8.3003   -1.1239    1.8719 H   0  0  0  0  0  0  0  0  0  0  0  0
   -5.5942    2.9191    0.8732 H   0  0  0  0  0  0  0  0  0  0  0  0
  1  2  1  0
  2  3  1  0
  3  4  2  0
  4  5  1  0
  5  6  2  0
  5  7  1  0
  7  8  1  0
  8  9  1  0
  9 10  1  0
  9 11  1  0
 11 12  1  0
 12 13  1  0
 12 14  1  0
  4 15  1  0
 15 16  1  0
 16 17  1  0
 17 18  2  0
 18 19  1  0
 19 20  2  0
 19 21  1  0
 21 22  1  0
 22 23  2  0
 23 24  1  0
 24 25  2  0
 25 26  1  0
 26 27  1  0
 27 28  1  0
 28 29  2  0
 29 30  1  0
 30 31  2  0
 31 32  1  0
 31 33  1  0
 33 34  1  0
 33 35  2  0
 26 36  2  0
 16  2  2  0
 36 18  1  0
 14  7  1  0
 36 22  1  0
 35 28  1  0
  1 37  1  0
  1 38  1  0
  1 39  1  0
  3 40  1  0
  8 41  1  0
  8 42  1  0
  9 43  1  0
 10 44  1  0
 10 45  1  0
 10 46  1  0
 11 47  1  0
 12 48  1  0
 13 49  1  0
 13 50  1  0
 13 51  1  0
 14 52  1  0
 14 53  1  0
 15 54  1  0
 17 55  1  0
 21 56  1  0
 24 57  1  0
 27 58  1  0
 29 59  1  0
 30 60  1  0
 35 61  1  0
M  END
$$$$
