
     RDKit          3D

 73 81  0  0  0  0  0  0  0  0999 V2000
    1.1191   -2.3978   -0.9482 C   0  0  0  0  0  0  0  0  0  0  0  0
    0.5154   -1.2185   -0.4596 O   0  0  0  0  0  0  0  0  0  0  0  0
    1.0479   -0.8439    0.8081 C   0  0  1  0  0  0  0  0  0  0  0  0
    1.9266    0.4052    0.6370 C   0  0  1  0  0  0  0  0  0  0  0  0
    3.0837    0.1484   -0.2514 N   0  0  0  0  0  0  0  0  0  0  0  0
    3.0349    0.4635   -1.6885 C   0  0  0  0  0  0  0  0  0  0  0  0
    4.2877   -0.4102    0.3233 C   0  0  0  0  0  0  0  0  0  0  0  0
    4.2199   -1.0738    1.3947 O   0  0  0  0  0  0  0  0  0  0  0  0
    5.6171   -0.1875   -0.2886 C   0  0  0  0  0  0  0  0  0  0  0  0
    5.9973    1.1155   -0.6540 C   0  0  0  0  0  0  0  0  0  0  0  0
    7.2553    1.3556   -1.2129 C   0  0  0  0  0  0  0  0  0  0  0  0
    8.1474    0.3002   -1.4082 C   0  0  0  0  0  0  0  0  0  0  0  0
    7.7833   -0.9989   -1.0474 C   0  0  0  0  0  0  0  0  0  0  0  0
    6.5248   -1.2514   -0.4868 C   0  0  0  0  0  0  0  0  0  0  0  0
    6.1031   -2.9167   -0.0982 Cl  0  0  0  0  0  0  0  0  0  0  0  0
    1.0363    1.5518    0.1539 C   0  0  0  0  0  0  0  0  0  0  0  0
   -0.1124    1.7959    1.1521 C   0  0  2  0  0  0  0  0  0  0  0  0
   -0.2362    0.8378    2.1852 O   0  0  0  0  0  0  0  0  0  0  0  0
   -0.1278   -0.5375    1.8183 C   0  0  2  0  0  0  0  0  0  0  0  0
    0.1646   -1.2108    3.1856 C   0  0  0  0  0  0  0  0  0  0  0  0
   -1.4294   -1.0209    1.2777 N   0  0  0  0  0  0  0  0  0  0  0  0
   -1.9124   -2.3028    1.2150 C   0  0  0  0  0  0  0  0  0  0  0  0
   -1.2559   -3.5062    1.5236 C   0  0  0  0  0  0  0  0  0  0  0  0
   -1.9465   -4.7182    1.3586 C   0  0  0  0  0  0  0  0  0  0  0  0
   -3.2619   -4.7308    0.8624 C   0  0  0  0  0  0  0  0  0  0  0  0
   -3.8918   -3.5333    0.4983 C   0  0  0  0  0  0  0  0  0  0  0  0
   -3.1890   -2.3397    0.6778 C   0  0  0  0  0  0  0  0  0  0  0  0
   -3.4999   -1.0502    0.3253 C   0  0  0  0  0  0  0  0  0  0  0  0
   -4.6017   -0.5000   -0.3495 C   0  0  0  0  0  0  0  0  0  0  0  0
   -4.5914    0.8497   -0.6938 C   0  0  0  0  0  0  0  0  0  0  0  0
   -3.4629    1.6431   -0.3891 C   0  0  0  0  0  0  0  0  0  0  0  0
   -3.0915    2.9516   -0.6745 C   0  0  0  0  0  0  0  0  0  0  0  0
   -3.7135    3.9833   -1.3860 C   0  0  0  0  0  0  0  0  0  0  0  0
   -3.0331    5.2050   -1.5212 C   0  0  0  0  0  0  0  0  0  0  0  0
   -1.7520    5.3767   -0.9640 C   0  0  0  0  0  0  0  0  0  0  0  0
   -1.1330    4.3278   -0.2681 C   0  0  0  0  0  0  0  0  0  0  0  0
   -1.8267    3.1190   -0.1343 C   0  0  0  0  0  0  0  0  0  0  0  0
   -1.3924    1.9883    0.4739 N   0  0  0  0  0  0  0  0  0  0  0  0
   -2.3834    1.0857    0.3071 C   0  0  0  0  0  0  0  0  0  0  0  0
   -2.4021   -0.2731    0.6798 C   0  0  0  0  0  0  0  0  0  0  0  0
   -5.8571    1.1030   -1.3581 C   0  0  0  0  0  0  0  0  0  0  0  0
   -6.2893    2.2121   -1.7582 O   0  0  0  0  0  0  0  0  0  0  0  0
   -6.6123   -0.0964   -1.4420 N   0  0  0  0  0  0  0  0  0  0  0  0
   -5.8570   -1.1780   -0.8176 C   0  0  0  0  0  0  0  0  0  0  0  0
    2.2203   -2.2840   -1.0428 H   0  0  0  0  0  0  0  0  0  0  0  0
    0.7119   -2.6112   -1.9571 H   0  0  0  0  0  0  0  0  0  0  0  0
    0.8831   -3.2664   -0.3000 H   0  0  0  0  0  0  0  0  0  0  0  0
    1.7005   -1.6404    1.2400 H   0  0  0  0  0  0  0  0  0  0  0  0
    2.3197    0.7025    1.6375 H   0  0  0  0  0  0  0  0  0  0  0  0
    3.8399   -0.0595   -2.2450 H   0  0  0  0  0  0  0  0  0  0  0  0
    3.1417    1.5572   -1.8388 H   0  0  0  0  0  0  0  0  0  0  0  0
    2.0770    0.1245   -2.1302 H   0  0  0  0  0  0  0  0  0  0  0  0
    5.3244    1.9488   -0.4927 H   0  0  0  0  0  0  0  0  0  0  0  0
    7.5416    2.3618   -1.4894 H   0  0  0  0  0  0  0  0  0  0  0  0
    9.1226    0.4894   -1.8386 H   0  0  0  0  0  0  0  0  0  0  0  0
    8.4794   -1.8121   -1.2088 H   0  0  0  0  0  0  0  0  0  0  0  0
    0.6095    1.3271   -0.8476 H   0  0  0  0  0  0  0  0  0  0  0  0
    1.6490    2.4755    0.0530 H   0  0  0  0  0  0  0  0  0  0  0  0
    0.1310    2.7432    1.6804 H   0  0  0  0  0  0  0  0  0  0  0  0
    0.8705   -0.5832    3.7732 H   0  0  0  0  0  0  0  0  0  0  0  0
    0.6565   -2.1958    3.1243 H   0  0  0  0  0  0  0  0  0  0  0  0
   -0.7712   -1.3077    3.7768 H   0  0  0  0  0  0  0  0  0  0  0  0
   -0.2250   -3.5503    1.8158 H   0  0  0  0  0  0  0  0  0  0  0  0
   -1.4540   -5.6532    1.5935 H   0  0  0  0  0  0  0  0  0  0  0  0
   -3.7797   -5.6725    0.7333 H   0  0  0  0  0  0  0  0  0  0  0  0
   -4.8882   -3.5536    0.0839 H   0  0  0  0  0  0  0  0  0  0  0  0
   -4.6786    3.8745   -1.8416 H   0  0  0  0  0  0  0  0  0  0  0  0
   -3.4935    6.0190   -2.0660 H   0  0  0  0  0  0  0  0  0  0  0  0
   -1.2365    6.3210   -1.0815 H   0  0  0  0  0  0  0  0  0  0  0  0
   -0.1405    4.4628    0.1398 H   0  0  0  0  0  0  0  0  0  0  0  0
   -7.5631   -0.1865   -1.8646 H   0  0  0  0  0  0  0  0  0  0  0  0
   -5.6256   -1.9601   -1.5706 H   0  0  0  0  0  0  0  0  0  0  0  0
   -6.4244   -1.5930    0.0417 H   0  0  0  0  0  0  0  0  0  0  0  0
  1  2  1  0
  2  3  1  0
  3  4  1  0
  4  5  1  0
  5  6  1  0
  5  7  1  0
  7  8  2  0
  7  9  1  0
  9 10  2  0
 10 11  1  0
 11 12  2  0
 12 13  1  0
 13 14  2  0
 14 15  1  0
  4 16  1  0
 16 17  1  0
 17 18  1  0
 18 19  1  0
 19 20  1  1
 19 21  1  0
 21 22  1  0
 22 23  2  0
 23 24  1  0
 24 25  2  0
 25 26  1  0
 26 27  2  0
 27 28  1  0
 28 29  2  0
 29 30  1  0
 30 31  2  0
 31 32  1  0
 32 33  2  0
 33 34  1  0
 34 35  2  0
 35 36  1  0
 36 37  2  0
 37 38  1  0
 38 39  1  0
 39 40  2  0
 30 41  1  0
 41 42  2  0
 41 43  1  0
 43 44  1  0
 19  3  1  0
 40 21  1  0
 14  9  1  0
 38 17  1  0
 27 22  1  0
 40 28  1  0
 44 29  1  0
 39 31  1  0
 37 32  1  0
  1 45  1  0
  1 46  1  0
  1 47  1  0
  3 48  1  1
  4 49  1  1
  6 50  1  0
  6 51  1  0
  6 52  1  0
 10 53  1  0
 11 54  1  0
 12 55  1  0
 13 56  1  0
 16 57  1  0
 16 58  1  0
 17 59  1  1
 20 60  1  0
 20 61  1  0
 20 62  1  0
 23 63  1  0
 24 64  1  0
 25 65  1  0
 26 66  1  0
 33 67  1  0
 34 68  1  0
 35 69  1  0
 36 70  1  0
 43 71  1  0
 44 72  1  0
 44 73  1  0
M  END
$$$$
