
     RDKit          3D

 57 60  0  0  0  0  0  0  0  0999 V2000
   -2.7691    3.7088   -2.0063 C   0  0  0  0  0  0  0  0  0  0  0  0
   -2.2562    2.3924   -1.8304 O   0  0  0  0  0  0  0  0  0  0  0  0
   -0.8917    2.0749   -1.7360 C   0  0  0  0  0  0  0  0  0  0  0  0
    0.1114    3.0578   -1.8214 C   0  0  0  0  0  0  0  0  0  0  0  0
    1.4591    2.7059   -1.7116 C   0  0  0  0  0  0  0  0  0  0  0  0
    2.4141    3.6704   -1.7786 N   0  0  0  0  0  0  0  0  0  0  0  0
    3.7361    3.3816   -1.6718 C   0  0  0  0  0  0  0  0  0  0  0  0
    4.1567    2.0612   -1.4870 C   0  0  0  0  0  0  0  0  0  0  0  0
    5.5676    1.7748   -1.3989 C   0  0  0  0  0  0  0  0  0  0  0  0
    6.6993    1.5438   -1.3272 N   0  0  0  0  0  0  0  0  0  0  0  0
    3.1970    1.0335   -1.4095 C   0  0  0  0  0  0  0  0  0  0  0  0
    3.6116   -0.3309   -1.2322 N   0  0  0  0  0  0  0  0  0  0  0  0
    4.1779   -0.8332   -0.0084 C   0  0  0  0  0  0  0  0  0  0  0  0
    4.7101   -2.1315    0.0215 C   0  0  0  0  0  0  0  0  0  0  0  0
    5.2568   -2.6461    1.2004 C   0  0  0  0  0  0  0  0  0  0  0  0
    5.2727   -1.8720    2.3635 C   0  0  0  0  0  0  0  0  0  0  0  0
    5.8053   -2.3820    3.5022 F   0  0  0  0  0  0  0  0  0  0  0  0
    4.7369   -0.5787    2.3493 C   0  0  0  0  0  0  0  0  0  0  0  0
    4.7433    0.3996    3.8070 Cl  0  0  0  0  0  0  0  0  0  0  0  0
    4.1890   -0.0616    1.1699 C   0  0  0  0  0  0  0  0  0  0  0  0
    1.8278    1.3556   -1.5273 C   0  0  0  0  0  0  0  0  0  0  0  0
    0.8229    0.3756   -1.4449 C   0  0  0  0  0  0  0  0  0  0  0  0
   -0.5356    0.7324   -1.5401 C   0  0  0  0  0  0  0  0  0  0  0  0
   -1.5692   -0.2143   -1.4455 O   0  0  0  0  0  0  0  0  0  0  0  0
   -1.4298   -1.5655   -1.0027 C   0  0  0  0  0  0  0  0  0  0  0  0
   -1.1225   -1.6486    0.5005 C   0  0  0  0  0  0  0  0  0  0  0  0
   -1.9558   -0.7009    1.3983 C   0  0  0  0  0  0  0  0  0  0  0  0
   -3.4097   -0.9750    1.4817 N   0  0  0  0  0  0  0  0  0  0  0  0
   -3.7786   -2.3922    1.6264 C   0  0  0  0  0  0  0  0  0  0  0  0
   -5.2845   -2.4921    1.8938 C   0  0  0  0  0  0  0  0  0  0  0  0
   -6.0196   -1.8848    0.8466 O   0  0  0  0  0  0  0  0  0  0  0  0
   -5.7048   -0.5061    0.7712 C   0  0  0  0  0  0  0  0  0  0  0  0
   -4.2189   -0.3039    0.4514 C   0  0  0  0  0  0  0  0  0  0  0  0
   -2.3997    4.1382   -2.9614 H   0  0  0  0  0  0  0  0  0  0  0  0
   -2.4669    4.3532   -1.1539 H   0  0  0  0  0  0  0  0  0  0  0  0
   -3.8768    3.6638   -2.0419 H   0  0  0  0  0  0  0  0  0  0  0  0
   -0.1460    4.0988   -1.9659 H   0  0  0  0  0  0  0  0  0  0  0  0
    4.4598    4.1847   -1.7353 H   0  0  0  0  0  0  0  0  0  0  0  0
    3.4292   -0.9974   -2.0165 H   0  0  0  0  0  0  0  0  0  0  0  0
    4.7047   -2.7438   -0.8715 H   0  0  0  0  0  0  0  0  0  0  0  0
    5.6680   -3.6473    1.2112 H   0  0  0  0  0  0  0  0  0  0  0  0
    3.7683    0.9353    1.1808 H   0  0  0  0  0  0  0  0  0  0  0  0
    1.0976   -0.6592   -1.3071 H   0  0  0  0  0  0  0  0  0  0  0  0
   -2.3713   -2.1094   -1.2155 H   0  0  0  0  0  0  0  0  0  0  0  0
   -0.6421   -2.0860   -1.5871 H   0  0  0  0  0  0  0  0  0  0  0  0
   -1.2199   -2.7003    0.8419 H   0  0  0  0  0  0  0  0  0  0  0  0
   -0.0538   -1.3864    0.6499 H   0  0  0  0  0  0  0  0  0  0  0  0
   -1.5435   -0.7805    2.4271 H   0  0  0  0  0  0  0  0  0  0  0  0
   -1.7769    0.3544    1.0972 H   0  0  0  0  0  0  0  0  0  0  0  0
   -3.5468   -2.9609    0.7001 H   0  0  0  0  0  0  0  0  0  0  0  0
   -3.2275   -2.8435    2.4801 H   0  0  0  0  0  0  0  0  0  0  0  0
   -5.5376   -2.0323    2.8763 H   0  0  0  0  0  0  0  0  0  0  0  0
   -5.5673   -3.5644    1.9485 H   0  0  0  0  0  0  0  0  0  0  0  0
   -6.3102   -0.0492   -0.0398 H   0  0  0  0  0  0  0  0  0  0  0  0
   -5.9738    0.0151    1.7182 H   0  0  0  0  0  0  0  0  0  0  0  0
   -4.0152   -0.7178   -0.5555 H   0  0  0  0  0  0  0  0  0  0  0  0
   -4.0017    0.7865    0.4412 H   0  0  0  0  0  0  0  0  0  0  0  0
  1  2  1  0
  2  3  1  0
  3  4  2  0
  4  5  1  0
  5  6  2  0
  6  7  1  0
  7  8  2  0
  8  9  1  0
  9 10  3  0
  8 11  1  0
 11 12  1  0
 12 13  1  0
 13 14  2  0
 14 15  1  0
 15 16  2  0
 16 17  1  0
 16 18  1  0
 18 19  1  0
 18 20  2  0
 11 21  2  0
 21 22  1  0
 22 23  2  0
 23 24  1  0
 24 25  1  0
 25 26  1  0
 26 27  1  0
 27 28  1  0
 28 29  1  0
 29 30  1  0
 30 31  1  0
 31 32  1  0
 32 33  1  0
 23  3  1  0
 33 28  1  0
 21  5  1  0
 20 13  1  0
  1 34  1  0
  1 35  1  0
  1 36  1  0
  4 37  1  0
  7 38  1  0
 12 39  1  0
 14 40  1  0
 15 41  1  0
 20 42  1  0
 22 43  1  0
 25 44  1  0
 25 45  1  0
 26 46  1  0
 26 47  1  0
 27 48  1  0
 27 49  1  0
 29 50  1  0
 29 51  1  0
 30 52  1  0
 30 53  1  0
 32 54  1  0
 32 55  1  0
 33 56  1  0
 33 57  1  0
M  END
$$$$
