
     RDKit          3D

 35 37  0  0  0  0  0  0  0  0999 V2000
   -5.4651    0.8944    0.4138 C   0  0  0  0  0  0  0  0  0  0  0  0
   -4.4728   -0.0751    0.8945 N   0  0  0  0  0  0  0  0  0  0  0  0
   -4.8853   -1.1397    1.8164 C   0  0  0  0  0  0  0  0  0  0  0  0
   -3.0882   -0.0060    0.4761 C   0  0  0  0  0  0  0  0  0  0  0  0
   -2.6272    0.9945   -0.4009 C   0  0  0  0  0  0  0  0  0  0  0  0
   -1.2816    1.0201   -0.7764 C   0  0  0  0  0  0  0  0  0  0  0  0
   -0.8298    1.9936   -1.6084 N   0  0  0  0  0  0  0  0  0  0  0  0
    0.4729    2.0433   -1.9828 C   0  0  0  0  0  0  0  0  0  0  0  0
    1.3475    1.1082   -1.5329 N   0  0  0  0  0  0  0  0  0  0  0  0
    0.9580    0.1089   -0.6942 C   0  0  0  0  0  0  0  0  0  0  0  0
    1.9152   -0.8860   -0.2908 N   0  0  0  0  0  0  0  0  0  0  0  0
    3.3208   -0.6181   -0.1436 C   0  0  0  0  0  0  0  0  0  0  0  0
    3.7879    0.6543    0.2359 C   0  0  0  0  0  0  0  0  0  0  0  0
    5.1579    0.8845    0.3935 C   0  0  0  0  0  0  0  0  0  0  0  0
    6.0716   -0.1517    0.1864 C   0  0  0  0  0  0  0  0  0  0  0  0
    5.6165   -1.4241   -0.1720 C   0  0  0  0  0  0  0  0  0  0  0  0
    6.8653   -2.8436   -0.4427 Br  0  0  0  0  0  0  0  0  0  0  0  0
    4.2459   -1.6579   -0.3299 C   0  0  0  0  0  0  0  0  0  0  0  0
   -0.3921    0.0423   -0.2881 C   0  0  0  0  0  0  0  0  0  0  0  0
   -0.8864   -0.9299    0.5961 C   0  0  0  0  0  0  0  0  0  0  0  0
   -2.1995   -0.9275    0.9454 N   0  0  0  0  0  0  0  0  0  0  0  0
   -6.4749    0.6928    0.8283 H   0  0  0  0  0  0  0  0  0  0  0  0
   -5.1699    1.9192    0.7228 H   0  0  0  0  0  0  0  0  0  0  0  0
   -5.5362    0.8422   -0.6931 H   0  0  0  0  0  0  0  0  0  0  0  0
   -4.6869   -2.1310    1.3566 H   0  0  0  0  0  0  0  0  0  0  0  0
   -4.3146   -1.0554    2.7653 H   0  0  0  0  0  0  0  0  0  0  0  0
   -5.9670   -1.0832    2.0593 H   0  0  0  0  0  0  0  0  0  0  0  0
   -3.2928    1.7524   -0.7916 H   0  0  0  0  0  0  0  0  0  0  0  0
    0.8141    2.8258   -2.6465 H   0  0  0  0  0  0  0  0  0  0  0  0
    1.5999   -1.8797   -0.2252 H   0  0  0  0  0  0  0  0  0  0  0  0
    3.0961    1.4635    0.4296 H   0  0  0  0  0  0  0  0  0  0  0  0
    5.5110    1.8656    0.6838 H   0  0  0  0  0  0  0  0  0  0  0  0
    7.1309    0.0328    0.3112 H   0  0  0  0  0  0  0  0  0  0  0  0
    3.9012   -2.6466   -0.6060 H   0  0  0  0  0  0  0  0  0  0  0  0
   -0.2424   -1.6831    1.0264 H   0  0  0  0  0  0  0  0  0  0  0  0
  1  2  1  0
  2  3  1  0
  2  4  1  0
  4  5  2  0
  5  6  1  0
  6  7  2  0
  7  8  1  0
  8  9  2  0
  9 10  1  0
 10 11  1  0
 11 12  1  0
 12 13  2  0
 13 14  1  0
 14 15  2  0
 15 16  1  0
 16 17  1  0
 16 18  2  0
 10 19  2  0
 19 20  1  0
 20 21  2  0
 21  4  1  0
 19  6  1  0
 18 12  1  0
  1 22  1  0
  1 23  1  0
  1 24  1  0
  3 25  1  0
  3 26  1  0
  3 27  1  0
  5 28  1  0
  8 29  1  0
 11 30  1  0
 13 31  1  0
 14 32  1  0
 15 33  1  0
 18 34  1  0
 20 35  1  0
M  END
$$$$
