
     RDKit          3D

 45 47  0  0  0  0  0  0  0  0999 V2000
    8.4593    1.2980   -0.5070 C   0  0  0  0  0  0  0  0  0  0  0  0
    7.8011    1.2810    0.8673 C   0  0  0  0  0  0  0  0  0  0  0  0
    6.5118    0.6756    0.7993 O   0  0  0  0  0  0  0  0  0  0  0  0
    5.3838    1.3180    0.2723 C   0  0  0  0  0  0  0  0  0  0  0  0
    5.4502    2.5194   -0.1054 O   0  0  0  0  0  0  0  0  0  0  0  0
    4.1033    0.6029    0.1598 C   0  0  0  0  0  0  0  0  0  0  0  0
    3.9714   -0.6761    0.5310 C   0  0  0  0  0  0  0  0  0  0  0  0
    2.7026   -1.4197    0.4114 C   0  0  0  0  0  0  0  0  0  0  0  0
    2.7257   -2.6726    0.5469 O   0  0  0  0  0  0  0  0  0  0  0  0
    1.4507   -0.7442    0.2014 N   0  0  0  0  0  0  0  0  0  0  0  0
    0.2823   -1.3822   -0.3442 C   0  0  0  0  0  0  0  0  0  0  0  0
    0.3909   -2.4246   -1.2816 C   0  0  0  0  0  0  0  0  0  0  0  0
   -0.7539   -3.0037   -1.8318 C   0  0  0  0  0  0  0  0  0  0  0  0
   -2.0215   -2.5485   -1.4588 C   0  0  0  0  0  0  0  0  0  0  0  0
   -3.1279   -3.1044   -2.0156 N   0  0  0  0  0  0  0  0  0  0  0  0
   -4.3695   -2.6738   -1.6816 C   0  0  0  0  0  0  0  0  0  0  0  0
   -4.5239   -1.6786   -0.7728 N   0  0  0  0  0  0  0  0  0  0  0  0
   -3.4556   -1.0779   -0.1801 C   0  0  0  0  0  0  0  0  0  0  0  0
   -3.6822   -0.0680    0.8183 N   0  0  0  0  0  0  0  0  0  0  0  0
   -4.8087    0.8261    0.7966 C   0  0  0  0  0  0  0  0  0  0  0  0
   -5.4015    1.2268   -0.4155 C   0  0  0  0  0  0  0  0  0  0  0  0
   -6.4809    2.1153   -0.4127 C   0  0  0  0  0  0  0  0  0  0  0  0
   -6.9716    2.6193    0.7941 C   0  0  0  0  0  0  0  0  0  0  0  0
   -6.3780    2.2418    2.0023 C   0  0  0  0  0  0  0  0  0  0  0  0
   -7.0404    2.9420    3.6514 Br  0  0  0  0  0  0  0  0  0  0  0  0
   -5.2961    1.3542    2.0030 C   0  0  0  0  0  0  0  0  0  0  0  0
   -2.1520   -1.5038   -0.5172 C   0  0  0  0  0  0  0  0  0  0  0  0
   -0.9908   -0.9139    0.0190 C   0  0  0  0  0  0  0  0  0  0  0  0
    9.4832    1.7193   -0.4254 H   0  0  0  0  0  0  0  0  0  0  0  0
    7.8711    1.9238   -1.2104 H   0  0  0  0  0  0  0  0  0  0  0  0
    8.5264    0.2645   -0.9080 H   0  0  0  0  0  0  0  0  0  0  0  0
    8.4353    0.6863    1.5582 H   0  0  0  0  0  0  0  0  0  0  0  0
    7.7242    2.3133    1.2721 H   0  0  0  0  0  0  0  0  0  0  0  0
    3.2635    1.1423   -0.2582 H   0  0  0  0  0  0  0  0  0  0  0  0
    4.8329   -1.2179    0.9036 H   0  0  0  0  0  0  0  0  0  0  0  0
    1.3493    0.2295    0.5670 H   0  0  0  0  0  0  0  0  0  0  0  0
    1.3603   -2.7717   -1.6138 H   0  0  0  0  0  0  0  0  0  0  0  0
   -0.6529   -3.7994   -2.5601 H   0  0  0  0  0  0  0  0  0  0  0  0
   -5.2387   -3.1291   -2.1355 H   0  0  0  0  0  0  0  0  0  0  0  0
   -3.0757   -0.0674    1.6687 H   0  0  0  0  0  0  0  0  0  0  0  0
   -5.0200    0.8701   -1.3632 H   0  0  0  0  0  0  0  0  0  0  0  0
   -6.9334    2.4185   -1.3480 H   0  0  0  0  0  0  0  0  0  0  0  0
   -7.8069    3.3076    0.7892 H   0  0  0  0  0  0  0  0  0  0  0  0
   -4.8401    1.0686    2.9427 H   0  0  0  0  0  0  0  0  0  0  0  0
   -1.0569   -0.0866    0.7122 H   0  0  0  0  0  0  0  0  0  0  0  0
  1  2  1  0
  2  3  1  0
  3  4  1  0
  4  5  2  0
  4  6  1  0
  6  7  2  0
  7  8  1  0
  8  9  2  0
  8 10  1  0
 10 11  1  0
 11 12  2  0
 12 13  1  0
 13 14  2  0
 14 15  1  0
 15 16  2  0
 16 17  1  0
 17 18  2  0
 18 19  1  0
 19 20  1  0
 20 21  2  0
 21 22  1  0
 22 23  2  0
 23 24  1  0
 24 25  1  0
 24 26  2  0
 18 27  1  0
 27 28  2  0
 28 11  1  0
 27 14  1  0
 26 20  1  0
  1 29  1  0
  1 30  1  0
  1 31  1  0
  2 32  1  0
  2 33  1  0
  6 34  1  0
  7 35  1  0
 10 36  1  0
 12 37  1  0
 13 38  1  0
 16 39  1  0
 19 40  1  0
 21 41  1  0
 22 42  1  0
 23 43  1  0
 26 44  1  0
 28 45  1  0
M  END
$$$$
