
     RDKit          3D

 54 57  0  0  0  0  0  0  0  0999 V2000
    0.4037   -2.1283   -3.1522 C   0  0  0  0  0  0  0  0  0  0  0  0
   -0.3517   -2.2186   -1.9488 O   0  0  0  0  0  0  0  0  0  0  0  0
    0.0899   -1.7712   -0.6931 C   0  0  0  0  0  0  0  0  0  0  0  0
    1.3603   -1.1898   -0.5109 C   0  0  0  0  0  0  0  0  0  0  0  0
    1.7697   -0.7513    0.7617 C   0  0  0  0  0  0  0  0  0  0  0  0
    3.0294   -0.1579    1.0018 C   0  0  0  0  0  0  0  0  0  0  0  0
    4.0216   -0.0493   -0.0340 N   0  0  0  0  0  0  0  0  0  0  0  0
    4.9997    1.0048   -0.0769 C   0  0  0  0  0  0  0  0  0  0  0  0
    4.7016    2.2905    0.4123 C   0  0  0  0  0  0  0  0  0  0  0  0
    5.6553    3.3105    0.3477 C   0  0  0  0  0  0  0  0  0  0  0  0
    6.9113    3.0623   -0.2120 C   0  0  0  0  0  0  0  0  0  0  0  0
    8.2132    4.4571   -0.2975 Br  0  0  0  0  0  0  0  0  0  0  0  0
    7.2109    1.7934   -0.7158 C   0  0  0  0  0  0  0  0  0  0  0  0
    6.2592    0.7695   -0.6563 C   0  0  0  0  0  0  0  0  0  0  0  0
    6.5716   -0.4557   -1.1480 F   0  0  0  0  0  0  0  0  0  0  0  0
    3.3318    0.2716    2.2577 N   0  0  0  0  0  0  0  0  0  0  0  0
    2.4549    0.1464    3.2850 C   0  0  0  0  0  0  0  0  0  0  0  0
    1.2442   -0.4283    3.0796 N   0  0  0  0  0  0  0  0  0  0  0  0
    0.8816   -0.8780    1.8507 C   0  0  0  0  0  0  0  0  0  0  0  0
   -0.3764   -1.4581    1.6703 C   0  0  0  0  0  0  0  0  0  0  0  0
   -0.7799   -1.9060    0.3991 C   0  0  0  0  0  0  0  0  0  0  0  0
   -2.0393   -2.4867    0.1710 O   0  0  0  0  0  0  0  0  0  0  0  0
   -3.1274   -2.5097    1.0952 C   0  0  0  0  0  0  0  0  0  0  0  0
   -3.7500   -1.1149    1.2792 C   0  0  0  0  0  0  0  0  0  0  0  0
   -4.5515   -0.6305    0.0456 C   0  0  0  0  0  0  0  0  0  0  0  0
   -5.3768    0.6380    0.3868 C   0  0  0  0  0  0  0  0  0  0  0  0
   -4.6439    1.9147   -0.0440 C   0  0  0  0  0  0  0  0  0  0  0  0
   -4.4180    1.9617   -1.5022 N   0  0  0  0  0  0  0  0  0  0  0  0
   -4.2401    0.6405   -2.1378 C   0  0  0  0  0  0  0  0  0  0  0  0
   -3.6329   -0.3925   -1.1805 C   0  0  0  0  0  0  0  0  0  0  0  0
   -0.1887   -2.5603   -3.9848 H   0  0  0  0  0  0  0  0  0  0  0  0
    1.3493   -2.7029   -3.0540 H   0  0  0  0  0  0  0  0  0  0  0  0
    0.6230   -1.0651   -3.3861 H   0  0  0  0  0  0  0  0  0  0  0  0
    2.0114   -1.0657   -1.3624 H   0  0  0  0  0  0  0  0  0  0  0  0
    4.1218   -0.8404   -0.7086 H   0  0  0  0  0  0  0  0  0  0  0  0
    3.7273    2.5112    0.8291 H   0  0  0  0  0  0  0  0  0  0  0  0
    5.4151    4.2945    0.7289 H   0  0  0  0  0  0  0  0  0  0  0  0
    8.1814    1.6003   -1.1546 H   0  0  0  0  0  0  0  0  0  0  0  0
    2.7250    0.4984    4.2708 H   0  0  0  0  0  0  0  0  0  0  0  0
   -1.0310   -1.5509    2.5258 H   0  0  0  0  0  0  0  0  0  0  0  0
   -2.7902   -2.9152    2.0726 H   0  0  0  0  0  0  0  0  0  0  0  0
   -3.9007   -3.2087    0.7126 H   0  0  0  0  0  0  0  0  0  0  0  0
   -2.9686   -0.3707    1.5413 H   0  0  0  0  0  0  0  0  0  0  0  0
   -4.4383   -1.1833    2.1498 H   0  0  0  0  0  0  0  0  0  0  0  0
   -5.2816   -1.4282   -0.2197 H   0  0  0  0  0  0  0  0  0  0  0  0
   -6.3511    0.5974   -0.1490 H   0  0  0  0  0  0  0  0  0  0  0  0
   -5.6128    0.6948    1.4717 H   0  0  0  0  0  0  0  0  0  0  0  0
   -5.2521    2.7967    0.2494 H   0  0  0  0  0  0  0  0  0  0  0  0
   -3.6734    1.9807    0.4987 H   0  0  0  0  0  0  0  0  0  0  0  0
   -3.5582    2.5333   -1.6765 H   0  0  0  0  0  0  0  0  0  0  0  0
   -5.2272    0.2756   -2.4952 H   0  0  0  0  0  0  0  0  0  0  0  0
   -3.5853    0.7389   -3.0319 H   0  0  0  0  0  0  0  0  0  0  0  0
   -3.4803   -1.3481   -1.7269 H   0  0  0  0  0  0  0  0  0  0  0  0
   -2.6368   -0.0165   -0.8594 H   0  0  0  0  0  0  0  0  0  0  0  0
  1  2  1  0
  2  3  1  0
  3  4  2  0
  4  5  1  0
  5  6  2  0
  6  7  1  0
  7  8  1  0
  8  9  2  0
  9 10  1  0
 10 11  2  0
 11 12  1  0
 11 13  1  0
 13 14  2  0
 14 15  1  0
  6 16  1  0
 16 17  2  0
 17 18  1  0
 18 19  2  0
 19 20  1  0
 20 21  2  0
 21 22  1  0
 22 23  1  0
 23 24  1  0
 24 25  1  0
 25 26  1  0
 26 27  1  0
 27 28  1  0
 28 29  1  0
 29 30  1  0
 21  3  1  0
 30 25  1  0
 19  5  1  0
 14  8  1  0
  1 31  1  0
  1 32  1  0
  1 33  1  0
  4 34  1  0
  7 35  1  0
  9 36  1  0
 10 37  1  0
 13 38  1  0
 17 39  1  0
 20 40  1  0
 23 41  1  0
 23 42  1  0
 24 43  1  0
 24 44  1  0
 25 45  1  0
 26 46  1  0
 26 47  1  0
 27 48  1  0
 27 49  1  0
 28 50  1  0
 29 51  1  0
 29 52  1  0
 30 53  1  0
 30 54  1  0
M  END
$$$$
