
     RDKit          3D

 56 59  0  0  0  0  0  0  0  0999 V2000
   -2.4580   -2.9620    2.9606 C   0  0  0  0  0  0  0  0  0  0  0  0
   -1.3166   -2.7305    2.1415 O   0  0  0  0  0  0  0  0  0  0  0  0
   -1.3070   -1.9168    0.9966 C   0  0  0  0  0  0  0  0  0  0  0  0
   -2.4619   -1.2463    0.5473 C   0  0  0  0  0  0  0  0  0  0  0  0
   -2.4186   -0.4425   -0.6060 C   0  0  0  0  0  0  0  0  0  0  0  0
   -3.5436    0.2565   -1.0973 C   0  0  0  0  0  0  0  0  0  0  0  0
   -4.8407    0.1149   -0.4927 N   0  0  0  0  0  0  0  0  0  0  0  0
   -5.8117    1.1762   -0.4514 C   0  0  0  0  0  0  0  0  0  0  0  0
   -5.4119    2.5254   -0.4135 C   0  0  0  0  0  0  0  0  0  0  0  0
   -6.3663    3.5442   -0.3452 C   0  0  0  0  0  0  0  0  0  0  0  0
   -7.7273    3.2290   -0.3038 C   0  0  0  0  0  0  0  0  0  0  0  0
   -8.9228    4.5094   -0.2150 Cl  0  0  0  0  0  0  0  0  0  0  0  0
   -8.1340    1.8918   -0.3253 C   0  0  0  0  0  0  0  0  0  0  0  0
   -7.1830    0.8682   -0.3921 C   0  0  0  0  0  0  0  0  0  0  0  0
   -7.5996   -0.4231   -0.4117 F   0  0  0  0  0  0  0  0  0  0  0  0
   -3.4076    1.0416   -2.2009 N   0  0  0  0  0  0  0  0  0  0  0  0
   -2.2185    1.1723   -2.8406 C   0  0  0  0  0  0  0  0  0  0  0  0
   -1.1275    0.5041   -2.3916 N   0  0  0  0  0  0  0  0  0  0  0  0
   -1.1973   -0.2958   -1.2962 C   0  0  0  0  0  0  0  0  0  0  0  0
   -0.0530   -0.9636   -0.8532 C   0  0  0  0  0  0  0  0  0  0  0  0
   -0.0996   -1.7755    0.2958 C   0  0  0  0  0  0  0  0  0  0  0  0
    1.0284   -2.4627    0.7778 O   0  0  0  0  0  0  0  0  0  0  0  0
    2.3592   -2.3310    0.2777 C   0  0  0  0  0  0  0  0  0  0  0  0
    2.9752   -1.0022    0.7307 C   0  0  0  0  0  0  0  0  0  0  0  0
    4.3925   -0.9158    0.3158 N   0  0  0  0  0  0  0  0  0  0  0  0
    5.1327   -0.0058    1.2096 C   0  0  0  0  0  0  0  0  0  0  0  0
    6.6156    0.0471    0.8111 C   0  0  0  0  0  0  0  0  0  0  0  0
    6.8070    0.4235   -0.6039 N   0  0  0  0  0  0  0  0  0  0  0  0
    6.6232    1.8672   -0.8319 C   0  0  0  0  0  0  0  0  0  0  0  0
    5.9799   -0.4010   -1.5078 C   0  0  0  0  0  0  0  0  0  0  0  0
    4.5060   -0.4414   -1.0781 C   0  0  0  0  0  0  0  0  0  0  0  0
   -2.1757   -3.6408    3.7909 H   0  0  0  0  0  0  0  0  0  0  0  0
   -3.2635   -3.4431    2.3667 H   0  0  0  0  0  0  0  0  0  0  0  0
   -2.8188   -2.0046    3.3922 H   0  0  0  0  0  0  0  0  0  0  0  0
   -3.3798   -1.3412    1.1072 H   0  0  0  0  0  0  0  0  0  0  0  0
   -5.1336   -0.8343   -0.1701 H   0  0  0  0  0  0  0  0  0  0  0  0
   -4.3632    2.7918   -0.4157 H   0  0  0  0  0  0  0  0  0  0  0  0
   -6.0459    4.5777   -0.3158 H   0  0  0  0  0  0  0  0  0  0  0  0
   -9.1873    1.6443   -0.2872 H   0  0  0  0  0  0  0  0  0  0  0  0
   -2.1424    1.8043   -3.7145 H   0  0  0  0  0  0  0  0  0  0  0  0
    0.8652   -0.8396   -1.4103 H   0  0  0  0  0  0  0  0  0  0  0  0
    2.3674   -2.4442   -0.8253 H   0  0  0  0  0  0  0  0  0  0  0  0
    2.9677   -3.1605    0.6961 H   0  0  0  0  0  0  0  0  0  0  0  0
    2.3879   -0.1410    0.3423 H   0  0  0  0  0  0  0  0  0  0  0  0
    2.8888   -0.9738    1.8408 H   0  0  0  0  0  0  0  0  0  0  0  0
    4.6891    1.0150    1.1966 H   0  0  0  0  0  0  0  0  0  0  0  0
    5.0824   -0.3827    2.2551 H   0  0  0  0  0  0  0  0  0  0  0  0
    7.0666   -0.9557    0.9781 H   0  0  0  0  0  0  0  0  0  0  0  0
    7.1559    0.7535    1.4795 H   0  0  0  0  0  0  0  0  0  0  0  0
    7.3302    2.4449   -0.1988 H   0  0  0  0  0  0  0  0  0  0  0  0
    5.5884    2.1959   -0.6029 H   0  0  0  0  0  0  0  0  0  0  0  0
    6.8526    2.1181   -1.8897 H   0  0  0  0  0  0  0  0  0  0  0  0
    6.0533   -0.0280   -2.5533 H   0  0  0  0  0  0  0  0  0  0  0  0
    6.3799   -1.4387   -1.5120 H   0  0  0  0  0  0  0  0  0  0  0  0
    3.9775   -1.1363   -1.7641 H   0  0  0  0  0  0  0  0  0  0  0  0
    4.0441    0.5639   -1.2003 H   0  0  0  0  0  0  0  0  0  0  0  0
  1  2  1  0
  2  3  1  0
  3  4  2  0
  4  5  1  0
  5  6  2  0
  6  7  1  0
  7  8  1  0
  8  9  2  0
  9 10  1  0
 10 11  2  0
 11 12  1  0
 11 13  1  0
 13 14  2  0
 14 15  1  0
  6 16  1  0
 16 17  2  0
 17 18  1  0
 18 19  2  0
 19 20  1  0
 20 21  2  0
 21 22  1  0
 22 23  1  0
 23 24  1  0
 24 25  1  0
 25 26  1  0
 26 27  1  0
 27 28  1  0
 28 29  1  0
 28 30  1  0
 30 31  1  0
 21  3  1  0
 31 25  1  0
 19  5  1  0
 14  8  1  0
  1 32  1  0
  1 33  1  0
  1 34  1  0
  4 35  1  0
  7 36  1  0
  9 37  1  0
 10 38  1  0
 13 39  1  0
 17 40  1  0
 20 41  1  0
 23 42  1  0
 23 43  1  0
 24 44  1  0
 24 45  1  0
 26 46  1  0
 26 47  1  0
 27 48  1  0
 27 49  1  0
 29 50  1  0
 29 51  1  0
 29 52  1  0
 30 53  1  0
 30 54  1  0
 31 55  1  0
 31 56  1  0
M  END
$$$$
