
     RDKit          3D

 23 23  0  0  0  0  0  0  0  0999 V2000
   -3.2464   -2.4276   -0.7748 O   0  0  0  0  0  0  0  0  0  0  0  0
   -3.2585   -1.2134   -0.4329 C   0  0  0  0  0  0  0  0  0  0  0  0
   -4.4813   -0.5629   -0.2886 O   0  0  0  0  0  0  0  0  0  0  0  0
   -1.9896   -0.4831   -0.1824 C   0  0  0  0  0  0  0  0  0  0  0  0
   -0.8275   -1.1703   -0.1180 C   0  0  0  0  0  0  0  0  0  0  0  0
    0.5168   -0.5629   -0.0023 C   0  0  0  0  0  0  0  0  0  0  0  0
    0.9139    0.5002   -0.8333 C   0  0  0  0  0  0  0  0  0  0  0  0
    2.2043    1.0291   -0.7335 C   0  0  0  0  0  0  0  0  0  0  0  0
    3.1177    0.4882    0.1811 C   0  0  0  0  0  0  0  0  0  0  0  0
    4.4056    1.0077    0.2906 O   0  0  0  0  0  0  0  0  0  0  0  0
    2.7358   -0.5877    0.9887 C   0  0  0  0  0  0  0  0  0  0  0  0
    1.4457   -1.1182    0.8906 C   0  0  0  0  0  0  0  0  0  0  0  0
   -2.0514    0.9791    0.0587 C   0  0  0  0  0  0  0  0  0  0  0  0
   -2.9049    1.6841   -0.5438 O   0  0  0  0  0  0  0  0  0  0  0  0
   -1.1911    1.5819    0.9731 O   0  0  0  0  0  0  0  0  0  0  0  0
   -5.3534   -1.0505   -0.4558 H   0  0  0  0  0  0  0  0  0  0  0  0
   -0.8512   -2.2533   -0.1546 H   0  0  0  0  0  0  0  0  0  0  0  0
    0.2305    0.9127   -1.5650 H   0  0  0  0  0  0  0  0  0  0  0  0
    2.4954    1.8531   -1.3725 H   0  0  0  0  0  0  0  0  0  0  0  0
    4.7131    1.7855   -0.2814 H   0  0  0  0  0  0  0  0  0  0  0  0
    3.4404   -1.0154    1.6905 H   0  0  0  0  0  0  0  0  0  0  0  0
    1.1676   -1.9557    1.5190 H   0  0  0  0  0  0  0  0  0  0  0  0
   -1.2314    2.5792    1.1462 H   0  0  0  0  0  0  0  0  0  0  0  0
  1  2  2  0
  2  3  1  0
  2  4  1  0
  4  5  2  3
  5  6  1  0
  6  7  2  0
  7  8  1  0
  8  9  2  0
  9 10  1  0
  9 11  1  0
 11 12  2  0
  4 13  1  0
 13 14  2  0
 13 15  1  0
 12  6  1  0
  3 16  1  0
  5 17  1  0
  7 18  1  0
  8 19  1  0
 10 20  1  0
 11 21  1  0
 12 22  1  0
 15 23  1  0
M  END
$$$$
