
     RDKit          3D

 50 53  0  0  0  0  0  0  0  0999 V2000
    0.5321   -0.8089   -1.7887 C   0  0  0  0  0  0  0  0  0  0  0  0
    1.3473   -0.1958   -0.7397 N   0  0  0  0  0  0  0  0  0  0  0  0
    1.5451    1.1298   -0.5148 C   0  0  0  0  0  0  0  0  0  0  0  0
    0.7339    2.4457   -1.4333 S   0  0  0  0  0  0  0  0  0  0  0  0
   -0.6451    2.8896    0.1377 S   0  0  0  0  0  0  0  0  0  0  0  0
   -1.7594    1.5525   -0.3068 C   0  0  0  0  0  0  0  0  0  0  0  0
   -1.8243    0.3196    0.3412 C   0  0  0  0  0  0  0  0  0  0  0  0
   -1.0823   -0.1102    1.5771 C   0  0  0  0  0  0  0  0  0  0  0  0
   -2.0010   -0.1698    2.7550 C   0  0  0  0  0  0  0  0  0  0  0  0
   -2.7599    0.8047    3.0191 O   0  0  0  0  0  0  0  0  0  0  0  0
   -1.9964   -1.2943    3.5773 O   0  0  0  0  0  0  0  0  0  0  0  0
   -2.7576   -0.4162   -0.3636 C   0  0  0  0  0  0  0  0  0  0  0  0
   -3.2067   -1.7246   -0.1869 C   0  0  0  0  0  0  0  0  0  0  0  0
   -4.1548   -2.2211   -1.0968 C   0  0  0  0  0  0  0  0  0  0  0  0
   -4.6259   -1.4122   -2.1528 C   0  0  0  0  0  0  0  0  0  0  0  0
   -4.1536   -0.0976   -2.3098 C   0  0  0  0  0  0  0  0  0  0  0  0
   -3.2165    0.3785   -1.3872 C   0  0  0  0  0  0  0  0  0  0  0  0
   -2.6287    1.5923   -1.3491 N   0  0  0  0  0  0  0  0  0  0  0  0
   -2.7907    2.6783   -2.3162 C   0  0  0  0  0  0  0  0  0  0  0  0
    2.4805    1.3198    0.5028 C   0  0  0  0  0  0  0  0  0  0  0  0
    3.0323    2.6237    0.9994 C   0  0  0  0  0  0  0  0  0  0  0  0
    4.2306    3.0133    0.1973 C   0  0  0  0  0  0  0  0  0  0  0  0
    4.0942    3.7108   -0.8436 O   0  0  0  0  0  0  0  0  0  0  0  0
    5.4942    2.5690    0.5774 O   0  0  0  0  0  0  0  0  0  0  0  0
    2.8614    0.0498    0.8958 C   0  0  0  0  0  0  0  0  0  0  0  0
    3.7792   -0.3718    1.8592 C   0  0  0  0  0  0  0  0  0  0  0  0
    3.9625   -1.7558    2.0311 C   0  0  0  0  0  0  0  0  0  0  0  0
    3.2396   -2.6764    1.2419 C   0  0  0  0  0  0  0  0  0  0  0  0
    2.3274   -2.2234    0.2715 C   0  0  0  0  0  0  0  0  0  0  0  0
    2.1574   -0.8441    0.1243 C   0  0  0  0  0  0  0  0  0  0  0  0
   -0.0750   -1.6344   -1.3602 H   0  0  0  0  0  0  0  0  0  0  0  0
   -0.1620   -0.0709   -2.2419 H   0  0  0  0  0  0  0  0  0  0  0  0
    1.1940   -1.2148   -2.5839 H   0  0  0  0  0  0  0  0  0  0  0  0
   -0.6340   -1.1124    1.4015 H   0  0  0  0  0  0  0  0  0  0  0  0
   -0.2548    0.5962    1.8051 H   0  0  0  0  0  0  0  0  0  0  0  0
   -2.6174   -1.3589    4.3748 H   0  0  0  0  0  0  0  0  0  0  0  0
   -2.8331   -2.3433    0.6194 H   0  0  0  0  0  0  0  0  0  0  0  0
   -4.5239   -3.2327   -0.9879 H   0  0  0  0  0  0  0  0  0  0  0  0
   -5.3526   -1.8069   -2.8500 H   0  0  0  0  0  0  0  0  0  0  0  0
   -4.5097    0.5176   -3.1249 H   0  0  0  0  0  0  0  0  0  0  0  0
   -2.5351    3.6547   -1.8527 H   0  0  0  0  0  0  0  0  0  0  0  0
   -3.8455    2.7366   -2.6583 H   0  0  0  0  0  0  0  0  0  0  0  0
   -2.1250    2.4995   -3.1880 H   0  0  0  0  0  0  0  0  0  0  0  0
    3.3151    2.5335    2.0697 H   0  0  0  0  0  0  0  0  0  0  0  0
    2.2596    3.4180    0.9303 H   0  0  0  0  0  0  0  0  0  0  0  0
    6.3180    2.8343    0.0492 H   0  0  0  0  0  0  0  0  0  0  0  0
    4.3363    0.3379    2.4584 H   0  0  0  0  0  0  0  0  0  0  0  0
    4.6678   -2.1169    2.7693 H   0  0  0  0  0  0  0  0  0  0  0  0
    3.3867   -3.7394    1.3863 H   0  0  0  0  0  0  0  0  0  0  0  0
    1.7755   -2.9279   -0.3352 H   0  0  0  0  0  0  0  0  0  0  0  0
  1  2  1  0
  2  3  1  0
  3  4  1  0
  4  5  1  0
  5  6  1  0
  6  7  2  0
  7  8  1  0
  8  9  1  0
  9 10  2  0
  9 11  1  0
  7 12  1  0
 12 13  2  0
 13 14  1  0
 14 15  2  0
 15 16  1  0
 16 17  2  0
 17 18  1  0
 18 19  1  0
  3 20  2  0
 20 21  1  0
 21 22  1  0
 22 23  2  0
 22 24  1  0
 20 25  1  0
 25 26  2  0
 26 27  1  0
 27 28  2  0
 28 29  1  0
 29 30  2  0
 30  2  1  0
 18  6  1  0
 30 25  1  0
 17 12  1  0
  1 31  1  0
  1 32  1  0
  1 33  1  0
  8 34  1  0
  8 35  1  0
 11 36  1  0
 13 37  1  0
 14 38  1  0
 15 39  1  0
 16 40  1  0
 19 41  1  0
 19 42  1  0
 19 43  1  0
 21 44  1  0
 21 45  1  0
 24 46  1  0
 26 47  1  0
 27 48  1  0
 28 49  1  0
 29 50  1  0
M  END
$$$$
