
     RDKit          3D

 34 36  0  0  0  0  0  0  0  0999 V2000
   -5.6404   -0.4242   -0.0822 C   0  0  0  0  0  0  0  0  0  0  0  0
   -4.8934   -0.1104    1.1296 N   0  0  0  0  0  0  0  0  0  0  0  0
   -3.4650   -0.0183    1.1367 C   0  0  0  0  0  0  0  0  0  0  0  0
   -2.8142    0.2760    2.2929 N   0  0  0  0  0  0  0  0  0  0  0  0
   -1.4608    0.3718    2.3320 C   0  0  0  0  0  0  0  0  0  0  0  0
   -0.7142    0.1663    1.1676 C   0  0  0  0  0  0  0  0  0  0  0  0
    0.6752    0.2705    1.1631 C   0  0  0  0  0  0  0  0  0  0  0  0
    1.3801    0.0811   -0.0267 C   0  0  0  0  0  0  0  0  0  0  0  0
    2.8537    0.2160   -0.0284 C   0  0  0  0  0  0  0  0  0  0  0  0
    3.4638    1.3664   -0.5726 C   0  0  0  0  0  0  0  0  0  0  0  0
    2.5083    2.6851   -1.2432 Cl  0  0  0  0  0  0  0  0  0  0  0  0
    4.8579    1.4861   -0.5687 C   0  0  0  0  0  0  0  0  0  0  0  0
    5.6504    0.4728   -0.0272 C   0  0  0  0  0  0  0  0  0  0  0  0
    5.0550   -0.6670    0.5154 C   0  0  0  0  0  0  0  0  0  0  0  0
    3.6623   -0.8023    0.5194 C   0  0  0  0  0  0  0  0  0  0  0  0
    2.9616   -2.2687    1.1976 Cl  0  0  0  0  0  0  0  0  0  0  0  0
    0.6758   -0.2294   -1.2057 C   0  0  0  0  0  0  0  0  0  0  0  0
    1.3185   -0.3882   -2.2815 O   0  0  0  0  0  0  0  0  0  0  0  0
   -0.6936   -0.3607   -1.1881 N   0  0  0  0  0  0  0  0  0  0  0  0
   -1.4227   -0.6620   -2.4330 C   0  0  0  0  0  0  0  0  0  0  0  0
   -1.3942   -0.1443   -0.0256 C   0  0  0  0  0  0  0  0  0  0  0  0
   -2.7542   -0.2244   -0.0053 N   0  0  0  0  0  0  0  0  0  0  0  0
   -5.3334   -1.4196   -0.4668 H   0  0  0  0  0  0  0  0  0  0  0  0
   -6.7282   -0.4447    0.1398 H   0  0  0  0  0  0  0  0  0  0  0  0
   -5.4460    0.3489   -0.8552 H   0  0  0  0  0  0  0  0  0  0  0  0
   -5.4178    0.0516    2.0188 H   0  0  0  0  0  0  0  0  0  0  0  0
   -0.9726    0.6112    3.2686 H   0  0  0  0  0  0  0  0  0  0  0  0
    1.2091    0.5117    2.0758 H   0  0  0  0  0  0  0  0  0  0  0  0
    5.3293    2.3682   -0.9831 H   0  0  0  0  0  0  0  0  0  0  0  0
    6.7282    0.5716   -0.0271 H   0  0  0  0  0  0  0  0  0  0  0  0
    5.6787   -1.4480    0.9315 H   0  0  0  0  0  0  0  0  0  0  0  0
   -2.2912   -1.3259   -2.2340 H   0  0  0  0  0  0  0  0  0  0  0  0
   -1.7820    0.2831   -2.8917 H   0  0  0  0  0  0  0  0  0  0  0  0
   -0.7841   -1.2002   -3.1651 H   0  0  0  0  0  0  0  0  0  0  0  0
  1  2  1  0
  2  3  1  0
  3  4  2  0
  4  5  1  0
  5  6  2  0
  6  7  1  0
  7  8  2  0
  8  9  1  0
  9 10  2  0
 10 11  1  0
 10 12  1  0
 12 13  2  0
 13 14  1  0
 14 15  2  0
 15 16  1  0
  8 17  1  0
 17 18  2  0
 17 19  1  0
 19 20  1  0
 19 21  1  0
 21 22  2  0
 22  3  1  0
 21  6  1  0
 15  9  1  0
  1 23  1  0
  1 24  1  0
  1 25  1  0
  2 26  1  0
  5 27  1  0
  7 28  1  0
 12 29  1  0
 13 30  1  0
 14 31  1  0
 20 32  1  0
 20 33  1  0
 20 34  1  0
M  END
$$$$
