
     RDKit          3D

 21 21  0  0  0  0  0  0  0  0999 V2000
    3.1014    0.7161   -2.1736 N   0  0  0  0  0  0  0  0  0  0  0  0
    3.1081    0.2337   -1.1216 C   0  0  0  0  0  0  0  0  0  0  0  0
    3.1185   -0.3663    0.1897 C   0  0  0  0  0  0  0  0  0  0  0  0
    4.3960   -0.6972    0.7637 C   0  0  0  0  0  0  0  0  0  0  0  0
    5.4234   -0.9634    1.2253 N   0  0  0  0  0  0  0  0  0  0  0  0
    2.0015   -0.5489    0.9141 C   0  0  0  0  0  0  0  0  0  0  0  0
    0.6297   -0.2414    0.4463 C   0  0  0  0  0  0  0  0  0  0  0  0
   -0.2662    0.3793    1.3280 C   0  0  0  0  0  0  0  0  0  0  0  0
   -1.5771    0.6563    0.9295 C   0  0  0  0  0  0  0  0  0  0  0  0
   -2.0224    0.2988   -0.3553 C   0  0  0  0  0  0  0  0  0  0  0  0
   -3.4088    0.5898   -0.7823 C   0  0  0  0  0  0  0  0  0  0  0  0
   -4.2106    1.1673    0.0009 O   0  0  0  0  0  0  0  0  0  0  0  0
   -3.8415    0.2284   -2.0557 O   0  0  0  0  0  0  0  0  0  0  0  0
   -1.1325   -0.3500   -1.2277 C   0  0  0  0  0  0  0  0  0  0  0  0
    0.1784   -0.6258   -0.8280 C   0  0  0  0  0  0  0  0  0  0  0  0
    2.0996   -0.8938    1.9383 H   0  0  0  0  0  0  0  0  0  0  0  0
    0.0539    0.6605    2.3241 H   0  0  0  0  0  0  0  0  0  0  0  0
   -2.2419    1.1481    1.6287 H   0  0  0  0  0  0  0  0  0  0  0  0
   -4.7885    0.4232   -2.3582 H   0  0  0  0  0  0  0  0  0  0  0  0
   -1.4505   -0.6541   -2.2170 H   0  0  0  0  0  0  0  0  0  0  0  0
    0.8295   -1.1609   -1.5071 H   0  0  0  0  0  0  0  0  0  0  0  0
  1  2  3  0
  2  3  1  0
  3  4  1  0
  4  5  3  0
  3  6  2  3
  6  7  1  0
  7  8  2  0
  8  9  1  0
  9 10  2  0
 10 11  1  0
 11 12  2  0
 11 13  1  0
 10 14  1  0
 14 15  2  0
 15  7  1  0
  6 16  1  0
  8 17  1  0
  9 18  1  0
 13 19  1  0
 14 20  1  0
 15 21  1  0
M  END
$$$$
