
     RDKit          3D

 25 25  0  0  0  0  0  0  0  0999 V2000
   -3.3090    0.0887   -1.3073 C   0  0  0  0  0  0  0  0  0  0  0  0
   -3.0111   -0.6483   -0.1259 O   0  0  0  0  0  0  0  0  0  0  0  0
   -1.7180   -0.8426    0.3847 C   0  0  0  0  0  0  0  0  0  0  0  0
   -0.5730   -0.3255   -0.2536 C   0  0  0  0  0  0  0  0  0  0  0  0
    0.7051   -0.5248    0.2986 C   0  0  0  0  0  0  0  0  0  0  0  0
    1.9278   -0.0168   -0.3672 C   0  0  0  0  0  0  0  0  0  0  0  0
    2.0770    1.2328   -0.8523 C   0  0  0  0  0  0  0  0  0  0  0  0
    1.0452    2.2322   -0.6898 C   0  0  0  0  0  0  0  0  0  0  0  0
    0.2202    3.0335   -0.5597 N   0  0  0  0  0  0  0  0  0  0  0  0
    3.3377    1.6453   -1.5079 C   0  0  0  0  0  0  0  0  0  0  0  0
    4.2805    0.8235   -1.6715 O   0  0  0  0  0  0  0  0  0  0  0  0
    3.4897    2.9550   -1.9565 O   0  0  0  0  0  0  0  0  0  0  0  0
    0.8352   -1.2895    1.4655 C   0  0  0  0  0  0  0  0  0  0  0  0
   -0.2954   -1.8062    2.1010 C   0  0  0  0  0  0  0  0  0  0  0  0
   -1.5707   -1.5808    1.5674 C   0  0  0  0  0  0  0  0  0  0  0  0
   -2.6994   -2.0928    2.2052 O   0  0  0  0  0  0  0  0  0  0  0  0
   -2.9625    1.1385   -1.2002 H   0  0  0  0  0  0  0  0  0  0  0  0
   -4.4068    0.0914   -1.4656 H   0  0  0  0  0  0  0  0  0  0  0  0
   -2.8246   -0.3866   -2.1863 H   0  0  0  0  0  0  0  0  0  0  0  0
   -0.6688    0.2106   -1.1875 H   0  0  0  0  0  0  0  0  0  0  0  0
    2.7683   -0.7000   -0.4051 H   0  0  0  0  0  0  0  0  0  0  0  0
    4.3454    3.2540   -2.4089 H   0  0  0  0  0  0  0  0  0  0  0  0
    1.8136   -1.4763    1.8916 H   0  0  0  0  0  0  0  0  0  0  0  0
   -0.1794   -2.3838    3.0092 H   0  0  0  0  0  0  0  0  0  0  0  0
   -2.6269   -2.6317    3.0604 H   0  0  0  0  0  0  0  0  0  0  0  0
  1  2  1  0
  2  3  1  0
  3  4  2  0
  4  5  1  0
  5  6  1  0
  6  7  2  0
  7  8  1  0
  8  9  3  0
  7 10  1  0
 10 11  2  0
 10 12  1  0
  5 13  2  0
 13 14  1  0
 14 15  2  0
 15 16  1  0
 15  3  1  0
  1 17  1  0
  1 18  1  0
  1 19  1  0
  4 20  1  0
  6 21  1  0
 12 22  1  0
 13 23  1  0
 14 24  1  0
 16 25  1  0
M  END
$$$$
