
     RDKit          3D

 49 51  0  0  0  0  0  0  0  0999 V2000
    5.9980    0.1506   -1.7429 C   0  0  0  0  0  0  0  0  0  0  0  0
    6.3119   -0.9332   -0.7951 N   0  0  0  0  0  0  0  0  0  0  0  0
    7.7413   -0.8791   -0.4476 C   0  0  0  0  0  0  0  0  0  0  0  0
    5.4890   -0.8207    0.4292 C   0  0  0  0  0  0  0  0  0  0  0  0
    4.0388   -1.2941    0.1803 C   0  0  0  0  0  0  0  0  0  0  0  0
    3.0143   -0.1477    0.2203 C   0  0  0  0  0  0  0  0  0  0  0  0
    2.7014    0.2987    1.6552 C   0  0  0  0  0  0  0  0  0  0  0  0
    1.7434    1.4029    1.6481 N   0  0  0  0  0  0  0  0  0  0  0  0
    0.3425    1.2143    1.3961 C   0  0  0  0  0  0  0  0  0  0  0  0
   -0.5171    2.3185    1.3555 C   0  0  0  0  0  0  0  0  0  0  0  0
   -1.8784    2.1225    1.1111 C   0  0  0  0  0  0  0  0  0  0  0  0
   -2.7165    3.1890    1.0506 N   0  0  0  0  0  0  0  0  0  0  0  0
   -4.0407    3.0230    0.8083 C   0  0  0  0  0  0  0  0  0  0  0  0
   -4.5502    1.7778    0.6291 N   0  0  0  0  0  0  0  0  0  0  0  0
   -3.7623    0.6682    0.6743 C   0  0  0  0  0  0  0  0  0  0  0  0
   -4.3640   -0.6301    0.5290 N   0  0  0  0  0  0  0  0  0  0  0  0
   -5.5391   -0.8731   -0.2640 C   0  0  0  0  0  0  0  0  0  0  0  0
   -6.3925   -1.9359    0.0724 C   0  0  0  0  0  0  0  0  0  0  0  0
   -7.5298   -2.2010   -0.6962 C   0  0  0  0  0  0  0  0  0  0  0  0
   -7.8182   -1.4156   -1.8149 C   0  0  0  0  0  0  0  0  0  0  0  0
   -6.9650   -0.3672   -2.1719 C   0  0  0  0  0  0  0  0  0  0  0  0
   -7.3482    0.6923   -3.7141 Br  0  0  0  0  0  0  0  0  0  0  0  0
   -5.8258   -0.0992   -1.4045 C   0  0  0  0  0  0  0  0  0  0  0  0
   -2.3807    0.8184    0.9200 C   0  0  0  0  0  0  0  0  0  0  0  0
   -1.4792   -0.2597    0.9574 C   0  0  0  0  0  0  0  0  0  0  0  0
   -0.1596   -0.0357    1.1945 N   0  0  0  0  0  0  0  0  0  0  0  0
    6.1506    1.1517   -1.2813 H   0  0  0  0  0  0  0  0  0  0  0  0
    4.9487    0.0657   -2.0934 H   0  0  0  0  0  0  0  0  0  0  0  0
    6.6403    0.0702   -2.6465 H   0  0  0  0  0  0  0  0  0  0  0  0
    8.3650   -0.9698   -1.3632 H   0  0  0  0  0  0  0  0  0  0  0  0
    7.9944    0.0724    0.0720 H   0  0  0  0  0  0  0  0  0  0  0  0
    8.0083   -1.7342    0.2100 H   0  0  0  0  0  0  0  0  0  0  0  0
    5.5259    0.2158    0.8345 H   0  0  0  0  0  0  0  0  0  0  0  0
    5.9100   -1.4772    1.2244 H   0  0  0  0  0  0  0  0  0  0  0  0
    3.9695   -1.8016   -0.8068 H   0  0  0  0  0  0  0  0  0  0  0  0
    3.7584   -2.0601    0.9370 H   0  0  0  0  0  0  0  0  0  0  0  0
    3.3824    0.7197   -0.3688 H   0  0  0  0  0  0  0  0  0  0  0  0
    2.0772   -0.5028   -0.2594 H   0  0  0  0  0  0  0  0  0  0  0  0
    2.2932   -0.5491    2.2474 H   0  0  0  0  0  0  0  0  0  0  0  0
    3.6343    0.6382    2.1532 H   0  0  0  0  0  0  0  0  0  0  0  0
    2.0941    2.3594    1.8829 H   0  0  0  0  0  0  0  0  0  0  0  0
   -0.1302    3.3192    1.5067 H   0  0  0  0  0  0  0  0  0  0  0  0
   -4.6931    3.8840    0.7641 H   0  0  0  0  0  0  0  0  0  0  0  0
   -4.0107   -1.4103    1.1271 H   0  0  0  0  0  0  0  0  0  0  0  0
   -6.1802   -2.5533    0.9363 H   0  0  0  0  0  0  0  0  0  0  0  0
   -8.1871   -3.0170   -0.4252 H   0  0  0  0  0  0  0  0  0  0  0  0
   -8.6995   -1.6263   -2.4069 H   0  0  0  0  0  0  0  0  0  0  0  0
   -5.1600    0.6969   -1.7110 H   0  0  0  0  0  0  0  0  0  0  0  0
   -1.8047   -1.2756    0.7865 H   0  0  0  0  0  0  0  0  0  0  0  0
  1  2  1  0
  2  3  1  0
  2  4  1  0
  4  5  1  0
  5  6  1  0
  6  7  1  0
  7  8  1  0
  8  9  1  0
  9 10  2  0
 10 11  1  0
 11 12  2  0
 12 13  1  0
 13 14  2  0
 14 15  1  0
 15 16  1  0
 16 17  1  0
 17 18  2  0
 18 19  1  0
 19 20  2  0
 20 21  1  0
 21 22  1  0
 21 23  2  0
 15 24  2  0
 24 25  1  0
 25 26  2  0
 26  9  1  0
 24 11  1  0
 23 17  1  0
  1 27  1  0
  1 28  1  0
  1 29  1  0
  3 30  1  0
  3 31  1  0
  3 32  1  0
  4 33  1  0
  4 34  1  0
  5 35  1  0
  5 36  1  0
  6 37  1  0
  6 38  1  0
  7 39  1  0
  7 40  1  0
  8 41  1  0
 10 42  1  0
 13 43  1  0
 16 44  1  0
 18 45  1  0
 19 46  1  0
 20 47  1  0
 23 48  1  0
 25 49  1  0
M  END
$$$$
