
     RDKit          3D

 41 44  0  0  0  0  0  0  0  0999 V2000
   -0.4134    1.4649    1.7205 C   0  0  0  0  0  0  0  0  0  0  0  0
    0.4367    0.6905    0.7987 N   0  0  0  0  0  0  0  0  0  0  0  0
    1.8030    0.6847    0.9594 C   0  0  0  0  0  0  0  0  0  0  0  0
    2.3390    1.3500    1.8898 O   0  0  0  0  0  0  0  0  0  0  0  0
    2.6218   -0.0683    0.0961 C   0  0  0  0  0  0  0  0  0  0  0  0
    4.0944   -0.0678    0.2442 C   0  0  0  0  0  0  0  0  0  0  0  0
    4.7559   -1.1887    0.7896 C   0  0  0  0  0  0  0  0  0  0  0  0
    3.8663   -2.6075    1.3346 Cl  0  0  0  0  0  0  0  0  0  0  0  0
    6.1486   -1.1807    0.9253 C   0  0  0  0  0  0  0  0  0  0  0  0
    6.8892   -0.0686    0.5221 C   0  0  0  0  0  0  0  0  0  0  0  0
    6.2433    1.0433   -0.0202 C   0  0  0  0  0  0  0  0  0  0  0  0
    4.8513    1.0517   -0.1627 C   0  0  0  0  0  0  0  0  0  0  0  0
    4.0881    2.4683   -0.8784 Cl  0  0  0  0  0  0  0  0  0  0  0  0
    2.0331   -0.8352   -0.9111 C   0  0  0  0  0  0  0  0  0  0  0  0
    0.6465   -0.8526   -1.0457 C   0  0  0  0  0  0  0  0  0  0  0  0
    0.0139   -1.6222   -2.0270 C   0  0  0  0  0  0  0  0  0  0  0  0
   -1.3407   -1.6229   -2.1166 N   0  0  0  0  0  0  0  0  0  0  0  0
   -2.1033   -0.8909   -1.2620 C   0  0  0  0  0  0  0  0  0  0  0  0
   -3.5309   -0.8958   -1.4053 N   0  0  0  0  0  0  0  0  0  0  0  0
   -4.4391   -0.3166   -0.4528 C   0  0  0  0  0  0  0  0  0  0  0  0
   -5.6196    0.2910   -0.9086 C   0  0  0  0  0  0  0  0  0  0  0  0
   -6.5262    0.8461   -0.0001 C   0  0  0  0  0  0  0  0  0  0  0  0
   -6.2688    0.7851    1.3718 C   0  0  0  0  0  0  0  0  0  0  0  0
   -5.1090    0.1606    1.8375 C   0  0  0  0  0  0  0  0  0  0  0  0
   -4.2000   -0.3959    0.9323 C   0  0  0  0  0  0  0  0  0  0  0  0
   -1.5021   -0.1240   -0.3126 N   0  0  0  0  0  0  0  0  0  0  0  0
   -0.1479   -0.0835   -0.1747 C   0  0  0  0  0  0  0  0  0  0  0  0
   -0.7834    0.8022    2.5311 H   0  0  0  0  0  0  0  0  0  0  0  0
   -1.2812    1.9054    1.1843 H   0  0  0  0  0  0  0  0  0  0  0  0
    0.1368    2.3175    2.1718 H   0  0  0  0  0  0  0  0  0  0  0  0
    6.6590   -2.0374    1.3468 H   0  0  0  0  0  0  0  0  0  0  0  0
    7.9662   -0.0688    0.6296 H   0  0  0  0  0  0  0  0  0  0  0  0
    6.8274    1.8993   -0.3338 H   0  0  0  0  0  0  0  0  0  0  0  0
    2.6553   -1.4209   -1.5790 H   0  0  0  0  0  0  0  0  0  0  0  0
    0.5918   -2.2220   -2.7190 H   0  0  0  0  0  0  0  0  0  0  0  0
   -3.9245   -1.2624   -2.3016 H   0  0  0  0  0  0  0  0  0  0  0  0
   -5.8302    0.3439   -1.9694 H   0  0  0  0  0  0  0  0  0  0  0  0
   -7.4292    1.3221   -0.3599 H   0  0  0  0  0  0  0  0  0  0  0  0
   -6.9722    1.2136    2.0741 H   0  0  0  0  0  0  0  0  0  0  0  0
   -4.9185    0.0993    2.9013 H   0  0  0  0  0  0  0  0  0  0  0  0
   -3.3275   -0.9071    1.3166 H   0  0  0  0  0  0  0  0  0  0  0  0
  1  2  1  0
  2  3  1  0
  3  4  2  0
  3  5  1  0
  5  6  1  0
  6  7  2  0
  7  8  1  0
  7  9  1  0
  9 10  2  0
 10 11  1  0
 11 12  2  0
 12 13  1  0
  5 14  2  0
 14 15  1  0
 15 16  2  0
 16 17  1  0
 17 18  2  0
 18 19  1  0
 19 20  1  0
 20 21  2  0
 21 22  1  0
 22 23  2  0
 23 24  1  0
 24 25  2  0
 18 26  1  0
 26 27  2  0
 27  2  1  0
 12  6  1  0
 27 15  1  0
 25 20  1  0
  1 28  1  0
  1 29  1  0
  1 30  1  0
  9 31  1  0
 10 32  1  0
 11 33  1  0
 14 34  1  0
 16 35  1  0
 19 36  1  0
 21 37  1  0
 22 38  1  0
 23 39  1  0
 24 40  1  0
 25 41  1  0
M  END
$$$$
