
     RDKit          3D

 62 69  0  0  0  0  0  0  0  0999 V2000
   -5.1041   -2.3018   -0.6723 C   0  0  0  0  0  0  0  0  0  0  0  0
   -4.1504   -1.2373   -0.9889 N   0  0  0  0  0  0  0  0  0  0  0  0
   -3.1895   -1.0136    0.1102 C   0  0  1  0  0  0  0  0  0  0  0  0
   -1.9907   -1.9637    0.0268 C   0  0  0  0  0  0  0  0  0  0  0  0
   -1.0009   -1.6832    1.1762 C   0  0  2  0  0  0  0  0  0  0  0  0
   -1.2832   -0.5369    1.9561 O   0  0  0  0  0  0  0  0  0  0  0  0
   -1.6393    0.6560    1.2561 C   0  0  2  0  0  0  0  0  0  0  0  0
   -2.3218    1.4919    2.3725 C   0  0  0  0  0  0  0  0  0  0  0  0
   -2.6520    0.4251    0.0660 C   0  0  1  0  0  0  0  0  0  0  0  0
   -1.9944    0.6463   -1.1805 O   0  0  0  0  0  0  0  0  0  0  0  0
   -2.7633    1.4625   -2.0406 C   0  0  0  0  0  0  0  0  0  0  0  0
   -0.4096    1.3503    0.7780 N   0  0  0  0  0  0  0  0  0  0  0  0
   -0.2445    2.6669    0.4416 C   0  0  0  0  0  0  0  0  0  0  0  0
   -1.2311    3.6600    0.3201 C   0  0  0  0  0  0  0  0  0  0  0  0
   -0.8582    4.9402   -0.1124 C   0  0  0  0  0  0  0  0  0  0  0  0
    0.4735    5.2134   -0.4627 C   0  0  0  0  0  0  0  0  0  0  0  0
    1.4448    4.2060   -0.3973 C   0  0  0  0  0  0  0  0  0  0  0  0
    1.0664    2.9437    0.0722 C   0  0  0  0  0  0  0  0  0  0  0  0
    1.7512    1.7453    0.1324 C   0  0  0  0  0  0  0  0  0  0  0  0
    3.0700    1.3555   -0.2031 C   0  0  0  0  0  0  0  0  0  0  0  0
    3.4099    0.0045   -0.2323 C   0  0  0  0  0  0  0  0  0  0  0  0
    2.4380   -0.9543    0.0855 C   0  0  0  0  0  0  0  0  0  0  0  0
    2.4468   -2.3344    0.0716 C   0  0  0  0  0  0  0  0  0  0  0  0
    3.4358   -3.2601   -0.2663 C   0  0  0  0  0  0  0  0  0  0  0  0
    3.1107   -4.6255   -0.1973 C   0  0  0  0  0  0  0  0  0  0  0  0
    1.8200   -5.0350    0.1968 C   0  0  0  0  0  0  0  0  0  0  0  0
    0.8373   -4.0845    0.5243 C   0  0  0  0  0  0  0  0  0  0  0  0
    1.1786   -2.7294    0.4533 C   0  0  0  0  0  0  0  0  0  0  0  0
    0.3847   -1.6588    0.7121 N   0  0  0  0  0  0  0  0  0  0  0  0
    1.1570   -0.5742    0.4773 C   0  0  0  0  0  0  0  0  0  0  0  0
    0.8058    0.7900    0.5197 C   0  0  0  0  0  0  0  0  0  0  0  0
    4.8512   -0.1900   -0.6245 C   0  0  2  0  0  0  0  0  0  0  0  0
    5.5790   -0.8195    0.3973 O   0  0  0  0  0  0  0  0  0  0  0  0
    5.3346    1.1745   -0.8303 N   0  0  0  0  0  0  0  0  0  0  0  0
    4.2829    2.0845   -0.5380 C   0  0  0  0  0  0  0  0  0  0  0  0
    4.4542    3.3270   -0.4689 O   0  0  0  0  0  0  0  0  0  0  0  0
   -5.7089   -2.0252    0.2191 H   0  0  0  0  0  0  0  0  0  0  0  0
   -4.5843   -3.2674   -0.4894 H   0  0  0  0  0  0  0  0  0  0  0  0
   -5.7979   -2.4359   -1.5293 H   0  0  0  0  0  0  0  0  0  0  0  0
   -3.6464   -1.4964   -1.8681 H   0  0  0  0  0  0  0  0  0  0  0  0
   -3.6990   -1.1535    1.0948 H   0  0  0  0  0  0  0  0  0  0  0  0
   -2.3386   -3.0196    0.0884 H   0  0  0  0  0  0  0  0  0  0  0  0
   -1.4773   -1.8492   -0.9568 H   0  0  0  0  0  0  0  0  0  0  0  0
   -1.0992   -2.5340    1.8856 H   0  0  0  0  0  0  0  0  0  0  0  0
   -3.0039    2.2829    2.0179 H   0  0  0  0  0  0  0  0  0  0  0  0
   -2.9618    0.8332    2.9980 H   0  0  0  0  0  0  0  0  0  0  0  0
   -1.5571    1.9469    3.0365 H   0  0  0  0  0  0  0  0  0  0  0  0
   -3.5375    1.0961    0.1977 H   0  0  0  0  0  0  0  0  0  0  0  0
   -3.7662    1.0256   -2.2354 H   0  0  0  0  0  0  0  0  0  0  0  0
   -2.8715    2.4881   -1.6294 H   0  0  0  0  0  0  0  0  0  0  0  0
   -2.2362    1.5442   -3.0141 H   0  0  0  0  0  0  0  0  0  0  0  0
   -2.2754    3.4656    0.4708 H   0  0  0  0  0  0  0  0  0  0  0  0
   -1.6103    5.7126   -0.2146 H   0  0  0  0  0  0  0  0  0  0  0  0
    0.7422    6.1972   -0.8248 H   0  0  0  0  0  0  0  0  0  0  0  0
    2.4345    4.4211   -0.7508 H   0  0  0  0  0  0  0  0  0  0  0  0
    4.4218   -2.9528   -0.5802 H   0  0  0  0  0  0  0  0  0  0  0  0
    3.8551   -5.3685   -0.4538 H   0  0  0  0  0  0  0  0  0  0  0  0
    1.5826   -6.0899    0.2429 H   0  0  0  0  0  0  0  0  0  0  0  0
   -0.1542   -4.4061    0.8132 H   0  0  0  0  0  0  0  0  0  0  0  0
    4.9308   -0.7680   -1.5682 H   0  0  0  0  0  0  0  0  0  0  0  0
    5.5448   -0.2300    1.1959 H   0  0  0  0  0  0  0  0  0  0  0  0
    6.3146    1.4413   -1.0767 H   0  0  0  0  0  0  0  0  0  0  0  0
  1  2  1  0
  2  3  1  0
  3  4  1  0
  4  5  1  0
  5  6  1  0
  6  7  1  0
  7  8  1  1
  7  9  1  0
  9 10  1  0
 10 11  1  0
  7 12  1  0
 12 13  1  0
 13 14  2  0
 14 15  1  0
 15 16  2  0
 16 17  1  0
 17 18  2  0
 18 19  1  0
 19 20  2  0
 20 21  1  0
 21 22  2  0
 22 23  1  0
 23 24  2  0
 24 25  1  0
 25 26  2  0
 26 27  1  0
 27 28  2  0
 28 29  1  0
 29 30  1  0
 30 31  2  0
 21 32  1  0
 32 33  1  0
 32 34  1  0
 34 35  1  0
 35 36  2  0
  9  3  1  0
 31 12  1  0
 29  5  1  0
 18 13  1  0
 31 19  1  0
 35 20  1  0
 30 22  1  0
 28 23  1  0
  1 37  1  0
  1 38  1  0
  1 39  1  0
  2 40  1  0
  3 41  1  1
  4 42  1  0
  4 43  1  0
  5 44  1  1
  8 45  1  0
  8 46  1  0
  8 47  1  0
  9 48  1  1
 11 49  1  0
 11 50  1  0
 11 51  1  0
 14 52  1  0
 15 53  1  0
 16 54  1  0
 17 55  1  0
 24 56  1  0
 25 57  1  0
 26 58  1  0
 27 59  1  0
 32 60  1  6
 33 61  1  0
 34 62  1  0
M  END
$$$$
