
     RDKit          3D

 29 31  0  0  0  0  0  0  0  0999 V2000
   -4.1508    2.7002   -0.9568 Br  0  0  0  0  0  0  0  0  0  0  0  0
   -3.6187    0.9541   -0.3949 C   0  0  0  0  0  0  0  0  0  0  0  0
   -4.5866    0.0012   -0.0637 C   0  0  0  0  0  0  0  0  0  0  0  0
   -4.1976   -1.2717    0.3602 C   0  0  0  0  0  0  0  0  0  0  0  0
   -2.8409   -1.5976    0.4477 C   0  0  0  0  0  0  0  0  0  0  0  0
   -1.8599   -0.6554    0.1005 C   0  0  0  0  0  0  0  0  0  0  0  0
   -0.4693   -1.0062    0.2157 N   0  0  0  0  0  0  0  0  0  0  0  0
    0.5832   -0.3559   -0.5185 C   0  0  0  0  0  0  0  0  0  0  0  0
    0.4277   -0.1167   -1.8928 C   0  0  0  0  0  0  0  0  0  0  0  0
    1.4640    0.4679   -2.6202 C   0  0  0  0  0  0  0  0  0  0  0  0
    2.6286    0.7979   -2.0060 N   0  0  0  0  0  0  0  0  0  0  0  0
    2.8264    0.5783   -0.6792 C   0  0  0  0  0  0  0  0  0  0  0  0
    4.0443    0.9385   -0.0912 C   0  0  0  0  0  0  0  0  0  0  0  0
    4.2535    0.7279    1.2734 C   0  0  0  0  0  0  0  0  0  0  0  0
    3.2466    0.1616    2.0580 C   0  0  0  0  0  0  0  0  0  0  0  0
    2.0254   -0.2034    1.4831 C   0  0  0  0  0  0  0  0  0  0  0  0
    1.8026   -0.0088    0.1055 C   0  0  0  0  0  0  0  0  0  0  0  0
   -2.2599    0.6312   -0.3080 C   0  0  0  0  0  0  0  0  0  0  0  0
   -5.6385    0.2480   -0.1287 H   0  0  0  0  0  0  0  0  0  0  0  0
   -4.9478   -2.0065    0.6225 H   0  0  0  0  0  0  0  0  0  0  0  0
   -2.5532   -2.5876    0.7787 H   0  0  0  0  0  0  0  0  0  0  0  0
   -0.2132   -1.8182    0.8219 H   0  0  0  0  0  0  0  0  0  0  0  0
   -0.4866   -0.3965   -2.4007 H   0  0  0  0  0  0  0  0  0  0  0  0
    1.3448    0.6526   -3.6794 H   0  0  0  0  0  0  0  0  0  0  0  0
    4.8290    1.3845   -0.6900 H   0  0  0  0  0  0  0  0  0  0  0  0
    5.1962    1.0091    1.7249 H   0  0  0  0  0  0  0  0  0  0  0  0
    3.4112    0.0084    3.1168 H   0  0  0  0  0  0  0  0  0  0  0  0
    1.2623   -0.6240    2.1241 H   0  0  0  0  0  0  0  0  0  0  0  0
   -1.5228    1.3873   -0.5447 H   0  0  0  0  0  0  0  0  0  0  0  0
  1  2  1  0
  2  3  2  0
  3  4  1  0
  4  5  2  0
  5  6  1  0
  6  7  1  0
  7  8  1  0
  8  9  2  0
  9 10  1  0
 10 11  2  0
 11 12  1  0
 12 13  2  0
 13 14  1  0
 14 15  2  0
 15 16  1  0
 16 17  2  0
  6 18  2  0
 18  2  1  0
 17  8  1  0
 17 12  1  0
  3 19  1  0
  4 20  1  0
  5 21  1  0
  7 22  1  0
  9 23  1  0
 10 24  1  0
 13 25  1  0
 14 26  1  0
 15 27  1  0
 16 28  1  0
 18 29  1  0
M  END
$$$$
