
     RDKit          3D

 43 45  0  0  0  0  0  0  0  0999 V2000
    6.5088    2.1322   -0.3466 C   0  0  0  0  0  0  0  0  0  0  0  0
    5.9029    0.9761   -0.8817 O   0  0  0  0  0  0  0  0  0  0  0  0
    5.8917   -0.0653    0.0775 C   0  0  0  0  0  0  0  0  0  0  0  0
    4.5505   -0.1087    0.8054 C   0  0  0  0  0  0  0  0  0  0  0  0
    3.4957   -0.2695   -0.1402 O   0  0  0  0  0  0  0  0  0  0  0  0
    2.1335   -0.3483    0.1898 C   0  0  0  0  0  0  0  0  0  0  0  0
    1.6828   -0.2777    1.5207 C   0  0  0  0  0  0  0  0  0  0  0  0
    0.3191   -0.3620    1.8123 C   0  0  0  0  0  0  0  0  0  0  0  0
   -0.0995   -0.2727    3.1010 N   0  0  0  0  0  0  0  0  0  0  0  0
   -1.4164   -0.3443    3.4151 C   0  0  0  0  0  0  0  0  0  0  0  0
   -2.3409   -0.5171    2.4377 N   0  0  0  0  0  0  0  0  0  0  0  0
   -1.9874   -0.6121    1.1265 C   0  0  0  0  0  0  0  0  0  0  0  0
   -3.0073   -0.8506    0.1408 N   0  0  0  0  0  0  0  0  0  0  0  0
   -4.3527   -0.3548    0.2633 C   0  0  0  0  0  0  0  0  0  0  0  0
   -4.6228    0.8537    0.9328 C   0  0  0  0  0  0  0  0  0  0  0  0
   -5.9324    1.3338    1.0250 C   0  0  0  0  0  0  0  0  0  0  0  0
   -6.9837    0.6207    0.4421 C   0  0  0  0  0  0  0  0  0  0  0  0
   -8.6260    1.2259    0.5579 Cl  0  0  0  0  0  0  0  0  0  0  0  0
   -6.7234   -0.5716   -0.2399 C   0  0  0  0  0  0  0  0  0  0  0  0
   -5.4146   -1.0560   -0.3356 C   0  0  0  0  0  0  0  0  0  0  0  0
   -5.1848   -2.2168   -0.9997 F   0  0  0  0  0  0  0  0  0  0  0  0
   -0.6214   -0.5312    0.7740 C   0  0  0  0  0  0  0  0  0  0  0  0
   -0.1701   -0.5835   -0.5577 C   0  0  0  0  0  0  0  0  0  0  0  0
    1.2054   -0.4973   -0.8517 C   0  0  0  0  0  0  0  0  0  0  0  0
    1.6909   -0.5528   -2.1684 O   0  0  0  0  0  0  0  0  0  0  0  0
    0.8757   -0.7019   -3.3264 C   0  0  0  0  0  0  0  0  0  0  0  0
    6.0004    2.4672    0.5843 H   0  0  0  0  0  0  0  0  0  0  0  0
    7.5910    1.9587   -0.1570 H   0  0  0  0  0  0  0  0  0  0  0  0
    6.4243    2.9519   -1.0892 H   0  0  0  0  0  0  0  0  0  0  0  0
    6.0272   -1.0280   -0.4598 H   0  0  0  0  0  0  0  0  0  0  0  0
    6.7238   -0.0021    0.8189 H   0  0  0  0  0  0  0  0  0  0  0  0
    4.5522   -0.9663    1.5125 H   0  0  0  0  0  0  0  0  0  0  0  0
    4.4048    0.8329    1.3767 H   0  0  0  0  0  0  0  0  0  0  0  0
    2.3836   -0.1540    2.3358 H   0  0  0  0  0  0  0  0  0  0  0  0
   -1.7298   -0.2709    4.4472 H   0  0  0  0  0  0  0  0  0  0  0  0
   -2.7983   -1.5174   -0.6354 H   0  0  0  0  0  0  0  0  0  0  0  0
   -3.8212    1.4360    1.3679 H   0  0  0  0  0  0  0  0  0  0  0  0
   -6.1275    2.2638    1.5438 H   0  0  0  0  0  0  0  0  0  0  0  0
   -7.5351   -1.1232   -0.6970 H   0  0  0  0  0  0  0  0  0  0  0  0
   -0.8783   -0.6734   -1.3670 H   0  0  0  0  0  0  0  0  0  0  0  0
    1.5243   -0.7199   -4.2259 H   0  0  0  0  0  0  0  0  0  0  0  0
    0.3116   -1.6572   -3.2761 H   0  0  0  0  0  0  0  0  0  0  0  0
    0.1736    0.1543   -3.4122 H   0  0  0  0  0  0  0  0  0  0  0  0
  1  2  1  0
  2  3  1  0
  3  4  1  0
  4  5  1  0
  5  6  1  0
  6  7  2  0
  7  8  1  0
  8  9  2  0
  9 10  1  0
 10 11  2  0
 11 12  1  0
 12 13  1  0
 13 14  1  0
 14 15  2  0
 15 16  1  0
 16 17  2  0
 17 18  1  0
 17 19  1  0
 19 20  2  0
 20 21  1  0
 12 22  2  0
 22 23  1  0
 23 24  2  0
 24 25  1  0
 25 26  1  0
 24  6  1  0
 22  8  1  0
 20 14  1  0
  1 27  1  0
  1 28  1  0
  1 29  1  0
  3 30  1  0
  3 31  1  0
  4 32  1  0
  4 33  1  0
  7 34  1  0
 10 35  1  0
 13 36  1  0
 15 37  1  0
 16 38  1  0
 19 39  1  0
 23 40  1  0
 26 41  1  0
 26 42  1  0
 26 43  1  0
M  END
$$$$
