
     RDKit          3D

 66 73  0  0  0  0  0  0  0  0999 V2000
   -3.0522   -2.6184    0.4600 C   0  0  0  0  0  0  0  0  0  0  0  0
   -2.0044   -1.6825    0.2914 O   0  0  0  0  0  0  0  0  0  0  0  0
   -2.1197   -0.9876   -0.9426 C   0  0  1  0  0  0  0  0  0  0  0  0
   -2.6894    0.4330   -0.7095 C   0  0  1  0  0  0  0  0  0  0  0  0
   -3.8194    0.4702    0.2509 N   0  0  0  0  0  0  0  0  0  0  0  0
   -5.1879    0.4901   -0.2846 C   0  0  0  0  0  0  0  0  0  0  0  0
   -3.6343    0.5192    1.6894 C   0  0  0  0  0  0  0  0  0  0  0  0
   -4.7477    0.9359    2.6040 C   0  0  0  0  0  0  0  0  0  0  0  0
   -2.5378    0.1786    2.2078 O   0  0  0  0  0  0  0  0  0  0  0  0
   -1.5641    1.3880   -0.3367 C   0  0  0  0  0  0  0  0  0  0  0  0
   -0.5916    1.4839   -1.5221 C   0  0  2  0  0  0  0  0  0  0  0  0
   -0.5153    0.3236   -2.3337 O   0  0  0  0  0  0  0  0  0  0  0  0
   -0.7101   -0.9274   -1.6757 C   0  0  2  0  0  0  0  0  0  0  0  0
   -0.7067   -1.9341   -2.8533 C   0  0  0  0  0  0  0  0  0  0  0  0
    0.4391   -1.2438   -0.7590 N   0  0  0  0  0  0  0  0  0  0  0  0
    0.8039   -2.4705   -0.2542 C   0  0  0  0  0  0  0  0  0  0  0  0
    0.1110   -3.6922   -0.3206 C   0  0  0  0  0  0  0  0  0  0  0  0
    0.6805   -4.8340    0.2659 C   0  0  0  0  0  0  0  0  0  0  0  0
    1.9252   -4.7605    0.9134 C   0  0  0  0  0  0  0  0  0  0  0  0
    2.6110   -3.5419    0.9888 C   0  0  0  0  0  0  0  0  0  0  0  0
    2.0249   -2.4188    0.4000 C   0  0  0  0  0  0  0  0  0  0  0  0
    2.4516   -1.1198    0.3273 C   0  0  0  0  0  0  0  0  0  0  0  0
    3.6049   -0.4783    0.8123 C   0  0  0  0  0  0  0  0  0  0  0  0
    3.7635    0.8917    0.6150 C   0  0  0  0  0  0  0  0  0  0  0  0
    2.7547    1.6249   -0.0455 C   0  0  0  0  0  0  0  0  0  0  0  0
    2.5281    2.9770   -0.2810 C   0  0  0  0  0  0  0  0  0  0  0  0
    3.2506    4.1311    0.0388 C   0  0  0  0  0  0  0  0  0  0  0  0
    2.6950    5.3784   -0.2909 C   0  0  0  0  0  0  0  0  0  0  0  0
    1.4334    5.4600   -0.9100 C   0  0  0  0  0  0  0  0  0  0  0  0
    0.7108    4.2948   -1.2087 C   0  0  0  0  0  0  0  0  0  0  0  0
    1.2852    3.0587   -0.8903 C   0  0  0  0  0  0  0  0  0  0  0  0
    0.7414    1.8299   -1.0586 N   0  0  0  0  0  0  0  0  0  0  0  0
    1.6271    0.9626   -0.5398 C   0  0  0  0  0  0  0  0  0  0  0  0
    1.4673   -0.4253   -0.3675 C   0  0  0  0  0  0  0  0  0  0  0  0
    5.0386    1.2400    1.2137 C   0  0  0  0  0  0  0  0  0  0  0  0
    5.5964    2.3652    1.1966 O   0  0  0  0  0  0  0  0  0  0  0  0
    5.6369    0.0882    1.7896 N   0  0  0  0  0  0  0  0  0  0  0  0
    4.7649   -1.0614    1.5672 C   0  0  0  0  0  0  0  0  0  0  0  0
   -4.0403   -2.1179    0.5134 H   0  0  0  0  0  0  0  0  0  0  0  0
   -2.8940   -3.1566    1.4166 H   0  0  0  0  0  0  0  0  0  0  0  0
   -3.0640   -3.3738   -0.3552 H   0  0  0  0  0  0  0  0  0  0  0  0
   -2.8513   -1.4758   -1.6349 H   0  0  0  0  0  0  0  0  0  0  0  0
   -3.0663    0.7907   -1.6969 H   0  0  0  0  0  0  0  0  0  0  0  0
   -5.2064    0.2923   -1.3772 H   0  0  0  0  0  0  0  0  0  0  0  0
   -5.7975   -0.3003    0.2015 H   0  0  0  0  0  0  0  0  0  0  0  0
   -5.6514    1.4816   -0.1008 H   0  0  0  0  0  0  0  0  0  0  0  0
   -5.1804    1.8984    2.2610 H   0  0  0  0  0  0  0  0  0  0  0  0
   -4.3690    1.0745    3.6392 H   0  0  0  0  0  0  0  0  0  0  0  0
   -5.5359    0.1551    2.6179 H   0  0  0  0  0  0  0  0  0  0  0  0
   -1.0176    1.0190    0.5555 H   0  0  0  0  0  0  0  0  0  0  0  0
   -1.9730    2.3956   -0.1033 H   0  0  0  0  0  0  0  0  0  0  0  0
   -0.9646    2.2891   -2.1887 H   0  0  0  0  0  0  0  0  0  0  0  0
    0.3337   -2.1467   -3.1808 H   0  0  0  0  0  0  0  0  0  0  0  0
   -1.2202   -2.8854   -2.6304 H   0  0  0  0  0  0  0  0  0  0  0  0
   -1.2521   -1.5066   -3.7232 H   0  0  0  0  0  0  0  0  0  0  0  0
   -0.8547   -3.7899   -0.7719 H   0  0  0  0  0  0  0  0  0  0  0  0
    0.1527   -5.7781    0.2252 H   0  0  0  0  0  0  0  0  0  0  0  0
    2.3526   -5.6480    1.3618 H   0  0  0  0  0  0  0  0  0  0  0  0
    3.5640   -3.4922    1.4931 H   0  0  0  0  0  0  0  0  0  0  0  0
    4.2017    4.1015    0.5345 H   0  0  0  0  0  0  0  0  0  0  0  0
    3.2364    6.2858   -0.0562 H   0  0  0  0  0  0  0  0  0  0  0  0
    1.0133    6.4285   -1.1484 H   0  0  0  0  0  0  0  0  0  0  0  0
   -0.2657    4.3703   -1.6658 H   0  0  0  0  0  0  0  0  0  0  0  0
    6.5628    0.0623    2.2713 H   0  0  0  0  0  0  0  0  0  0  0  0
    5.2898   -1.8238    0.9539 H   0  0  0  0  0  0  0  0  0  0  0  0
    4.4321   -1.4783    2.5409 H   0  0  0  0  0  0  0  0  0  0  0  0
  1  2  1  0
  2  3  1  0
  3  4  1  0
  4  5  1  0
  5  6  1  0
  5  7  1  0
  7  8  1  0
  7  9  2  0
  4 10  1  0
 10 11  1  0
 11 12  1  0
 12 13  1  0
 13 14  1  6
 13 15  1  0
 15 16  1  0
 16 17  2  0
 17 18  1  0
 18 19  2  0
 19 20  1  0
 20 21  2  0
 21 22  1  0
 22 23  2  0
 23 24  1  0
 24 25  2  0
 25 26  1  0
 26 27  2  0
 27 28  1  0
 28 29  2  0
 29 30  1  0
 30 31  2  0
 31 32  1  0
 32 33  1  0
 33 34  2  0
 24 35  1  0
 35 36  2  0
 35 37  1  0
 37 38  1  0
 13  3  1  0
 34 15  1  0
 32 11  1  0
 21 16  1  0
 34 22  1  0
 38 23  1  0
 33 25  1  0
 31 26  1  0
  1 39  1  0
  1 40  1  0
  1 41  1  0
  3 42  1  6
  4 43  1  6
  6 44  1  0
  6 45  1  0
  6 46  1  0
  8 47  1  0
  8 48  1  0
  8 49  1  0
 10 50  1  0
 10 51  1  0
 11 52  1  6
 14 53  1  0
 14 54  1  0
 14 55  1  0
 17 56  1  0
 18 57  1  0
 19 58  1  0
 20 59  1  0
 27 60  1  0
 28 61  1  0
 29 62  1  0
 30 63  1  0
 37 64  1  0
 38 65  1  0
 38 66  1  0
M  END
$$$$
