
     RDKit          3D

 38 40  0  0  0  0  0  0  0  0999 V2000
   -2.6745   -4.5945   -0.7878 C   0  0  0  0  0  0  0  0  0  0  0  0
   -2.4147   -3.4763    0.0547 O   0  0  0  0  0  0  0  0  0  0  0  0
   -1.7728   -2.2985   -0.3606 C   0  0  0  0  0  0  0  0  0  0  0  0
   -1.3237   -2.1197   -1.6819 C   0  0  0  0  0  0  0  0  0  0  0  0
   -0.6822   -0.9371   -2.0594 C   0  0  0  0  0  0  0  0  0  0  0  0
   -0.2702   -0.7783   -3.3445 N   0  0  0  0  0  0  0  0  0  0  0  0
    0.3488    0.3532   -3.7664 C   0  0  0  0  0  0  0  0  0  0  0  0
    0.5921    1.3991   -2.8717 C   0  0  0  0  0  0  0  0  0  0  0  0
    1.2703    2.5839   -3.3371 C   0  0  0  0  0  0  0  0  0  0  0  0
    1.8147    3.5347   -3.7097 N   0  0  0  0  0  0  0  0  0  0  0  0
    0.1996    1.2676   -1.5270 C   0  0  0  0  0  0  0  0  0  0  0  0
    0.4747    2.3336   -0.6012 N   0  0  0  0  0  0  0  0  0  0  0  0
    1.3767    2.2072    0.5142 C   0  0  0  0  0  0  0  0  0  0  0  0
    1.4455    3.2392    1.4634 C   0  0  0  0  0  0  0  0  0  0  0  0
    2.3059    3.1366    2.5604 C   0  0  0  0  0  0  0  0  0  0  0  0
    3.1089    2.0046    2.7178 C   0  0  0  0  0  0  0  0  0  0  0  0
    3.0569    0.9740    1.7748 C   0  0  0  0  0  0  0  0  0  0  0  0
    4.1578   -0.5719    1.9881 Br  0  0  0  0  0  0  0  0  0  0  0  0
    2.1990    1.0745    0.6742 C   0  0  0  0  0  0  0  0  0  0  0  0
   -0.4699    0.0908   -1.1142 C   0  0  0  0  0  0  0  0  0  0  0  0
   -0.9433   -0.0822    0.1993 C   0  0  0  0  0  0  0  0  0  0  0  0
   -1.5833   -1.2768    0.5817 C   0  0  0  0  0  0  0  0  0  0  0  0
   -2.0453   -1.4868    1.8912 O   0  0  0  0  0  0  0  0  0  0  0  0
   -1.8994   -0.5558    2.9590 C   0  0  0  0  0  0  0  0  0  0  0  0
   -3.1886   -5.3807   -0.1980 H   0  0  0  0  0  0  0  0  0  0  0  0
   -1.7207   -5.0090   -1.1773 H   0  0  0  0  0  0  0  0  0  0  0  0
   -3.3336   -4.2936   -1.6294 H   0  0  0  0  0  0  0  0  0  0  0  0
   -1.4694   -2.8935   -2.4242 H   0  0  0  0  0  0  0  0  0  0  0  0
    0.6561    0.4333   -4.8017 H   0  0  0  0  0  0  0  0  0  0  0  0
    0.0781    3.2759   -0.8189 H   0  0  0  0  0  0  0  0  0  0  0  0
    0.8253    4.1203    1.3569 H   0  0  0  0  0  0  0  0  0  0  0  0
    2.3486    3.9348    3.2901 H   0  0  0  0  0  0  0  0  0  0  0  0
    3.7717    1.9300    3.5702 H   0  0  0  0  0  0  0  0  0  0  0  0
    2.1812    0.2712   -0.0502 H   0  0  0  0  0  0  0  0  0  0  0  0
   -0.8222    0.7095    0.9234 H   0  0  0  0  0  0  0  0  0  0  0  0
   -2.4349    0.3871    2.7196 H   0  0  0  0  0  0  0  0  0  0  0  0
   -2.3396   -0.9892    3.8802 H   0  0  0  0  0  0  0  0  0  0  0  0
   -0.8234   -0.3496    3.1420 H   0  0  0  0  0  0  0  0  0  0  0  0
  1  2  1  0
  2  3  1  0
  3  4  2  0
  4  5  1  0
  5  6  2  0
  6  7  1  0
  7  8  2  0
  8  9  1  0
  9 10  3  0
  8 11  1  0
 11 12  1  0
 12 13  1  0
 13 14  2  0
 14 15  1  0
 15 16  2  0
 16 17  1  0
 17 18  1  0
 17 19  2  0
 11 20  2  0
 20 21  1  0
 21 22  2  0
 22 23  1  0
 23 24  1  0
 22  3  1  0
 20  5  1  0
 19 13  1  0
  1 25  1  0
  1 26  1  0
  1 27  1  0
  4 28  1  0
  7 29  1  0
 12 30  1  0
 14 31  1  0
 15 32  1  0
 16 33  1  0
 19 34  1  0
 21 35  1  0
 24 36  1  0
 24 37  1  0
 24 38  1  0
M  END
$$$$
