
     RDKit          3D

 31 33  0  0  0  0  0  0  0  0999 V2000
   -5.7694    0.6959    1.3970 N   0  0  0  0  0  0  0  0  0  0  0  0
   -5.0852   -0.4980    1.1166 N   0  0  0  0  0  0  0  0  0  0  0  0
   -3.7114   -0.4758    0.7126 C   0  0  0  0  0  0  0  0  0  0  0  0
   -3.0344   -1.6725    0.4498 C   0  0  0  0  0  0  0  0  0  0  0  0
   -1.6941   -1.6320    0.0579 C   0  0  0  0  0  0  0  0  0  0  0  0
   -1.0232   -2.7876   -0.1830 N   0  0  0  0  0  0  0  0  0  0  0  0
    0.2800   -2.7725   -0.5588 C   0  0  0  0  0  0  0  0  0  0  0  0
    0.9330   -1.5920   -0.7075 N   0  0  0  0  0  0  0  0  0  0  0  0
    0.3179   -0.3992   -0.4779 C   0  0  0  0  0  0  0  0  0  0  0  0
    1.0431    0.8226   -0.7015 N   0  0  0  0  0  0  0  0  0  0  0  0
    2.4656    0.9419   -0.5247 C   0  0  0  0  0  0  0  0  0  0  0  0
    3.1782    1.8911   -1.2746 C   0  0  0  0  0  0  0  0  0  0  0  0
    4.5581    2.0365   -1.1043 C   0  0  0  0  0  0  0  0  0  0  0  0
    5.2368    1.2446   -0.1749 C   0  0  0  0  0  0  0  0  0  0  0  0
    4.5350    0.3099    0.5921 C   0  0  0  0  0  0  0  0  0  0  0  0
    5.4600   -0.7570    1.8782 Br  0  0  0  0  0  0  0  0  0  0  0  0
    3.1536    0.1619    0.4240 C   0  0  0  0  0  0  0  0  0  0  0  0
   -1.0364   -0.3919   -0.0808 C   0  0  0  0  0  0  0  0  0  0  0  0
   -1.7523    0.7833    0.2084 C   0  0  0  0  0  0  0  0  0  0  0  0
   -3.0551    0.7107    0.5904 N   0  0  0  0  0  0  0  0  0  0  0  0
   -6.7268    0.4425    1.7323 H   0  0  0  0  0  0  0  0  0  0  0  0
   -5.8952    1.1999    0.4898 H   0  0  0  0  0  0  0  0  0  0  0  0
   -5.5736   -1.4150    1.2397 H   0  0  0  0  0  0  0  0  0  0  0  0
   -3.5431   -2.6236    0.5526 H   0  0  0  0  0  0  0  0  0  0  0  0
    0.7981   -3.7027   -0.7467 H   0  0  0  0  0  0  0  0  0  0  0  0
    0.5376    1.6273   -1.1353 H   0  0  0  0  0  0  0  0  0  0  0  0
    2.6644    2.5123   -1.9975 H   0  0  0  0  0  0  0  0  0  0  0  0
    5.1014    2.7649   -1.6924 H   0  0  0  0  0  0  0  0  0  0  0  0
    6.3051    1.3625   -0.0466 H   0  0  0  0  0  0  0  0  0  0  0  0
    2.6204   -0.5450    1.0460 H   0  0  0  0  0  0  0  0  0  0  0  0
   -1.2881    1.7571    0.1500 H   0  0  0  0  0  0  0  0  0  0  0  0
  1  2  1  0
  2  3  1  0
  3  4  2  0
  4  5  1  0
  5  6  2  0
  6  7  1  0
  7  8  2  0
  8  9  1  0
  9 10  1  0
 10 11  1  0
 11 12  2  0
 12 13  1  0
 13 14  2  0
 14 15  1  0
 15 16  1  0
 15 17  2  0
  9 18  2  0
 18 19  1  0
 19 20  2  0
 20  3  1  0
 18  5  1  0
 17 11  1  0
  1 21  1  0
  1 22  1  0
  2 23  1  0
  4 24  1  0
  7 25  1  0
 10 26  1  0
 12 27  1  0
 13 28  1  0
 14 29  1  0
 17 30  1  0
 19 31  1  0
M  END
$$$$
