
     RDKit          3D

 49 52  0  0  0  0  0  0  0  0999 V2000
   -6.7255   -0.6165   -0.1339 C   0  0  0  0  0  0  0  0  0  0  0  0
   -6.1833    0.1696    0.9854 N   0  0  0  0  0  0  0  0  0  0  0  0
   -5.5768   -0.7023    2.0037 C   0  0  0  0  0  0  0  0  0  0  0  0
   -5.2813    1.2576    0.5443 C   0  0  0  0  0  0  0  0  0  0  0  0
   -4.0025    0.7726   -0.1694 C   0  0  0  0  0  0  0  0  0  0  0  0
   -3.1247    1.9588   -0.5790 C   0  0  0  0  0  0  0  0  0  0  0  0
   -1.9130    1.4833   -1.2472 N   0  0  0  0  0  0  0  0  0  0  0  0
   -1.7422    1.3549   -2.5847 C   0  0  0  0  0  0  0  0  0  0  0  0
   -0.4932    0.8138   -2.8673 C   0  0  0  0  0  0  0  0  0  0  0  0
    0.0975    0.5990   -1.6398 C   0  0  0  0  0  0  0  0  0  0  0  0
    1.3432    0.0626   -1.3247 C   0  0  0  0  0  0  0  0  0  0  0  0
    1.6865   -0.0638    0.0432 C   0  0  0  0  0  0  0  0  0  0  0  0
    2.9233   -0.5898    0.4737 C   0  0  0  0  0  0  0  0  0  0  0  0
    3.8835   -1.1130   -0.4607 N   0  0  0  0  0  0  0  0  0  0  0  0
    5.3029   -1.0977   -0.2285 C   0  0  0  0  0  0  0  0  0  0  0  0
    5.9076   -0.0887    0.5445 C   0  0  0  0  0  0  0  0  0  0  0  0
    7.2922   -0.0830    0.7380 C   0  0  0  0  0  0  0  0  0  0  0  0
    8.0861   -1.0735    0.1548 C   0  0  0  0  0  0  0  0  0  0  0  0
    7.4973   -2.0691   -0.6305 C   0  0  0  0  0  0  0  0  0  0  0  0
    8.5845   -3.4158   -1.4380 Br  0  0  0  0  0  0  0  0  0  0  0  0
    6.1118   -2.0772   -0.8267 C   0  0  0  0  0  0  0  0  0  0  0  0
    3.1892   -0.6541    1.8073 N   0  0  0  0  0  0  0  0  0  0  0  0
    2.3011   -0.2224    2.7378 C   0  0  0  0  0  0  0  0  0  0  0  0
    1.1022    0.2821    2.3551 N   0  0  0  0  0  0  0  0  0  0  0  0
    0.7675    0.3745    1.0431 C   0  0  0  0  0  0  0  0  0  0  0  0
   -0.4829    0.9095    0.6821 C   0  0  0  0  0  0  0  0  0  0  0  0
   -0.7865    1.0092   -0.6768 C   0  0  0  0  0  0  0  0  0  0  0  0
   -5.9561   -1.2874   -0.5736 H   0  0  0  0  0  0  0  0  0  0  0  0
   -7.5705   -1.2412    0.2260 H   0  0  0  0  0  0  0  0  0  0  0  0
   -7.1224    0.0546   -0.9257 H   0  0  0  0  0  0  0  0  0  0  0  0
   -5.1100   -0.0957    2.8094 H   0  0  0  0  0  0  0  0  0  0  0  0
   -4.8113   -1.3767    1.5626 H   0  0  0  0  0  0  0  0  0  0  0  0
   -6.3651   -1.3280    2.4738 H   0  0  0  0  0  0  0  0  0  0  0  0
   -4.9957    1.8703    1.4278 H   0  0  0  0  0  0  0  0  0  0  0  0
   -5.8414    1.9382   -0.1343 H   0  0  0  0  0  0  0  0  0  0  0  0
   -3.4146    0.1156    0.5045 H   0  0  0  0  0  0  0  0  0  0  0  0
   -4.2665    0.2019   -1.0844 H   0  0  0  0  0  0  0  0  0  0  0  0
   -3.6922    2.6243   -1.2664 H   0  0  0  0  0  0  0  0  0  0  0  0
   -2.8487    2.5591    0.3147 H   0  0  0  0  0  0  0  0  0  0  0  0
   -2.4853    1.6297   -3.3223 H   0  0  0  0  0  0  0  0  0  0  0  0
   -0.0804    0.5951   -3.8432 H   0  0  0  0  0  0  0  0  0  0  0  0
    2.0131   -0.2291   -2.1218 H   0  0  0  0  0  0  0  0  0  0  0  0
    3.5312   -1.6451   -1.2877 H   0  0  0  0  0  0  0  0  0  0  0  0
    5.3153    0.7044    0.9816 H   0  0  0  0  0  0  0  0  0  0  0  0
    7.7511    0.6946    1.3350 H   0  0  0  0  0  0  0  0  0  0  0  0
    9.1576   -1.0628    0.3075 H   0  0  0  0  0  0  0  0  0  0  0  0
    5.6636   -2.8508   -1.4377 H   0  0  0  0  0  0  0  0  0  0  0  0
    2.5476   -0.2873    3.7885 H   0  0  0  0  0  0  0  0  0  0  0  0
   -1.1841    1.2358    1.4395 H   0  0  0  0  0  0  0  0  0  0  0  0
  1  2  1  0
  2  3  1  0
  2  4  1  0
  4  5  1  0
  5  6  1  0
  6  7  1  0
  7  8  1  0
  8  9  2  0
  9 10  1  0
 10 11  2  0
 11 12  1  0
 12 13  2  0
 13 14  1  0
 14 15  1  0
 15 16  2  0
 16 17  1  0
 17 18  2  0
 18 19  1  0
 19 20  1  0
 19 21  2  0
 13 22  1  0
 22 23  2  0
 23 24  1  0
 24 25  2  0
 25 26  1  0
 26 27  2  0
 27  7  1  0
 27 10  1  0
 25 12  1  0
 21 15  1  0
  1 28  1  0
  1 29  1  0
  1 30  1  0
  3 31  1  0
  3 32  1  0
  3 33  1  0
  4 34  1  0
  4 35  1  0
  5 36  1  0
  5 37  1  0
  6 38  1  0
  6 39  1  0
  8 40  1  0
  9 41  1  0
 11 42  1  0
 14 43  1  0
 16 44  1  0
 17 45  1  0
 18 46  1  0
 21 47  1  0
 23 48  1  0
 26 49  1  0
M  END
$$$$
