
     RDKit          3D

 56 59  0  0  0  0  0  0  0  0999 V2000
   -1.0974    2.0568    3.4625 C   0  0  0  0  0  0  0  0  0  0  0  0
   -1.3647    2.3723    2.1023 O   0  0  0  0  0  0  0  0  0  0  0  0
   -2.5446    1.9878    1.4553 C   0  0  0  0  0  0  0  0  0  0  0  0
   -3.4653    1.4006    2.0878 O   0  0  0  0  0  0  0  0  0  0  0  0
   -2.7139    2.2814   -0.0009 C   0  0  0  0  0  0  0  0  0  0  0  0
   -2.7871    1.0087   -0.7933 C   0  0  0  0  0  0  0  0  0  0  0  0
   -1.7214    0.2220   -1.2244 C   0  0  0  0  0  0  0  0  0  0  0  0
    0.0075    0.5839   -0.9061 S   0  0  0  0  0  0  0  0  0  0  0  0
    0.0010   -0.4862    0.9378 S   0  0  0  0  0  0  0  0  0  0  0  0
    1.7215   -0.9747    0.7662 C   0  0  0  0  0  0  0  0  0  0  0  0
    2.8033   -0.2074    1.1970 C   0  0  0  0  0  0  0  0  0  0  0  0
    2.7577    1.1355    1.8712 C   0  0  0  0  0  0  0  0  0  0  0  0
    2.5249    2.2316    0.8795 C   0  0  0  0  0  0  0  0  0  0  0  0
    3.2550    2.3224   -0.1446 O   0  0  0  0  0  0  0  0  0  0  0  0
    1.5309    3.1793    1.1348 O   0  0  0  0  0  0  0  0  0  0  0  0
    1.1898    4.1999    0.2116 C   0  0  0  0  0  0  0  0  0  0  0  0
    3.9285   -0.9270    0.8364 C   0  0  0  0  0  0  0  0  0  0  0  0
    5.2851   -0.6349    0.9825 C   0  0  0  0  0  0  0  0  0  0  0  0
    6.2142   -1.5724    0.5046 C   0  0  0  0  0  0  0  0  0  0  0  0
    5.7754   -2.7667   -0.1034 C   0  0  0  0  0  0  0  0  0  0  0  0
    4.4025   -3.0354   -0.2423 C   0  0  0  0  0  0  0  0  0  0  0  0
    3.4955   -2.0882    0.2440 C   0  0  0  0  0  0  0  0  0  0  0  0
    2.1467   -2.1361    0.2132 N   0  0  0  0  0  0  0  0  0  0  0  0
    1.3200   -3.1797   -0.3867 C   0  0  0  0  0  0  0  0  0  0  0  0
   -2.1729   -0.8577   -1.9110 N   0  0  0  0  0  0  0  0  0  0  0  0
   -1.3720   -1.9242   -2.5031 C   0  0  0  0  0  0  0  0  0  0  0  0
   -3.5206   -0.7858   -1.8728 C   0  0  0  0  0  0  0  0  0  0  0  0
   -4.4465   -1.6917   -2.3994 C   0  0  0  0  0  0  0  0  0  0  0  0
   -5.8148   -1.4022   -2.2461 C   0  0  0  0  0  0  0  0  0  0  0  0
   -6.2281   -0.2374   -1.5687 C   0  0  0  0  0  0  0  0  0  0  0  0
   -5.2781    0.6468   -1.0295 C   0  0  0  0  0  0  0  0  0  0  0  0
   -3.9285    0.3427   -1.2033 C   0  0  0  0  0  0  0  0  0  0  0  0
   -1.8600    2.5215    4.1148 H   0  0  0  0  0  0  0  0  0  0  0  0
   -1.0992    0.9578    3.6094 H   0  0  0  0  0  0  0  0  0  0  0  0
   -0.1039    2.4563    3.7362 H   0  0  0  0  0  0  0  0  0  0  0  0
   -3.6366    2.8826   -0.1507 H   0  0  0  0  0  0  0  0  0  0  0  0
   -1.8583    2.8911   -0.3601 H   0  0  0  0  0  0  0  0  0  0  0  0
    3.7055    1.3319    2.4129 H   0  0  0  0  0  0  0  0  0  0  0  0
    1.9408    1.1337    2.6253 H   0  0  0  0  0  0  0  0  0  0  0  0
    0.7663    3.7489   -0.7112 H   0  0  0  0  0  0  0  0  0  0  0  0
    2.0907    4.8061   -0.0433 H   0  0  0  0  0  0  0  0  0  0  0  0
    0.4254    4.8625    0.6731 H   0  0  0  0  0  0  0  0  0  0  0  0
    5.6193    0.2862    1.4420 H   0  0  0  0  0  0  0  0  0  0  0  0
    7.2728   -1.3757    0.6005 H   0  0  0  0  0  0  0  0  0  0  0  0
    6.5000   -3.4818   -0.4661 H   0  0  0  0  0  0  0  0  0  0  0  0
    4.0695   -3.9499   -0.7132 H   0  0  0  0  0  0  0  0  0  0  0  0
    0.3049   -3.1814    0.0595 H   0  0  0  0  0  0  0  0  0  0  0  0
    1.2453   -3.0058   -1.4811 H   0  0  0  0  0  0  0  0  0  0  0  0
    1.7681   -4.1797   -0.2048 H   0  0  0  0  0  0  0  0  0  0  0  0
   -1.8154   -2.2431   -3.4717 H   0  0  0  0  0  0  0  0  0  0  0  0
   -0.3335   -1.5736   -2.7010 H   0  0  0  0  0  0  0  0  0  0  0  0
   -1.3418   -2.7869   -1.8110 H   0  0  0  0  0  0  0  0  0  0  0  0
   -4.1324   -2.5901   -2.9107 H   0  0  0  0  0  0  0  0  0  0  0  0
   -6.5551   -2.0815   -2.6481 H   0  0  0  0  0  0  0  0  0  0  0  0
   -7.2803   -0.0270   -1.4546 H   0  0  0  0  0  0  0  0  0  0  0  0
   -5.5958    1.5340   -0.4972 H   0  0  0  0  0  0  0  0  0  0  0  0
  1  2  1  0
  2  3  1  0
  3  4  2  0
  3  5  1  0
  5  6  1  0
  6  7  2  0
  7  8  1  0
  8  9  1  0
  9 10  1  0
 10 11  2  0
 11 12  1  0
 12 13  1  0
 13 14  2  0
 13 15  1  0
 15 16  1  0
 11 17  1  0
 17 18  2  0
 18 19  1  0
 19 20  2  0
 20 21  1  0
 21 22  2  0
 22 23  1  0
 23 24  1  0
  7 25  1  0
 25 26  1  0
 25 27  1  0
 27 28  2  0
 28 29  1  0
 29 30  2  0
 30 31  1  0
 31 32  2  0
 32  6  1  0
 23 10  1  0
 32 27  1  0
 22 17  1  0
  1 33  1  0
  1 34  1  0
  1 35  1  0
  5 36  1  0
  5 37  1  0
 12 38  1  0
 12 39  1  0
 16 40  1  0
 16 41  1  0
 16 42  1  0
 18 43  1  0
 19 44  1  0
 20 45  1  0
 21 46  1  0
 24 47  1  0
 24 48  1  0
 24 49  1  0
 26 50  1  0
 26 51  1  0
 26 52  1  0
 28 53  1  0
 29 54  1  0
 30 55  1  0
 31 56  1  0
M  END
$$$$
