
     RDKit          3D

 44 47  0  0  0  0  0  0  0  0999 V2000
    5.9941   -1.4780   -0.4970 O   0  0  0  0  0  0  0  0  0  0  0  0
    4.7988   -1.8761   -0.5101 C   0  0  0  0  0  0  0  0  0  0  0  0
    4.4032   -2.9180    0.3224 O   0  0  0  0  0  0  0  0  0  0  0  0
    3.7946   -1.2046   -1.3891 C   0  0  0  0  0  0  0  0  0  0  0  0
    3.0002   -0.2108   -0.5951 C   0  0  0  0  0  0  0  0  0  0  0  0
    1.8088   -0.4353    0.0929 C   0  0  0  0  0  0  0  0  0  0  0  0
    0.8990   -1.9776    0.1359 S   0  0  0  0  0  0  0  0  0  0  0  0
   -0.1428   -1.5302   -1.6696 S   0  0  0  0  0  0  0  0  0  0  0  0
   -1.4851   -0.7284   -0.7961 C   0  0  0  0  0  0  0  0  0  0  0  0
   -1.5405    0.6064   -0.5871 N   0  0  0  0  0  0  0  0  0  0  0  0
   -2.6896    0.8244    0.0748 C   0  0  0  0  0  0  0  0  0  0  0  0
   -3.1963    2.0504    0.5036 C   0  0  0  0  0  0  0  0  0  0  0  0
   -4.4374    2.0539    1.1659 C   0  0  0  0  0  0  0  0  0  0  0  0
   -5.1394    0.8463    1.3773 C   0  0  0  0  0  0  0  0  0  0  0  0
   -4.6057   -0.3766    0.9313 C   0  0  0  0  0  0  0  0  0  0  0  0
   -3.3696   -0.3502    0.2845 C   0  0  0  0  0  0  0  0  0  0  0  0
   -2.6047   -1.3640   -0.2615 C   0  0  0  0  0  0  0  0  0  0  0  0
   -2.9536   -2.8201   -0.3477 C   0  0  0  0  0  0  0  0  0  0  0  0
   -3.8134   -3.0698   -1.5436 C   0  0  0  0  0  0  0  0  0  0  0  0
   -3.2857   -3.2640   -2.6716 O   0  0  0  0  0  0  0  0  0  0  0  0
   -5.1988   -3.0393   -1.4188 O   0  0  0  0  0  0  0  0  0  0  0  0
    1.4167    0.6756    0.7568 N   0  0  0  0  0  0  0  0  0  0  0  0
    2.3528    1.6046    0.4977 C   0  0  0  0  0  0  0  0  0  0  0  0
    2.3921    2.9161    0.9686 C   0  0  0  0  0  0  0  0  0  0  0  0
    3.4815    3.7200    0.5860 C   0  0  0  0  0  0  0  0  0  0  0  0
    4.4976    3.1999   -0.2460 C   0  0  0  0  0  0  0  0  0  0  0  0
    4.4330    1.8717   -0.7055 C   0  0  0  0  0  0  0  0  0  0  0  0
    3.3376    1.1002   -0.3155 C   0  0  0  0  0  0  0  0  0  0  0  0
    5.0690   -3.3770    0.9320 H   0  0  0  0  0  0  0  0  0  0  0  0
    4.3063   -0.6927   -2.2321 H   0  0  0  0  0  0  0  0  0  0  0  0
    3.1192   -1.9691   -1.8271 H   0  0  0  0  0  0  0  0  0  0  0  0
   -0.8419    1.3207   -0.8913 H   0  0  0  0  0  0  0  0  0  0  0  0
   -2.6532    2.9710    0.3325 H   0  0  0  0  0  0  0  0  0  0  0  0
   -4.8587    2.9886    1.5127 H   0  0  0  0  0  0  0  0  0  0  0  0
   -6.0952    0.8619    1.8846 H   0  0  0  0  0  0  0  0  0  0  0  0
   -5.1414   -1.3043    1.0865 H   0  0  0  0  0  0  0  0  0  0  0  0
   -2.0289   -3.4321   -0.4146 H   0  0  0  0  0  0  0  0  0  0  0  0
   -3.4923   -3.1322    0.5718 H   0  0  0  0  0  0  0  0  0  0  0  0
   -5.7962   -3.1858   -2.2234 H   0  0  0  0  0  0  0  0  0  0  0  0
    0.5687    0.7844    1.3569 H   0  0  0  0  0  0  0  0  0  0  0  0
    1.6117    3.3039    1.6102 H   0  0  0  0  0  0  0  0  0  0  0  0
    3.5427    4.7427    0.9345 H   0  0  0  0  0  0  0  0  0  0  0  0
    5.3325    3.8267   -0.5302 H   0  0  0  0  0  0  0  0  0  0  0  0
    5.2103    1.4668   -1.3403 H   0  0  0  0  0  0  0  0  0  0  0  0
  1  2  2  0
  2  3  1  0
  2  4  1  0
  4  5  1  0
  5  6  2  0
  6  7  1  0
  7  8  1  0
  8  9  1  0
  9 10  1  0
 10 11  1  0
 11 12  2  0
 12 13  1  0
 13 14  2  0
 14 15  1  0
 15 16  2  0
 16 17  1  0
 17 18  1  0
 18 19  1  0
 19 20  2  0
 19 21  1  0
  6 22  1  0
 22 23  1  0
 23 24  2  0
 24 25  1  0
 25 26  2  0
 26 27  1  0
 27 28  2  0
 28  5  1  0
 17  9  2  0
 28 23  1  0
 16 11  1  0
  3 29  1  0
  4 30  1  0
  4 31  1  0
 10 32  1  0
 12 33  1  0
 13 34  1  0
 14 35  1  0
 15 36  1  0
 18 37  1  0
 18 38  1  0
 21 39  1  0
 22 40  1  0
 24 41  1  0
 25 42  1  0
 26 43  1  0
 27 44  1  0
M  END
$$$$
