
     RDKit          3D

 20 20  0  0  0  0  0  0  0  0999 V2000
    3.6881    3.6490   -1.8476 N   0  0  0  0  0  0  0  0  0  0  0  0
    2.7793    2.9451   -1.9809 C   0  0  0  0  0  0  0  0  0  0  0  0
    1.6521    2.0719   -2.1459 C   0  0  0  0  0  0  0  0  0  0  0  0
    1.0269    1.9874   -3.4425 C   0  0  0  0  0  0  0  0  0  0  0  0
    0.5256    1.9200   -4.4834 N   0  0  0  0  0  0  0  0  0  0  0  0
    1.2300    1.3859   -1.1255 N   0  0  0  0  0  0  0  0  0  0  0  0
    0.1368    0.4999   -1.1674 N   0  0  0  0  0  0  0  0  0  0  0  0
   -0.2714   -0.2245    0.0031 C   0  0  0  0  0  0  0  0  0  0  0  0
   -1.3656   -1.1014   -0.0685 C   0  0  0  0  0  0  0  0  0  0  0  0
   -1.7766   -1.8147    1.0617 C   0  0  0  0  0  0  0  0  0  0  0  0
   -1.0976   -1.6591    2.2773 C   0  0  0  0  0  0  0  0  0  0  0  0
   -1.4977   -2.3642    3.4101 O   0  0  0  0  0  0  0  0  0  0  0  0
   -0.0072   -0.7874    2.3556 C   0  0  0  0  0  0  0  0  0  0  0  0
    0.4061   -0.0727    1.2268 C   0  0  0  0  0  0  0  0  0  0  0  0
   -0.3962    0.3556   -2.0550 H   0  0  0  0  0  0  0  0  0  0  0  0
   -1.9004   -1.2324   -1.0008 H   0  0  0  0  0  0  0  0  0  0  0  0
   -2.6219   -2.4873    0.9916 H   0  0  0  0  0  0  0  0  0  0  0  0
   -2.2838   -3.0032    3.3857 H   0  0  0  0  0  0  0  0  0  0  0  0
    0.5209   -0.6635    3.2926 H   0  0  0  0  0  0  0  0  0  0  0  0
    1.2528    0.5957    1.3129 H   0  0  0  0  0  0  0  0  0  0  0  0
  1  2  3  0
  2  3  1  0
  3  4  1  0
  4  5  3  0
  3  6  2  3
  6  7  1  0
  7  8  1  0
  8  9  2  0
  9 10  1  0
 10 11  2  0
 11 12  1  0
 11 13  1  0
 13 14  2  0
 14  8  1  0
  7 15  1  0
  9 16  1  0
 10 17  1  0
 12 18  1  0
 13 19  1  0
 14 20  1  0
M  END
$$$$
