
     RDKit          3D

 43 45  0  0  0  0  0  0  0  0999 V2000
   -4.8206    1.2645    1.3614 O   0  0  0  0  0  0  0  0  0  0  0  0
   -5.4263    0.0327    1.0775 C   0  0  0  0  0  0  0  0  0  0  0  0
   -4.3726   -1.0651    0.8995 C   0  0  0  0  0  0  0  0  0  0  0  0
   -3.4358   -0.7412   -0.1902 N   0  0  0  0  0  0  0  0  0  0  0  0
   -3.9138   -0.7986   -1.5820 C   0  0  0  0  0  0  0  0  0  0  0  0
   -3.9379    0.5941   -2.2151 C   0  0  0  0  0  0  0  0  0  0  0  0
   -2.6334    1.0692   -2.3981 O   0  0  0  0  0  0  0  0  0  0  0  0
   -2.0283   -0.5459    0.0749 C   0  0  0  0  0  0  0  0  0  0  0  0
   -1.5889    0.1222    1.2297 C   0  0  0  0  0  0  0  0  0  0  0  0
   -0.2208    0.3046    1.4443 C   0  0  0  0  0  0  0  0  0  0  0  0
    0.2089    0.9642    2.5507 N   0  0  0  0  0  0  0  0  0  0  0  0
    1.5319    1.1600    2.7770 C   0  0  0  0  0  0  0  0  0  0  0  0
    2.4510    0.6892    1.8964 N   0  0  0  0  0  0  0  0  0  0  0  0
    2.0845    0.0242    0.7663 C   0  0  0  0  0  0  0  0  0  0  0  0
    3.1020   -0.4981   -0.1059 N   0  0  0  0  0  0  0  0  0  0  0  0
    4.3922    0.1153   -0.2732 C   0  0  0  0  0  0  0  0  0  0  0  0
    4.5643    1.5062   -0.1424 C   0  0  0  0  0  0  0  0  0  0  0  0
    5.8243    2.0818   -0.3312 C   0  0  0  0  0  0  0  0  0  0  0  0
    6.9192    1.2800   -0.6628 C   0  0  0  0  0  0  0  0  0  0  0  0
    6.7548   -0.1001   -0.8141 C   0  0  0  0  0  0  0  0  0  0  0  0
    8.2494   -1.1942   -1.2799 Br  0  0  0  0  0  0  0  0  0  0  0  0
    5.4948   -0.6792   -0.6264 C   0  0  0  0  0  0  0  0  0  0  0  0
    0.7129   -0.1855    0.5090 C   0  0  0  0  0  0  0  0  0  0  0  0
    0.2315   -0.8283   -0.6434 C   0  0  0  0  0  0  0  0  0  0  0  0
   -1.1057   -0.9881   -0.8252 N   0  0  0  0  0  0  0  0  0  0  0  0
   -4.6108    1.2608    2.3317 H   0  0  0  0  0  0  0  0  0  0  0  0
   -6.1286   -0.2539    1.8934 H   0  0  0  0  0  0  0  0  0  0  0  0
   -6.0262    0.1340    0.1493 H   0  0  0  0  0  0  0  0  0  0  0  0
   -3.8372   -1.2232    1.8599 H   0  0  0  0  0  0  0  0  0  0  0  0
   -4.8848   -2.0245    0.6696 H   0  0  0  0  0  0  0  0  0  0  0  0
   -4.9446   -1.2143   -1.6202 H   0  0  0  0  0  0  0  0  0  0  0  0
   -3.2756   -1.4816   -2.1833 H   0  0  0  0  0  0  0  0  0  0  0  0
   -4.5096    1.2922   -1.5642 H   0  0  0  0  0  0  0  0  0  0  0  0
   -4.4490    0.5306   -3.2014 H   0  0  0  0  0  0  0  0  0  0  0  0
   -2.7232    1.9754   -2.7926 H   0  0  0  0  0  0  0  0  0  0  0  0
   -2.2947    0.5170    1.9470 H   0  0  0  0  0  0  0  0  0  0  0  0
    1.8553    1.6867    3.6641 H   0  0  0  0  0  0  0  0  0  0  0  0
    2.9484   -1.4349   -0.5419 H   0  0  0  0  0  0  0  0  0  0  0  0
    3.7245    2.1494    0.0853 H   0  0  0  0  0  0  0  0  0  0  0  0
    5.9505    3.1518   -0.2274 H   0  0  0  0  0  0  0  0  0  0  0  0
    7.8918    1.7320   -0.8088 H   0  0  0  0  0  0  0  0  0  0  0  0
    5.3753   -1.7487   -0.7470 H   0  0  0  0  0  0  0  0  0  0  0  0
    0.9006   -1.1909   -1.4103 H   0  0  0  0  0  0  0  0  0  0  0  0
  1  2  1  0
  2  3  1  0
  3  4  1  0
  4  5  1  0
  5  6  1  0
  6  7  1  0
  4  8  1  0
  8  9  2  0
  9 10  1  0
 10 11  2  0
 11 12  1  0
 12 13  2  0
 13 14  1  0
 14 15  1  0
 15 16  1  0
 16 17  2  0
 17 18  1  0
 18 19  2  0
 19 20  1  0
 20 21  1  0
 20 22  2  0
 14 23  2  0
 23 24  1  0
 24 25  2  0
 25  8  1  0
 23 10  1  0
 22 16  1  0
  1 26  1  0
  2 27  1  0
  2 28  1  0
  3 29  1  0
  3 30  1  0
  5 31  1  0
  5 32  1  0
  6 33  1  0
  6 34  1  0
  7 35  1  0
  9 36  1  0
 12 37  1  0
 15 38  1  0
 17 39  1  0
 18 40  1  0
 19 41  1  0
 22 42  1  0
 24 43  1  0
M  END
$$$$
