
     RDKit          3D

 34 36  0  0  0  0  0  0  0  0999 V2000
   -3.5138    2.3317   -1.5473 C   0  0  0  0  0  0  0  0  0  0  0  0
   -2.7636    1.6406   -0.5018 N   0  0  0  0  0  0  0  0  0  0  0  0
   -1.4459    1.9746   -0.0527 C   0  0  0  0  0  0  0  0  0  0  0  0
   -0.8032    3.4786   -0.1669 S   0  0  0  0  0  0  0  0  0  0  0  0
   -0.8051    0.8536    0.7204 C   0  0  0  0  0  0  0  0  0  0  0  0
    0.4756    0.4039    0.0715 C   0  0  0  0  0  0  0  0  0  0  0  0
    0.4488   -0.0949   -1.0877 O   0  0  0  0  0  0  0  0  0  0  0  0
    1.7267    0.6102    0.7451 N   0  0  0  0  0  0  0  0  0  0  0  0
    2.9679    0.0107    0.3365 C   0  0  0  0  0  0  0  0  0  0  0  0
    4.1709    0.7002    0.5562 C   0  0  0  0  0  0  0  0  0  0  0  0
    5.3924    0.1281    0.1874 C   0  0  0  0  0  0  0  0  0  0  0  0
    5.4238   -1.1437   -0.3899 C   0  0  0  0  0  0  0  0  0  0  0  0
    4.2345   -1.8485   -0.5919 C   0  0  0  0  0  0  0  0  0  0  0  0
    3.0106   -1.2794   -0.2254 C   0  0  0  0  0  0  0  0  0  0  0  0
   -1.8757   -0.1885    0.6155 C   0  0  0  0  0  0  0  0  0  0  0  0
   -1.8656   -1.4894    1.1236 C   0  0  0  0  0  0  0  0  0  0  0  0
   -2.9795   -2.3106    0.8876 C   0  0  0  0  0  0  0  0  0  0  0  0
   -4.0787   -1.8241    0.1541 C   0  0  0  0  0  0  0  0  0  0  0  0
   -4.0742   -0.5116   -0.3452 C   0  0  0  0  0  0  0  0  0  0  0  0
   -2.9574    0.2921   -0.0948 C   0  0  0  0  0  0  0  0  0  0  0  0
   -3.1916    1.9623   -2.5431 H   0  0  0  0  0  0  0  0  0  0  0  0
   -3.3409    3.4261   -1.4885 H   0  0  0  0  0  0  0  0  0  0  0  0
   -4.6010    2.1524   -1.4200 H   0  0  0  0  0  0  0  0  0  0  0  0
   -0.6557    1.1425    1.7830 H   0  0  0  0  0  0  0  0  0  0  0  0
    1.7493    1.2989    1.5312 H   0  0  0  0  0  0  0  0  0  0  0  0
    4.1597    1.6858    1.0046 H   0  0  0  0  0  0  0  0  0  0  0  0
    6.3148    0.6701    0.3514 H   0  0  0  0  0  0  0  0  0  0  0  0
    6.3701   -1.5865   -0.6727 H   0  0  0  0  0  0  0  0  0  0  0  0
    4.2613   -2.8403   -1.0245 H   0  0  0  0  0  0  0  0  0  0  0  0
    2.1058   -1.8574   -0.3577 H   0  0  0  0  0  0  0  0  0  0  0  0
   -1.0148   -1.8594    1.6811 H   0  0  0  0  0  0  0  0  0  0  0  0
   -2.9921   -3.3233    1.2691 H   0  0  0  0  0  0  0  0  0  0  0  0
   -4.9323   -2.4648   -0.0248 H   0  0  0  0  0  0  0  0  0  0  0  0
   -4.9211   -0.1398   -0.9055 H   0  0  0  0  0  0  0  0  0  0  0  0
  1  2  1  0
  2  3  1  0
  3  4  2  0
  3  5  1  0
  5  6  1  0
  6  7  2  0
  6  8  1  0
  8  9  1  0
  9 10  2  0
 10 11  1  0
 11 12  2  0
 12 13  1  0
 13 14  2  0
  5 15  1  0
 15 16  2  0
 16 17  1  0
 17 18  2  0
 18 19  1  0
 19 20  2  0
 20  2  1  0
 14  9  1  0
 20 15  1  0
  1 21  1  0
  1 22  1  0
  1 23  1  0
  5 24  1  0
  8 25  1  0
 10 26  1  0
 11 27  1  0
 12 28  1  0
 13 29  1  0
 14 30  1  0
 16 31  1  0
 17 32  1  0
 18 33  1  0
 19 34  1  0
M  END
$$$$
