
     RDKit          3D

 52 54  0  0  0  0  0  0  0  0999 V2000
   -7.8113    1.2501   -1.1992 C   0  0  0  0  0  0  0  0  0  0  0  0
   -6.8825    0.4133   -0.4218 N   0  0  0  0  0  0  0  0  0  0  0  0
   -7.0163   -0.9905   -0.8511 C   0  0  0  0  0  0  0  0  0  0  0  0
   -5.4932    0.8928   -0.5942 C   0  0  0  0  0  0  0  0  0  0  0  0
   -4.6341    0.5071    0.6177 C   0  0  0  0  0  0  0  0  0  0  0  0
   -3.2133    1.0778    0.4923 C   0  0  0  0  0  0  0  0  0  0  0  0
   -2.3602    0.8343    1.7496 C   0  0  0  0  0  0  0  0  0  0  0  0
   -2.0549   -0.6480    2.0203 C   0  0  0  0  0  0  0  0  0  0  0  0
   -1.4376   -1.2904    0.8602 N   0  0  0  0  0  0  0  0  0  0  0  0
   -0.0833   -1.0352    0.4586 C   0  0  0  0  0  0  0  0  0  0  0  0
    0.4259   -1.6269   -0.7034 C   0  0  0  0  0  0  0  0  0  0  0  0
    1.7454   -1.3719   -1.0842 C   0  0  0  0  0  0  0  0  0  0  0  0
    2.2525   -1.9527   -2.2018 N   0  0  0  0  0  0  0  0  0  0  0  0
    3.5326   -1.7237   -2.5876 C   0  0  0  0  0  0  0  0  0  0  0  0
    4.3267   -0.8979   -1.8599 N   0  0  0  0  0  0  0  0  0  0  0  0
    3.8791   -0.2879   -0.7279 C   0  0  0  0  0  0  0  0  0  0  0  0
    4.7468    0.6192   -0.0256 N   0  0  0  0  0  0  0  0  0  0  0  0
    6.1786    0.4846    0.0001 C   0  0  0  0  0  0  0  0  0  0  0  0
    6.7970   -0.7773   -0.0791 C   0  0  0  0  0  0  0  0  0  0  0  0
    8.1901   -0.8843   -0.0303 C   0  0  0  0  0  0  0  0  0  0  0  0
    8.9772    0.2614    0.1093 C   0  0  0  0  0  0  0  0  0  0  0  0
    8.3718    1.5177    0.2083 C   0  0  0  0  0  0  0  0  0  0  0  0
    9.4478    3.0825    0.4114 Br  0  0  0  0  0  0  0  0  0  0  0  0
    6.9776    1.6281    0.1607 C   0  0  0  0  0  0  0  0  0  0  0  0
    2.5523   -0.5168   -0.3050 C   0  0  0  0  0  0  0  0  0  0  0  0
    2.0049    0.0409    0.8637 C   0  0  0  0  0  0  0  0  0  0  0  0
    0.7180   -0.2288    1.2085 N   0  0  0  0  0  0  0  0  0  0  0  0
   -7.5455    1.2487   -2.2803 H   0  0  0  0  0  0  0  0  0  0  0  0
   -7.7915    2.2948   -0.8209 H   0  0  0  0  0  0  0  0  0  0  0  0
   -8.8543    0.8842   -1.0806 H   0  0  0  0  0  0  0  0  0  0  0  0
   -6.7633   -1.1115   -1.9282 H   0  0  0  0  0  0  0  0  0  0  0  0
   -8.0573   -1.3430   -0.6858 H   0  0  0  0  0  0  0  0  0  0  0  0
   -6.3581   -1.6495   -0.2490 H   0  0  0  0  0  0  0  0  0  0  0  0
   -5.4742    2.0042   -0.6723 H   0  0  0  0  0  0  0  0  0  0  0  0
   -5.0391    0.4921   -1.5296 H   0  0  0  0  0  0  0  0  0  0  0  0
   -4.5765   -0.5975    0.6912 H   0  0  0  0  0  0  0  0  0  0  0  0
   -5.1130    0.9001    1.5412 H   0  0  0  0  0  0  0  0  0  0  0  0
   -3.2779    2.1768    0.3357 H   0  0  0  0  0  0  0  0  0  0  0  0
   -2.7101    0.6454   -0.3997 H   0  0  0  0  0  0  0  0  0  0  0  0
   -1.4028    1.3862    1.6361 H   0  0  0  0  0  0  0  0  0  0  0  0
   -2.8772    1.2632    2.6354 H   0  0  0  0  0  0  0  0  0  0  0  0
   -2.9926   -1.1812    2.2843 H   0  0  0  0  0  0  0  0  0  0  0  0
   -1.3791   -0.7344    2.8983 H   0  0  0  0  0  0  0  0  0  0  0  0
   -2.0053   -1.9864    0.3252 H   0  0  0  0  0  0  0  0  0  0  0  0
   -0.1973   -2.2788   -1.3039 H   0  0  0  0  0  0  0  0  0  0  0  0
    3.9192   -2.1945   -3.4809 H   0  0  0  0  0  0  0  0  0  0  0  0
    4.3328    1.4894    0.3776 H   0  0  0  0  0  0  0  0  0  0  0  0
    6.2056   -1.6800   -0.1585 H   0  0  0  0  0  0  0  0  0  0  0  0
    8.6597   -1.8574   -0.0934 H   0  0  0  0  0  0  0  0  0  0  0  0
   10.0552    0.1716    0.1474 H   0  0  0  0  0  0  0  0  0  0  0  0
    6.5162    2.6046    0.2400 H   0  0  0  0  0  0  0  0  0  0  0  0
    2.5885    0.6753    1.5150 H   0  0  0  0  0  0  0  0  0  0  0  0
  1  2  1  0
  2  3  1  0
  2  4  1  0
  4  5  1  0
  5  6  1  0
  6  7  1  0
  7  8  1  0
  8  9  1  0
  9 10  1  0
 10 11  2  0
 11 12  1  0
 12 13  2  0
 13 14  1  0
 14 15  2  0
 15 16  1  0
 16 17  1  0
 17 18  1  0
 18 19  2  0
 19 20  1  0
 20 21  2  0
 21 22  1  0
 22 23  1  0
 22 24  2  0
 16 25  2  0
 25 26  1  0
 26 27  2  0
 27 10  1  0
 25 12  1  0
 24 18  1  0
  1 28  1  0
  1 29  1  0
  1 30  1  0
  3 31  1  0
  3 32  1  0
  3 33  1  0
  4 34  1  0
  4 35  1  0
  5 36  1  0
  5 37  1  0
  6 38  1  0
  6 39  1  0
  7 40  1  0
  7 41  1  0
  8 42  1  0
  8 43  1  0
  9 44  1  0
 11 45  1  0
 14 46  1  0
 17 47  1  0
 19 48  1  0
 20 49  1  0
 21 50  1  0
 24 51  1  0
 26 52  1  0
M  END
$$$$
