
     RDKit          3D

 30 30  0  0  0  0  0  0  0  0999 V2000
   -3.2338   -2.1755    0.8985 C   0  0  0  0  0  0  0  0  0  0  0  0
   -1.9040   -2.4188    0.4510 O   0  0  0  0  0  0  0  0  0  0  0  0
   -0.9076   -1.4356    0.3394 C   0  0  0  0  0  0  0  0  0  0  0  0
   -1.1561   -0.0854    0.6550 C   0  0  0  0  0  0  0  0  0  0  0  0
   -0.1342    0.8737    0.5551 C   0  0  0  0  0  0  0  0  0  0  0  0
   -0.3764    2.3043    0.8558 C   0  0  0  0  0  0  0  0  0  0  0  0
   -1.0368    2.7601    1.9337 C   0  0  0  0  0  0  0  0  0  0  0  0
   -1.1975    4.1783    2.1176 C   0  0  0  0  0  0  0  0  0  0  0  0
   -1.3267    5.3188    2.2656 N   0  0  0  0  0  0  0  0  0  0  0  0
   -1.5266    1.8892    2.9736 C   0  0  0  0  0  0  0  0  0  0  0  0
   -1.9195    1.1911    3.8091 N   0  0  0  0  0  0  0  0  0  0  0  0
    1.1259    0.4848    0.0855 C   0  0  0  0  0  0  0  0  0  0  0  0
    1.3816   -0.8500   -0.2429 C   0  0  0  0  0  0  0  0  0  0  0  0
    3.0190   -1.3164   -0.8240 S   0  0  0  0  0  0  0  0  0  0  0  0
    2.6218   -1.1179   -2.5947 C   0  0  0  0  0  0  0  0  0  0  0  0
    2.5578    0.3300   -2.9582 C   0  0  0  0  0  0  0  0  0  0  0  0
    1.4480    0.8703   -3.2118 O   0  0  0  0  0  0  0  0  0  0  0  0
    3.7244    1.0871   -2.9935 O   0  0  0  0  0  0  0  0  0  0  0  0
    0.3723   -1.8148   -0.1054 C   0  0  0  0  0  0  0  0  0  0  0  0
    0.6516   -3.1457   -0.4214 O   0  0  0  0  0  0  0  0  0  0  0  0
   -3.7434   -1.4654    0.2134 H   0  0  0  0  0  0  0  0  0  0  0  0
   -3.7961   -3.1316    0.9002 H   0  0  0  0  0  0  0  0  0  0  0  0
   -3.2208   -1.7688    1.9319 H   0  0  0  0  0  0  0  0  0  0  0  0
   -2.1462    0.2267    0.9560 H   0  0  0  0  0  0  0  0  0  0  0  0
    0.0666    3.0255    0.1766 H   0  0  0  0  0  0  0  0  0  0  0  0
    1.9148    1.2202   -0.0198 H   0  0  0  0  0  0  0  0  0  0  0  0
    1.6639   -1.6273   -2.8361 H   0  0  0  0  0  0  0  0  0  0  0  0
    3.4237   -1.6007   -3.1907 H   0  0  0  0  0  0  0  0  0  0  0  0
    3.6970    2.0724   -3.2270 H   0  0  0  0  0  0  0  0  0  0  0  0
   -0.0428   -3.8786   -0.3418 H   0  0  0  0  0  0  0  0  0  0  0  0
  1  2  1  0
  2  3  1  0
  3  4  2  0
  4  5  1  0
  5  6  1  0
  6  7  2  3
  7  8  1  0
  8  9  3  0
  7 10  1  0
 10 11  3  0
  5 12  2  0
 12 13  1  0
 13 14  1  0
 14 15  1  0
 15 16  1  0
 16 17  2  0
 16 18  1  0
 13 19  2  0
 19 20  1  0
 19  3  1  0
  1 21  1  0
  1 22  1  0
  1 23  1  0
  4 24  1  0
  6 25  1  0
 12 26  1  0
 15 27  1  0
 15 28  1  0
 18 29  1  0
 20 30  1  0
M  END
$$$$
