
     RDKit          3D

 54 57  0  0  0  0  0  0  0  0999 V2000
   -0.9339   -3.8840    0.6641 C   0  0  0  0  0  0  0  0  0  0  0  0
    0.0206   -3.1407   -0.0878 O   0  0  0  0  0  0  0  0  0  0  0  0
   -0.1888   -1.8439   -0.5854 C   0  0  0  0  0  0  0  0  0  0  0  0
   -1.4131   -1.1673   -0.4135 C   0  0  0  0  0  0  0  0  0  0  0  0
   -1.5842    0.1364   -0.9153 C   0  0  0  0  0  0  0  0  0  0  0  0
   -2.7798    0.8733   -0.7531 C   0  0  0  0  0  0  0  0  0  0  0  0
   -3.8718    0.3757    0.0411 N   0  0  0  0  0  0  0  0  0  0  0  0
   -5.2198    0.8501   -0.1076 C   0  0  0  0  0  0  0  0  0  0  0  0
   -5.9988    1.0994    1.0364 C   0  0  0  0  0  0  0  0  0  0  0  0
   -5.4765    0.9198    2.2772 F   0  0  0  0  0  0  0  0  0  0  0  0
   -7.3193    1.5423    0.9096 C   0  0  0  0  0  0  0  0  0  0  0  0
   -7.8781    1.7269   -0.3577 C   0  0  0  0  0  0  0  0  0  0  0  0
   -9.5372    2.2777   -0.5116 Cl  0  0  0  0  0  0  0  0  0  0  0  0
   -7.1190    1.4596   -1.5001 C   0  0  0  0  0  0  0  0  0  0  0  0
   -5.7969    1.0167   -1.3812 C   0  0  0  0  0  0  0  0  0  0  0  0
   -5.0995    0.7109   -2.5042 F   0  0  0  0  0  0  0  0  0  0  0  0
   -2.8756    2.1116   -1.3127 N   0  0  0  0  0  0  0  0  0  0  0  0
   -1.8549    2.6577   -2.0188 C   0  0  0  0  0  0  0  0  0  0  0  0
   -0.6938    1.9752   -2.1742 N   0  0  0  0  0  0  0  0  0  0  0  0
   -0.5322    0.7370   -1.6404 C   0  0  0  0  0  0  0  0  0  0  0  0
    0.6780    0.0610   -1.8168 C   0  0  0  0  0  0  0  0  0  0  0  0
    0.8666   -1.2180   -1.2658 C   0  0  0  0  0  0  0  0  0  0  0  0
    2.0782   -1.9171   -1.3904 O   0  0  0  0  0  0  0  0  0  0  0  0
    3.3740   -1.3328   -1.5444 C   0  0  0  0  0  0  0  0  0  0  0  0
    3.8911   -0.7777   -0.1961 C   0  0  0  0  0  0  0  0  0  0  0  0
    5.4267   -0.7624   -0.1547 C   0  0  0  0  0  0  0  0  0  0  0  0
    5.9353   -0.3215    1.2352 C   0  0  0  0  0  0  0  0  0  0  0  0
    5.1288    0.7557    1.8673 N   0  0  0  0  0  0  0  0  0  0  0  0
    4.3311    0.2681    3.0073 C   0  0  0  0  0  0  0  0  0  0  0  0
    4.3073    1.5215    0.9073 C   0  0  0  0  0  0  0  0  0  0  0  0
    3.3279    0.6333    0.1124 C   0  0  0  0  0  0  0  0  0  0  0  0
   -0.4983   -4.8683    0.9314 H   0  0  0  0  0  0  0  0  0  0  0  0
   -1.1864   -3.3416    1.5995 H   0  0  0  0  0  0  0  0  0  0  0  0
   -1.8493   -4.0554    0.0592 H   0  0  0  0  0  0  0  0  0  0  0  0
   -2.2254   -1.6666    0.0921 H   0  0  0  0  0  0  0  0  0  0  0  0
   -3.6533   -0.1987    0.8863 H   0  0  0  0  0  0  0  0  0  0  0  0
   -7.9111    1.7347    1.7980 H   0  0  0  0  0  0  0  0  0  0  0  0
   -7.5563    1.5854   -2.4818 H   0  0  0  0  0  0  0  0  0  0  0  0
   -1.9640    3.6434   -2.4515 H   0  0  0  0  0  0  0  0  0  0  0  0
    1.4575    0.5352   -2.3955 H   0  0  0  0  0  0  0  0  0  0  0  0
    4.0488   -2.1470   -1.8840 H   0  0  0  0  0  0  0  0  0  0  0  0
    3.3919   -0.5698   -2.3496 H   0  0  0  0  0  0  0  0  0  0  0  0
    3.5513   -1.4808    0.5986 H   0  0  0  0  0  0  0  0  0  0  0  0
    5.8277   -1.7775   -0.3727 H   0  0  0  0  0  0  0  0  0  0  0  0
    5.8153   -0.0710   -0.9371 H   0  0  0  0  0  0  0  0  0  0  0  0
    6.9796    0.0419    1.1227 H   0  0  0  0  0  0  0  0  0  0  0  0
    5.9937   -1.2197    1.8931 H   0  0  0  0  0  0  0  0  0  0  0  0
    5.0077   -0.1434    3.7870 H   0  0  0  0  0  0  0  0  0  0  0  0
    3.7612    1.1055    3.4704 H   0  0  0  0  0  0  0  0  0  0  0  0
    3.6165   -0.5248    2.6992 H   0  0  0  0  0  0  0  0  0  0  0  0
    4.9877    2.0415    0.1950 H   0  0  0  0  0  0  0  0  0  0  0  0
    3.7420    2.3240    1.4317 H   0  0  0  0  0  0  0  0  0  0  0  0
    3.0914    1.1794   -0.8257 H   0  0  0  0  0  0  0  0  0  0  0  0
    2.3792    0.5289    0.6831 H   0  0  0  0  0  0  0  0  0  0  0  0
  1  2  1  0
  2  3  1  0
  3  4  2  0
  4  5  1  0
  5  6  2  0
  6  7  1  0
  7  8  1  0
  8  9  2  0
  9 10  1  0
  9 11  1  0
 11 12  2  0
 12 13  1  0
 12 14  1  0
 14 15  2  0
 15 16  1  0
  6 17  1  0
 17 18  2  0
 18 19  1  0
 19 20  2  0
 20 21  1  0
 21 22  2  0
 22 23  1  0
 23 24  1  0
 24 25  1  0
 25 26  1  0
 26 27  1  0
 27 28  1  0
 28 29  1  0
 28 30  1  0
 30 31  1  0
 22  3  1  0
 31 25  1  0
 20  5  1  0
 15  8  1  0
  1 32  1  0
  1 33  1  0
  1 34  1  0
  4 35  1  0
  7 36  1  0
 11 37  1  0
 14 38  1  0
 18 39  1  0
 21 40  1  0
 24 41  1  0
 24 42  1  0
 25 43  1  0
 26 44  1  0
 26 45  1  0
 27 46  1  0
 27 47  1  0
 29 48  1  0
 29 49  1  0
 29 50  1  0
 30 51  1  0
 30 52  1  0
 31 53  1  0
 31 54  1  0
M  END
$$$$
