
     RDKit          3D

 31 32  0  0  0  0  0  0  0  0999 V2000
   -0.6782    3.3586   -1.7109 N   0  0  0  0  0  0  0  0  0  0  0  0
   -0.1140    2.4426   -1.2841 C   0  0  0  0  0  0  0  0  0  0  0  0
    0.5930    1.2987   -0.7514 C   0  0  0  0  0  0  0  0  0  0  0  0
   -0.0095    0.0974   -0.6366 C   0  0  0  0  0  0  0  0  0  0  0  0
   -1.4434   -0.1581   -0.9047 C   0  0  0  0  0  0  0  0  0  0  0  0
   -1.8089   -1.3084   -1.6188 C   0  0  0  0  0  0  0  0  0  0  0  0
   -3.1557   -1.5938   -1.8585 C   0  0  0  0  0  0  0  0  0  0  0  0
   -4.1553   -0.7430   -1.3684 C   0  0  0  0  0  0  0  0  0  0  0  0
   -5.4997   -1.0222   -1.6072 O   0  0  0  0  0  0  0  0  0  0  0  0
   -3.8020    0.3924   -0.6283 C   0  0  0  0  0  0  0  0  0  0  0  0
   -4.7988    1.2283   -0.1280 O   0  0  0  0  0  0  0  0  0  0  0  0
   -2.4499    0.6786   -0.3898 C   0  0  0  0  0  0  0  0  0  0  0  0
    2.0355    1.4593   -0.4386 C   0  0  0  0  0  0  0  0  0  0  0  0
    2.6789    2.4032   -0.9733 O   0  0  0  0  0  0  0  0  0  0  0  0
    2.7595    0.5363    0.4646 C   0  0  0  0  0  0  0  0  0  0  0  0
    3.9416   -0.0698    0.0074 C   0  0  0  0  0  0  0  0  0  0  0  0
    4.6463   -0.9556    0.8264 C   0  0  0  0  0  0  0  0  0  0  0  0
    4.1849   -1.2361    2.1134 C   0  0  0  0  0  0  0  0  0  0  0  0
    3.0230   -0.6241    2.5886 C   0  0  0  0  0  0  0  0  0  0  0  0
    2.3082    0.2657    1.7767 C   0  0  0  0  0  0  0  0  0  0  0  0
    0.8984    1.0678    2.4634 Cl  0  0  0  0  0  0  0  0  0  0  0  0
    0.5899   -0.7688   -0.3821 H   0  0  0  0  0  0  0  0  0  0  0  0
   -1.0493   -1.9798   -2.0010 H   0  0  0  0  0  0  0  0  0  0  0  0
   -3.4218   -2.4784   -2.4230 H   0  0  0  0  0  0  0  0  0  0  0  0
   -5.7857   -1.8370   -2.1375 H   0  0  0  0  0  0  0  0  0  0  0  0
   -4.5750    2.0563    0.4115 H   0  0  0  0  0  0  0  0  0  0  0  0
   -2.1898    1.5385    0.2145 H   0  0  0  0  0  0  0  0  0  0  0  0
    4.3102    0.1321   -0.9911 H   0  0  0  0  0  0  0  0  0  0  0  0
    5.5508   -1.4255    0.4623 H   0  0  0  0  0  0  0  0  0  0  0  0
    4.7331   -1.9215    2.7469 H   0  0  0  0  0  0  0  0  0  0  0  0
    2.6839   -0.8340    3.5951 H   0  0  0  0  0  0  0  0  0  0  0  0
  1  2  3  0
  2  3  1  0
  3  4  2  0
  4  5  1  0
  5  6  2  0
  6  7  1  0
  7  8  2  0
  8  9  1  0
  8 10  1  0
 10 11  1  0
 10 12  2  0
  3 13  1  0
 13 14  2  0
 13 15  1  0
 15 16  2  0
 16 17  1  0
 17 18  2  0
 18 19  1  0
 19 20  2  0
 20 21  1  0
 12  5  1  0
 20 15  1  0
  4 22  1  0
  6 23  1  0
  7 24  1  0
  9 25  1  0
 11 26  1  0
 12 27  1  0
 16 28  1  0
 17 29  1  0
 18 30  1  0
 19 31  1  0
M  END
$$$$
