
     RDKit          3D

 39 40  0  0  0  0  0  0  0  0999 V2000
   -2.3091    1.0551   -3.1975 N   0  0  0  0  0  0  0  0  0  0  0  0
   -1.8929    0.8918   -2.1299 C   0  0  0  0  0  0  0  0  0  0  0  0
   -1.3701    0.6865   -0.7972 C   0  0  0  0  0  0  0  0  0  0  0  0
   -2.1885    0.4430    0.2465 C   0  0  0  0  0  0  0  0  0  0  0  0
   -3.6664    0.3852    0.1648 C   0  0  0  0  0  0  0  0  0  0  0  0
   -4.4104    1.3936   -0.4717 C   0  0  0  0  0  0  0  0  0  0  0  0
   -5.8058    1.3284   -0.5010 C   0  0  0  0  0  0  0  0  0  0  0  0
   -6.4773    0.2675    0.1212 C   0  0  0  0  0  0  0  0  0  0  0  0
   -7.8695    0.2036    0.0883 O   0  0  0  0  0  0  0  0  0  0  0  0
   -5.7411   -0.7290    0.7841 C   0  0  0  0  0  0  0  0  0  0  0  0
   -6.3793   -1.7922    1.4221 O   0  0  0  0  0  0  0  0  0  0  0  0
   -4.3434   -0.6599    0.8111 C   0  0  0  0  0  0  0  0  0  0  0  0
    0.1013    0.7305   -0.6253 C   0  0  0  0  0  0  0  0  0  0  0  0
    0.7867    1.4353   -1.4162 O   0  0  0  0  0  0  0  0  0  0  0  0
    0.7615   -0.0297    0.4019 N   0  0  0  0  0  0  0  0  0  0  0  0
    2.1952    0.0867    0.6604 C   0  0  0  0  0  0  0  0  0  0  0  0
    2.9918   -0.7138   -0.3733 C   0  0  0  0  0  0  0  0  0  0  0  0
    4.4679   -0.6122   -0.0984 C   0  0  0  0  0  0  0  0  0  0  0  0
    5.0966   -1.5369    0.7524 C   0  0  0  0  0  0  0  0  0  0  0  0
    6.4620   -1.4213    1.0317 C   0  0  0  0  0  0  0  0  0  0  0  0
    7.2057   -0.3783    0.4728 C   0  0  0  0  0  0  0  0  0  0  0  0
    6.5844    0.5535   -0.3633 C   0  0  0  0  0  0  0  0  0  0  0  0
    5.2192    0.4416   -0.6454 C   0  0  0  0  0  0  0  0  0  0  0  0
   -1.7649    0.2466    1.2225 H   0  0  0  0  0  0  0  0  0  0  0  0
   -3.9159    2.2422   -0.9268 H   0  0  0  0  0  0  0  0  0  0  0  0
   -6.3655    2.1093   -0.9999 H   0  0  0  0  0  0  0  0  0  0  0  0
   -8.4221    0.9110   -0.3818 H   0  0  0  0  0  0  0  0  0  0  0  0
   -7.3878   -1.8868    1.4317 H   0  0  0  0  0  0  0  0  0  0  0  0
   -3.7841   -1.4305    1.3285 H   0  0  0  0  0  0  0  0  0  0  0  0
    0.2233   -0.7194    0.9717 H   0  0  0  0  0  0  0  0  0  0  0  0
    2.4126   -0.3114    1.6759 H   0  0  0  0  0  0  0  0  0  0  0  0
    2.4963    1.1573    0.6428 H   0  0  0  0  0  0  0  0  0  0  0  0
    2.6724   -1.7787   -0.3418 H   0  0  0  0  0  0  0  0  0  0  0  0
    2.7752   -0.3364   -1.3959 H   0  0  0  0  0  0  0  0  0  0  0  0
    4.5298   -2.3444    1.1991 H   0  0  0  0  0  0  0  0  0  0  0  0
    6.9429   -2.1385    1.6844 H   0  0  0  0  0  0  0  0  0  0  0  0
    8.2621   -0.2895    0.6911 H   0  0  0  0  0  0  0  0  0  0  0  0
    7.1598    1.3647   -0.7903 H   0  0  0  0  0  0  0  0  0  0  0  0
    4.7476    1.1754   -1.2874 H   0  0  0  0  0  0  0  0  0  0  0  0
  1  2  3  0
  2  3  1  0
  3  4  2  0
  4  5  1  0
  5  6  2  0
  6  7  1  0
  7  8  2  0
  8  9  1  0
  8 10  1  0
 10 11  1  0
 10 12  2  0
  3 13  1  0
 13 14  2  0
 13 15  1  0
 15 16  1  0
 16 17  1  0
 17 18  1  0
 18 19  2  0
 19 20  1  0
 20 21  2  0
 21 22  1  0
 22 23  2  0
 12  5  1  0
 23 18  1  0
  4 24  1  0
  6 25  1  0
  7 26  1  0
  9 27  1  0
 11 28  1  0
 12 29  1  0
 15 30  1  0
 16 31  1  0
 16 32  1  0
 17 33  1  0
 17 34  1  0
 19 35  1  0
 20 36  1  0
 21 37  1  0
 22 38  1  0
 23 39  1  0
M  END
$$$$
