
     RDKit          3D

 76 84  0  0  0  0  0  0  0  0999 V2000
   -0.2430    1.8990    1.6375 C   0  0  0  0  0  0  0  0  0  0  0  0
   -0.2028    0.8197    0.7285 O   0  0  0  0  0  0  0  0  0  0  0  0
    0.4466    1.1856   -0.4829 C   0  0  1  0  0  0  0  0  0  0  0  0
    1.5463    0.1658   -0.7998 C   0  0  1  0  0  0  0  0  0  0  0  0
    2.6640    0.2093    0.1724 N   0  0  0  0  0  0  0  0  0  0  0  0
    2.5135   -0.2583    1.5582 C   0  0  0  0  0  0  0  0  0  0  0  0
    3.9389    0.7240   -0.2653 C   0  0  0  0  0  0  0  0  0  0  0  0
    3.9783    1.6882   -1.0761 O   0  0  0  0  0  0  0  0  0  0  0  0
    5.2096    0.0845    0.1221 C   0  0  0  0  0  0  0  0  0  0  0  0
    5.9917   -0.5289   -0.8649 C   0  0  0  0  0  0  0  0  0  0  0  0
    7.1922   -1.1625   -0.5278 C   0  0  0  0  0  0  0  0  0  0  0  0
    7.6333   -1.1858    0.8066 C   0  0  0  0  0  0  0  0  0  0  0  0
    8.8721   -1.9064    1.1700 C   0  0  0  0  0  0  0  0  0  0  0  0
    9.2117   -2.0208    2.3786 O   0  0  0  0  0  0  0  0  0  0  0  0
    9.6667   -2.4785    0.1792 O   0  0  0  0  0  0  0  0  0  0  0  0
    6.8665   -0.5339    1.7877 C   0  0  0  0  0  0  0  0  0  0  0  0
    5.6693    0.1043    1.4469 C   0  0  0  0  0  0  0  0  0  0  0  0
    0.9499   -1.2379   -0.9397 C   0  0  0  0  0  0  0  0  0  0  0  0
   -0.4208   -1.2125   -1.6609 C   0  0  2  0  0  0  0  0  0  0  0  0
   -0.6630   -0.0293   -2.3986 O   0  0  0  0  0  0  0  0  0  0  0  0
   -0.5861    1.1983   -1.6729 C   0  0  2  0  0  0  0  0  0  0  0  0
   -0.1199    2.2042   -2.7547 C   0  0  0  0  0  0  0  0  0  0  0  0
   -1.9430    1.5242   -1.1651 N   0  0  0  0  0  0  0  0  0  0  0  0
   -2.5606    2.7308   -0.9505 C   0  0  0  0  0  0  0  0  0  0  0  0
   -2.0602    4.0321   -1.1384 C   0  0  0  0  0  0  0  0  0  0  0  0
   -2.8743    5.1274   -0.8062 C   0  0  0  0  0  0  0  0  0  0  0  0
   -4.1570    4.9312   -0.2676 C   0  0  0  0  0  0  0  0  0  0  0  0
   -4.6329    3.6358   -0.0295 C   0  0  0  0  0  0  0  0  0  0  0  0
   -3.8123    2.5602   -0.3759 C   0  0  0  0  0  0  0  0  0  0  0  0
   -3.9630    1.2115   -0.1629 C   0  0  0  0  0  0  0  0  0  0  0  0
   -4.9470    0.4701    0.5118 C   0  0  0  0  0  0  0  0  0  0  0  0
   -4.7505   -0.8932    0.7257 C   0  0  0  0  0  0  0  0  0  0  0  0
   -3.5590   -1.5110    0.2847 C   0  0  0  0  0  0  0  0  0  0  0  0
   -3.0324   -2.7895    0.4044 C   0  0  0  0  0  0  0  0  0  0  0  0
   -3.4833   -3.9464    1.0498 C   0  0  0  0  0  0  0  0  0  0  0  0
   -2.6936   -5.1038    0.9684 C   0  0  0  0  0  0  0  0  0  0  0  0
   -1.4751   -5.0931    0.2626 C   0  0  0  0  0  0  0  0  0  0  0  0
   -1.0247   -3.9192   -0.3600 C   0  0  0  0  0  0  0  0  0  0  0  0
   -1.8181   -2.7682   -0.2608 C   0  0  0  0  0  0  0  0  0  0  0  0
   -1.5433   -1.5389   -0.7692 N   0  0  0  0  0  0  0  0  0  0  0  0
   -2.6065   -0.7706   -0.4245 C   0  0  0  0  0  0  0  0  0  0  0  0
   -2.8082    0.6090   -0.6467 C   0  0  0  0  0  0  0  0  0  0  0  0
   -5.9372   -1.3660    1.4159 C   0  0  0  0  0  0  0  0  0  0  0  0
   -6.2209   -2.5576    1.6993 O   0  0  0  0  0  0  0  0  0  0  0  0
   -6.8238   -0.2838    1.6565 N   0  0  0  0  0  0  0  0  0  0  0  0
   -6.2445    0.9379    1.1061 C   0  0  0  0  0  0  0  0  0  0  0  0
    0.7831    2.1758    1.9695 H   0  0  0  0  0  0  0  0  0  0  0  0
   -0.8187    1.5875    2.5350 H   0  0  0  0  0  0  0  0  0  0  0  0
   -0.7554    2.7823    1.1974 H   0  0  0  0  0  0  0  0  0  0  0  0
    0.9513    2.1798   -0.4036 H   0  0  0  0  0  0  0  0  0  0  0  0
    1.9417    0.4277   -1.8081 H   0  0  0  0  0  0  0  0  0  0  0  0
    3.1861   -1.1201    1.7445 H   0  0  0  0  0  0  0  0  0  0  0  0
    1.4826   -0.5862    1.7857 H   0  0  0  0  0  0  0  0  0  0  0  0
    2.7548    0.5690    2.2586 H   0  0  0  0  0  0  0  0  0  0  0  0
    5.6612   -0.5327   -1.8963 H   0  0  0  0  0  0  0  0  0  0  0  0
    7.7641   -1.6435   -1.3089 H   0  0  0  0  0  0  0  0  0  0  0  0
   10.4826   -3.0288    0.4207 H   0  0  0  0  0  0  0  0  0  0  0  0
    7.1886   -0.5209    2.8213 H   0  0  0  0  0  0  0  0  0  0  0  0
    5.1073    0.6105    2.2189 H   0  0  0  0  0  0  0  0  0  0  0  0
    1.6651   -1.8518   -1.5307 H   0  0  0  0  0  0  0  0  0  0  0  0
    0.8414   -1.7408    0.0375 H   0  0  0  0  0  0  0  0  0  0  0  0
   -0.3792   -2.0209   -2.4229 H   0  0  0  0  0  0  0  0  0  0  0  0
   -0.9798    2.5550   -3.3636 H   0  0  0  0  0  0  0  0  0  0  0  0
    0.4445    3.0659   -2.3503 H   0  0  0  0  0  0  0  0  0  0  0  0
    0.5930    1.7116   -3.4512 H   0  0  0  0  0  0  0  0  0  0  0  0
   -1.0704    4.2431   -1.4868 H   0  0  0  0  0  0  0  0  0  0  0  0
   -2.5043    6.1335   -0.9504 H   0  0  0  0  0  0  0  0  0  0  0  0
   -4.7715    5.7848   -0.0158 H   0  0  0  0  0  0  0  0  0  0  0  0
   -5.6067    3.4905    0.4135 H   0  0  0  0  0  0  0  0  0  0  0  0
   -4.3923   -3.9747    1.6213 H   0  0  0  0  0  0  0  0  0  0  0  0
   -3.0220   -6.0129    1.4560 H   0  0  0  0  0  0  0  0  0  0  0  0
   -0.8737   -5.9907    0.2119 H   0  0  0  0  0  0  0  0  0  0  0  0
   -0.0807   -3.9162   -0.8887 H   0  0  0  0  0  0  0  0  0  0  0  0
   -7.7601   -0.3584    2.1164 H   0  0  0  0  0  0  0  0  0  0  0  0
   -6.0647    1.6679    1.9217 H   0  0  0  0  0  0  0  0  0  0  0  0
   -6.9115    1.3568    0.3221 H   0  0  0  0  0  0  0  0  0  0  0  0
  1  2  1  0
  2  3  1  0
  3  4  1  0
  4  5  1  0
  5  6  1  0
  5  7  1  0
  7  8  2  0
  7  9  1  0
  9 10  2  0
 10 11  1  0
 11 12  2  0
 12 13  1  0
 13 14  2  0
 13 15  1  0
 12 16  1  0
 16 17  2  0
  4 18  1  0
 18 19  1  0
 19 20  1  0
 20 21  1  0
 21 22  1  6
 21 23  1  0
 23 24  1  0
 24 25  2  0
 25 26  1  0
 26 27  2  0
 27 28  1  0
 28 29  2  0
 29 30  1  0
 30 31  2  0
 31 32  1  0
 32 33  2  0
 33 34  1  0
 34 35  2  0
 35 36  1  0
 36 37  2  0
 37 38  1  0
 38 39  2  0
 39 40  1  0
 40 41  1  0
 41 42  2  0
 32 43  1  0
 43 44  2  0
 43 45  1  0
 45 46  1  0
 21  3  1  0
 42 23  1  0
 17  9  1  0
 40 19  1  0
 29 24  1  0
 42 30  1  0
 46 31  1  0
 41 33  1  0
 39 34  1  0
  1 47  1  0
  1 48  1  0
  1 49  1  0
  3 50  1  1
  4 51  1  6
  6 52  1  0
  6 53  1  0
  6 54  1  0
 10 55  1  0
 11 56  1  0
 15 57  1  0
 16 58  1  0
 17 59  1  0
 18 60  1  0
 18 61  1  0
 19 62  1  6
 22 63  1  0
 22 64  1  0
 22 65  1  0
 25 66  1  0
 26 67  1  0
 27 68  1  0
 28 69  1  0
 35 70  1  0
 36 71  1  0
 37 72  1  0
 38 73  1  0
 45 74  1  0
 46 75  1  0
 46 76  1  0
M  END
$$$$
