
     RDKit          3D

 66 69  0  0  0  0  0  0  0  0999 V2000
  -10.4630   -1.5547   -2.0406 C   0  0  0  0  0  0  0  0  0  0  0  0
   -9.6904   -0.3120   -1.0302 S   0  0  0  0  0  6  0  0  0  0  0  0
  -10.2750    1.0314   -1.3643 O   0  0  0  0  0  0  0  0  0  0  0  0
   -9.9455   -0.6217    0.4180 O   0  0  0  0  0  0  0  0  0  0  0  0
   -7.9326   -0.3053   -1.3457 C   0  0  0  0  0  0  0  0  0  0  0  0
   -7.2372    0.7960   -0.5478 C   0  0  0  0  0  0  0  0  0  0  0  0
   -5.7941    0.7605   -0.8162 N   0  0  0  0  0  0  0  0  0  0  0  0
   -5.1140    2.0114   -0.4412 C   0  0  0  0  0  0  0  0  0  0  0  0
   -5.1849    2.3451    1.0649 C   0  0  0  0  0  0  0  0  0  0  0  0
   -4.5726    1.2729    1.9705 C   0  0  0  0  0  0  0  0  0  0  0  0
   -3.2440    0.9707    1.5496 O   0  0  0  0  0  0  0  0  0  0  0  0
   -2.4075    0.0330    2.1724 C   0  0  0  0  0  0  0  0  0  0  0  0
   -2.7831   -0.6510    3.3439 C   0  0  0  0  0  0  0  0  0  0  0  0
   -1.9076   -1.5611    3.9404 C   0  0  0  0  0  0  0  0  0  0  0  0
   -0.6561   -1.8112    3.3700 C   0  0  0  0  0  0  0  0  0  0  0  0
    0.1941   -2.6866    3.9657 N   0  0  0  0  0  0  0  0  0  0  0  0
    1.4135   -2.9478    3.4330 C   0  0  0  0  0  0  0  0  0  0  0  0
    1.7983   -2.3413    2.2816 N   0  0  0  0  0  0  0  0  0  0  0  0
    0.9939   -1.4521    1.6365 C   0  0  0  0  0  0  0  0  0  0  0  0
    1.4253   -0.8937    0.3840 N   0  0  0  0  0  0  0  0  0  0  0  0
    2.8047   -0.6446    0.0627 C   0  0  0  0  0  0  0  0  0  0  0  0
    3.7378   -0.3059    1.0581 C   0  0  0  0  0  0  0  0  0  0  0  0
    5.0654   -0.0319    0.7168 C   0  0  0  0  0  0  0  0  0  0  0  0
    5.4832   -0.0844   -0.6178 C   0  0  0  0  0  0  0  0  0  0  0  0
    6.8256    0.2002   -0.9080 O   0  0  0  0  0  0  0  0  0  0  0  0
    7.3994    0.1357   -2.2106 C   0  0  0  0  0  0  0  0  0  0  0  0
    8.8568    0.4863   -2.1294 C   0  0  0  0  0  0  0  0  0  0  0  0
    9.7607   -0.4094   -1.5350 C   0  0  0  0  0  0  0  0  0  0  0  0
   11.1171   -0.0824   -1.4408 C   0  0  0  0  0  0  0  0  0  0  0  0
   11.5790    1.1412   -1.9347 C   0  0  0  0  0  0  0  0  0  0  0  0
   10.6845    2.0418   -2.5193 C   0  0  0  0  0  0  0  0  0  0  0  0
    9.3267    1.7197   -2.6140 C   0  0  0  0  0  0  0  0  0  0  0  0
    4.5482   -0.4139   -1.6168 C   0  0  0  0  0  0  0  0  0  0  0  0
    3.2192   -0.6824   -1.2766 C   0  0  0  0  0  0  0  0  0  0  0  0
   -0.2750   -1.1538    2.1788 C   0  0  0  0  0  0  0  0  0  0  0  0
   -1.1546   -0.2188    1.5994 C   0  0  0  0  0  0  0  0  0  0  0  0
  -10.0280   -2.5479   -1.8048 H   0  0  0  0  0  0  0  0  0  0  0  0
  -11.5539   -1.5721   -1.8388 H   0  0  0  0  0  0  0  0  0  0  0  0
  -10.2901   -1.3215   -3.1116 H   0  0  0  0  0  0  0  0  0  0  0  0
   -7.7630   -0.1443   -2.4319 H   0  0  0  0  0  0  0  0  0  0  0  0
   -7.5159   -1.2955   -1.0633 H   0  0  0  0  0  0  0  0  0  0  0  0
   -7.6651    1.7780   -0.8500 H   0  0  0  0  0  0  0  0  0  0  0  0
   -7.4274    0.6369    0.5368 H   0  0  0  0  0  0  0  0  0  0  0  0
   -5.3616   -0.0481   -0.3128 H   0  0  0  0  0  0  0  0  0  0  0  0
   -4.0486    1.9406   -0.7491 H   0  0  0  0  0  0  0  0  0  0  0  0
   -5.5479    2.8566   -1.0190 H   0  0  0  0  0  0  0  0  0  0  0  0
   -6.2372    2.5268    1.3692 H   0  0  0  0  0  0  0  0  0  0  0  0
   -4.6345    3.2966    1.2315 H   0  0  0  0  0  0  0  0  0  0  0  0
   -5.1965    0.3540    1.9518 H   0  0  0  0  0  0  0  0  0  0  0  0
   -4.5527    1.6612    3.0121 H   0  0  0  0  0  0  0  0  0  0  0  0
   -3.7446   -0.4782    3.8077 H   0  0  0  0  0  0  0  0  0  0  0  0
   -2.2043   -2.0701    4.8497 H   0  0  0  0  0  0  0  0  0  0  0  0
    2.0764   -3.6484    3.9215 H   0  0  0  0  0  0  0  0  0  0  0  0
    0.7195   -0.7836   -0.3786 H   0  0  0  0  0  0  0  0  0  0  0  0
    3.4372   -0.2306    2.0950 H   0  0  0  0  0  0  0  0  0  0  0  0
    5.7729    0.2298    1.4933 H   0  0  0  0  0  0  0  0  0  0  0  0
    7.2929   -0.8941   -2.6162 H   0  0  0  0  0  0  0  0  0  0  0  0
    6.8668    0.8374   -2.8890 H   0  0  0  0  0  0  0  0  0  0  0  0
    9.4138   -1.3584   -1.1445 H   0  0  0  0  0  0  0  0  0  0  0  0
   11.8100   -0.7774   -0.9841 H   0  0  0  0  0  0  0  0  0  0  0  0
   12.6292    1.3928   -1.8614 H   0  0  0  0  0  0  0  0  0  0  0  0
   11.0438    2.9898   -2.8991 H   0  0  0  0  0  0  0  0  0  0  0  0
    8.6454    2.4302   -3.0659 H   0  0  0  0  0  0  0  0  0  0  0  0
    4.8354   -0.4598   -2.6584 H   0  0  0  0  0  0  0  0  0  0  0  0
    2.5115   -0.9292   -2.0577 H   0  0  0  0  0  0  0  0  0  0  0  0
   -0.8797    0.3333    0.7106 H   0  0  0  0  0  0  0  0  0  0  0  0
  1  2  1  0
  2  3  2  0
  2  4  2  0
  2  5  1  0
  5  6  1  0
  6  7  1  0
  7  8  1  0
  8  9  1  0
  9 10  1  0
 10 11  1  0
 11 12  1  0
 12 13  2  0
 13 14  1  0
 14 15  2  0
 15 16  1  0
 16 17  2  0
 17 18  1  0
 18 19  2  0
 19 20  1  0
 20 21  1  0
 21 22  2  0
 22 23  1  0
 23 24  2  0
 24 25  1  0
 25 26  1  0
 26 27  1  0
 27 28  2  0
 28 29  1  0
 29 30  2  0
 30 31  1  0
 31 32  2  0
 24 33  1  0
 33 34  2  0
 19 35  1  0
 35 36  2  0
 36 12  1  0
 35 15  1  0
 34 21  1  0
 32 27  1  0
  1 37  1  0
  1 38  1  0
  1 39  1  0
  5 40  1  0
  5 41  1  0
  6 42  1  0
  6 43  1  0
  7 44  1  0
  8 45  1  0
  8 46  1  0
  9 47  1  0
  9 48  1  0
 10 49  1  0
 10 50  1  0
 13 51  1  0
 14 52  1  0
 17 53  1  0
 20 54  1  0
 22 55  1  0
 23 56  1  0
 26 57  1  0
 26 58  1  0
 28 59  1  0
 29 60  1  0
 30 61  1  0
 31 62  1  0
 32 63  1  0
 33 64  1  0
 34 65  1  0
 36 66  1  0
M  END
$$$$
