
     RDKit          3D

 21 21  0  0  0  0  0  0  0  0999 V2000
    4.1596   -3.4092    0.8552 N   0  0  0  0  0  0  0  0  0  0  0  0
    3.4353   -2.5382    0.6182 C   0  0  0  0  0  0  0  0  0  0  0  0
    2.5347   -1.4551    0.3236 C   0  0  0  0  0  0  0  0  0  0  0  0
    3.0996   -0.2390   -0.2071 C   0  0  0  0  0  0  0  0  0  0  0  0
    3.5542    0.7361   -0.6340 N   0  0  0  0  0  0  0  0  0  0  0  0
    1.2117   -1.6364    0.4739 C   0  0  0  0  0  0  0  0  0  0  0  0
    0.1802   -0.6093    0.1971 C   0  0  0  0  0  0  0  0  0  0  0  0
    0.3123    0.7114    0.6532 C   0  0  0  0  0  0  0  0  0  0  0  0
   -0.6939    1.6528    0.4030 C   0  0  0  0  0  0  0  0  0  0  0  0
   -0.5500    2.9663    0.8478 O   0  0  0  0  0  0  0  0  0  0  0  0
   -1.8541    1.2811   -0.2912 C   0  0  0  0  0  0  0  0  0  0  0  0
   -2.8228    2.2610   -0.5224 O   0  0  0  0  0  0  0  0  0  0  0  0
   -2.0074   -0.0572   -0.7258 C   0  0  0  0  0  0  0  0  0  0  0  0
   -3.1412   -0.5039   -1.4079 O   0  0  0  0  0  0  0  0  0  0  0  0
   -0.9930   -0.9870   -0.4687 C   0  0  0  0  0  0  0  0  0  0  0  0
    0.8537   -2.6187    0.7648 H   0  0  0  0  0  0  0  0  0  0  0  0
    1.1833    1.0087    1.2232 H   0  0  0  0  0  0  0  0  0  0  0  0
    0.2750    3.2689    1.3526 H   0  0  0  0  0  0  0  0  0  0  0  0
   -3.6866    2.0969   -1.0187 H   0  0  0  0  0  0  0  0  0  0  0  0
   -3.9321    0.0813   -1.6347 H   0  0  0  0  0  0  0  0  0  0  0  0
   -1.1183   -2.0106   -0.8022 H   0  0  0  0  0  0  0  0  0  0  0  0
  1  2  3  0
  2  3  1  0
  3  4  1  0
  4  5  3  0
  3  6  2  3
  6  7  1  0
  7  8  2  0
  8  9  1  0
  9 10  1  0
  9 11  2  0
 11 12  1  0
 11 13  1  0
 13 14  1  0
 13 15  2  0
 15  7  1  0
  6 16  1  0
  8 17  1  0
 10 18  1  0
 12 19  1  0
 14 20  1  0
 15 21  1  0
M  END
$$$$
