
     RDKit          3D

 40 43  0  0  0  0  0  0  0  0999 V2000
    2.2793    4.2592   -1.4728 O   0  0  0  0  0  0  0  0  0  0  0  0
    1.1351    3.9451   -1.0522 C   0  0  0  0  0  0  0  0  0  0  0  0
    0.0757    4.8788   -0.8504 N   0  0  0  0  0  0  0  0  0  0  0  0
   -1.0104    4.0858   -0.3747 C   0  0  0  0  0  0  0  0  0  0  0  0
   -2.1426    4.5492   -0.0775 O   0  0  0  0  0  0  0  0  0  0  0  0
   -0.6134    2.6848   -0.2905 C   0  0  0  0  0  0  0  0  0  0  0  0
   -1.3270    1.5606    0.1104 C   0  0  0  0  0  0  0  0  0  0  0  0
   -0.6787    0.3045    0.0810 C   0  0  0  0  0  0  0  0  0  0  0  0
   -1.3704   -0.8732    0.5326 N   0  0  0  0  0  0  0  0  0  0  0  0
   -2.7577   -1.1449    0.2671 C   0  0  0  0  0  0  0  0  0  0  0  0
   -3.3952   -0.6446   -0.8839 C   0  0  0  0  0  0  0  0  0  0  0  0
   -4.7388   -0.9423   -1.1317 C   0  0  0  0  0  0  0  0  0  0  0  0
   -5.4533   -1.7504   -0.2432 C   0  0  0  0  0  0  0  0  0  0  0  0
   -6.7555   -2.0392   -0.4862 F   0  0  0  0  0  0  0  0  0  0  0  0
   -4.8222   -2.2680    0.8912 C   0  0  0  0  0  0  0  0  0  0  0  0
   -3.4786   -1.9726    1.1422 C   0  0  0  0  0  0  0  0  0  0  0  0
    0.6869    0.2201   -0.3174 C   0  0  0  0  0  0  0  0  0  0  0  0
    1.3404   -1.0599   -0.3791 N   0  0  0  0  0  0  0  0  0  0  0  0
    2.7201   -1.2780   -0.0360 C   0  0  0  0  0  0  0  0  0  0  0  0
    3.4114   -2.3572   -0.6086 C   0  0  0  0  0  0  0  0  0  0  0  0
    4.7466   -2.6010   -0.2721 C   0  0  0  0  0  0  0  0  0  0  0  0
    5.3985   -1.7772    0.6495 C   0  0  0  0  0  0  0  0  0  0  0  0
    6.6925   -2.0159    0.9761 F   0  0  0  0  0  0  0  0  0  0  0  0
    4.7131   -0.7126    1.2410 C   0  0  0  0  0  0  0  0  0  0  0  0
    3.3779   -0.4657    0.9069 C   0  0  0  0  0  0  0  0  0  0  0  0
    1.3728    1.3853   -0.7308 C   0  0  0  0  0  0  0  0  0  0  0  0
    0.6954    2.5994   -0.7008 C   0  0  0  0  0  0  0  0  0  0  0  0
    0.0917    5.9097   -1.0140 H   0  0  0  0  0  0  0  0  0  0  0  0
   -2.3504    1.6584    0.4492 H   0  0  0  0  0  0  0  0  0  0  0  0
   -0.8371   -1.5628    1.1096 H   0  0  0  0  0  0  0  0  0  0  0  0
   -2.8523   -0.0390   -1.5978 H   0  0  0  0  0  0  0  0  0  0  0  0
   -5.2233   -0.5514   -2.0172 H   0  0  0  0  0  0  0  0  0  0  0  0
   -5.3726   -2.9001    1.5762 H   0  0  0  0  0  0  0  0  0  0  0  0
   -3.0004   -2.3813    2.0235 H   0  0  0  0  0  0  0  0  0  0  0  0
    0.7837   -1.8777   -0.7170 H   0  0  0  0  0  0  0  0  0  0  0  0
    2.9168   -3.0038   -1.3225 H   0  0  0  0  0  0  0  0  0  0  0  0
    5.2743   -3.4303   -0.7253 H   0  0  0  0  0  0  0  0  0  0  0  0
    5.2135   -0.0818    1.9645 H   0  0  0  0  0  0  0  0  0  0  0  0
    2.8571    0.3472    1.3958 H   0  0  0  0  0  0  0  0  0  0  0  0
    2.3970    1.3424   -1.0783 H   0  0  0  0  0  0  0  0  0  0  0  0
  1  2  2  0
  2  3  1  0
  3  4  1  0
  4  5  2  0
  4  6  1  0
  6  7  2  0
  7  8  1  0
  8  9  1  0
  9 10  1  0
 10 11  2  0
 11 12  1  0
 12 13  2  0
 13 14  1  0
 13 15  1  0
 15 16  2  0
  8 17  2  0
 17 18  1  0
 18 19  1  0
 19 20  2  0
 20 21  1  0
 21 22  2  0
 22 23  1  0
 22 24  1  0
 24 25  2  0
 17 26  1  0
 26 27  2  0
 27  2  1  0
 27  6  1  0
 16 10  1  0
 25 19  1  0
  3 28  1  0
  7 29  1  0
  9 30  1  0
 11 31  1  0
 12 32  1  0
 15 33  1  0
 16 34  1  0
 18 35  1  0
 20 36  1  0
 21 37  1  0
 24 38  1  0
 25 39  1  0
 26 40  1  0
M  END
$$$$
