
     RDKit          3D

 67 74  0  0  0  0  0  0  0  0999 V2000
    2.3454   -0.6577   -3.3063 C   0  0  0  0  0  0  0  0  0  0  0  0
    2.5270   -0.4036   -1.9197 O   0  0  0  0  0  0  0  0  0  0  0  0
    3.7821   -0.1803   -1.3449 C   0  0  0  0  0  0  0  0  0  0  0  0
    4.8100   -0.1822   -2.0785 O   0  0  0  0  0  0  0  0  0  0  0  0
    3.9176    0.0301    0.0811 N   0  0  0  0  0  0  0  0  0  0  0  0
    5.2777    0.1100    0.6316 C   0  0  0  0  0  0  0  0  0  0  0  0
    2.7608    0.2105    0.9922 C   0  0  1  0  0  0  0  0  0  0  0  0
    1.7781    1.2545    0.4835 C   0  0  0  0  0  0  0  0  0  0  0  0
    0.7598    1.5586    1.5940 C   0  0  2  0  0  0  0  0  0  0  0  0
    0.4787    0.4773    2.4672 O   0  0  0  0  0  0  0  0  0  0  0  0
    0.5654   -0.8305    1.9047 C   0  0  2  0  0  0  0  0  0  0  0  0
    0.3152   -1.7480    3.1275 C   0  0  0  0  0  0  0  0  0  0  0  0
    2.0217   -1.1096    1.3356 C   0  0  1  0  0  0  0  0  0  0  0  0
    1.9554   -1.9563    0.1977 O   0  0  0  0  0  0  0  0  0  0  0  0
    2.9168   -2.9920    0.2677 C   0  0  0  0  0  0  0  0  0  0  0  0
   -0.5207   -1.0648    0.8894 N   0  0  0  0  0  0  0  0  0  0  0  0
   -0.9867   -2.2694    0.4135 C   0  0  0  0  0  0  0  0  0  0  0  0
   -0.4681   -3.5606    0.6202 C   0  0  0  0  0  0  0  0  0  0  0  0
   -1.1192   -4.6609    0.0393 C   0  0  0  0  0  0  0  0  0  0  0  0
   -2.2757   -4.4797   -0.7373 C   0  0  0  0  0  0  0  0  0  0  0  0
   -2.7920   -3.1951   -0.9457 C   0  0  0  0  0  0  0  0  0  0  0  0
   -2.1266   -2.1148   -0.3609 C   0  0  0  0  0  0  0  0  0  0  0  0
   -2.3998   -0.7740   -0.3902 C   0  0  0  0  0  0  0  0  0  0  0  0
   -3.4260   -0.0343   -1.0047 C   0  0  0  0  0  0  0  0  0  0  0  0
   -3.4429    1.3530   -0.8786 C   0  0  0  0  0  0  0  0  0  0  0  0
   -2.4164    2.0026   -0.1614 C   0  0  0  0  0  0  0  0  0  0  0  0
   -2.0512    3.3312    0.0284 C   0  0  0  0  0  0  0  0  0  0  0  0
   -2.5971    4.5388   -0.4184 C   0  0  0  0  0  0  0  0  0  0  0  0
   -1.9243    5.7312   -0.1040 C   0  0  0  0  0  0  0  0  0  0  0  0
   -0.7200    5.7038    0.6247 C   0  0  0  0  0  0  0  0  0  0  0  0
   -0.1717    4.4835    1.0480 C   0  0  0  0  0  0  0  0  0  0  0  0
   -0.8628    3.3053    0.7427 C   0  0  0  0  0  0  0  0  0  0  0  0
   -0.4855    2.0339    1.0170 N   0  0  0  0  0  0  0  0  0  0  0  0
   -1.4213    1.2456    0.4627 C   0  0  0  0  0  0  0  0  0  0  0  0
   -1.4069   -0.1586    0.3640 C   0  0  0  0  0  0  0  0  0  0  0  0
   -4.6191    1.8095   -1.5948 C   0  0  0  0  0  0  0  0  0  0  0  0
   -5.0519    2.9866   -1.6585 O   0  0  0  0  0  0  0  0  0  0  0  0
   -5.2952    0.7034   -2.1744 N   0  0  0  0  0  0  0  0  0  0  0  0
   -4.5809   -0.5229   -1.8313 C   0  0  0  0  0  0  0  0  0  0  0  0
    2.7062    0.2075   -3.9012 H   0  0  0  0  0  0  0  0  0  0  0  0
    2.8988   -1.5748   -3.6001 H   0  0  0  0  0  0  0  0  0  0  0  0
    1.2656   -0.8090   -3.5093 H   0  0  0  0  0  0  0  0  0  0  0  0
    5.8017    0.9926    0.2081 H   0  0  0  0  0  0  0  0  0  0  0  0
    5.8429   -0.8098    0.3712 H   0  0  0  0  0  0  0  0  0  0  0  0
    5.2773    0.2005    1.7377 H   0  0  0  0  0  0  0  0  0  0  0  0
    3.1385    0.6152    1.9602 H   0  0  0  0  0  0  0  0  0  0  0  0
    1.2405    0.8854   -0.4119 H   0  0  0  0  0  0  0  0  0  0  0  0
    2.3167    2.1861    0.2030 H   0  0  0  0  0  0  0  0  0  0  0  0
    1.1946    2.3552    2.2326 H   0  0  0  0  0  0  0  0  0  0  0  0
    0.8147   -1.3295    4.0288 H   0  0  0  0  0  0  0  0  0  0  0  0
   -0.7719   -1.8170    3.3473 H   0  0  0  0  0  0  0  0  0  0  0  0
    0.7296   -2.7648    3.0133 H   0  0  0  0  0  0  0  0  0  0  0  0
    2.6264   -1.5640    2.1615 H   0  0  0  0  0  0  0  0  0  0  0  0
    3.9499   -2.5886    0.3131 H   0  0  0  0  0  0  0  0  0  0  0  0
    2.8349   -3.6121   -0.6482 H   0  0  0  0  0  0  0  0  0  0  0  0
    2.7370   -3.6525    1.1436 H   0  0  0  0  0  0  0  0  0  0  0  0
    0.4248   -3.7481    1.1800 H   0  0  0  0  0  0  0  0  0  0  0  0
   -0.7240   -5.6577    0.1866 H   0  0  0  0  0  0  0  0  0  0  0  0
   -2.7683   -5.3364   -1.1785 H   0  0  0  0  0  0  0  0  0  0  0  0
   -3.6808   -3.0645   -1.5440 H   0  0  0  0  0  0  0  0  0  0  0  0
   -3.4961    4.5880   -1.0024 H   0  0  0  0  0  0  0  0  0  0  0  0
   -2.3279    6.6789   -0.4366 H   0  0  0  0  0  0  0  0  0  0  0  0
   -0.2072    6.6298    0.8502 H   0  0  0  0  0  0  0  0  0  0  0  0
    0.7643    4.4739    1.5883 H   0  0  0  0  0  0  0  0  0  0  0  0
   -6.1793    0.7549   -2.7273 H   0  0  0  0  0  0  0  0  0  0  0  0
   -5.2375   -1.1902   -1.2344 H   0  0  0  0  0  0  0  0  0  0  0  0
   -4.2212   -1.0230   -2.7549 H   0  0  0  0  0  0  0  0  0  0  0  0
  1  2  1  0
  2  3  1  0
  3  4  2  0
  3  5  1  0
  5  6  1  0
  5  7  1  0
  7  8  1  0
  8  9  1  0
  9 10  1  0
 10 11  1  0
 11 12  1  1
 11 13  1  0
 13 14  1  0
 14 15  1  0
 11 16  1  0
 16 17  1  0
 17 18  2  0
 18 19  1  0
 19 20  2  0
 20 21  1  0
 21 22  2  0
 22 23  1  0
 23 24  2  0
 24 25  1  0
 25 26  2  0
 26 27  1  0
 27 28  2  0
 28 29  1  0
 29 30  2  0
 30 31  1  0
 31 32  2  0
 32 33  1  0
 33 34  1  0
 34 35  2  0
 25 36  1  0
 36 37  2  0
 36 38  1  0
 38 39  1  0
 13  7  1  0
 35 16  1  0
 33  9  1  0
 22 17  1  0
 35 23  1  0
 39 24  1  0
 34 26  1  0
 32 27  1  0
  1 40  1  0
  1 41  1  0
  1 42  1  0
  6 43  1  0
  6 44  1  0
  6 45  1  0
  7 46  1  1
  8 47  1  0
  8 48  1  0
  9 49  1  1
 12 50  1  0
 12 51  1  0
 12 52  1  0
 13 53  1  1
 15 54  1  0
 15 55  1  0
 15 56  1  0
 18 57  1  0
 19 58  1  0
 20 59  1  0
 21 60  1  0
 28 61  1  0
 29 62  1  0
 30 63  1  0
 31 64  1  0
 38 65  1  0
 39 66  1  0
 39 67  1  0
M  END
$$$$
