
     RDKit          3D

 60 64  0  0  0  0  0  0  0  0999 V2000
    6.4410   -2.8696   -1.9587 C   0  0  0  0  0  0  0  0  0  0  0  0
    7.4093   -1.9519   -1.4607 O   0  0  0  0  0  0  0  0  0  0  0  0
    7.1888   -1.0600   -0.3987 C   0  0  0  0  0  0  0  0  0  0  0  0
    5.9546   -0.9901    0.2754 C   0  0  0  0  0  0  0  0  0  0  0  0
    5.7639   -0.0908    1.3421 C   0  0  0  0  0  0  0  0  0  0  0  0
    4.4945   -0.0191    2.0211 N   0  0  0  0  0  0  0  0  0  0  0  0
    3.5278   -1.0846    2.0012 C   0  0  0  0  0  0  0  0  0  0  0  0
    3.8497   -2.3494    2.5353 C   0  0  0  0  0  0  0  0  0  0  0  0
    5.1393   -2.6091    3.1272 C   0  0  0  0  0  0  0  0  0  0  0  0
    6.1745   -2.8167    3.6011 N   0  0  0  0  0  0  0  0  0  0  0  0
    2.8901   -3.3662    2.5230 C   0  0  0  0  0  0  0  0  0  0  0  0
    1.6552   -3.1372    2.0092 N   0  0  0  0  0  0  0  0  0  0  0  0
    1.3034   -1.9312    1.4924 C   0  0  0  0  0  0  0  0  0  0  0  0
    0.0171   -1.7503    0.9724 C   0  0  0  0  0  0  0  0  0  0  0  0
   -0.3640   -0.5155    0.4195 C   0  0  0  0  0  0  0  0  0  0  0  0
   -1.7300   -0.3257   -0.1318 C   0  0  0  0  0  0  0  0  0  0  0  0
   -1.9259    0.3893   -1.3272 C   0  0  0  0  0  0  0  0  0  0  0  0
   -3.2122    0.5712   -1.8424 C   0  0  0  0  0  0  0  0  0  0  0  0
   -4.3250    0.0404   -1.1747 C   0  0  0  0  0  0  0  0  0  0  0  0
   -5.7097    0.2648   -1.7235 C   0  0  0  0  0  0  0  0  0  0  0  0
   -6.0878    1.6877   -1.6060 N   0  0  0  0  0  0  0  0  0  0  0  0
   -6.4357    2.0374   -0.2151 C   0  0  0  0  0  0  0  0  0  0  0  0
   -6.8102    3.5320   -0.1197 C   0  0  0  0  0  0  0  0  0  0  0  0
   -6.9171    4.1425   -1.3939 O   0  0  0  0  0  0  0  0  0  0  0  0
   -7.7971    3.3949   -2.2086 C   0  0  0  0  0  0  0  0  0  0  0  0
   -7.2240    1.9931   -2.4988 C   0  0  0  0  0  0  0  0  0  0  0  0
   -4.1357   -0.6706    0.0196 C   0  0  0  0  0  0  0  0  0  0  0  0
   -2.8498   -0.8541    0.5356 C   0  0  0  0  0  0  0  0  0  0  0  0
    0.5680    0.5362    0.3939 C   0  0  0  0  0  0  0  0  0  0  0  0
    1.8536    0.3635    0.9130 C   0  0  0  0  0  0  0  0  0  0  0  0
    2.2352   -0.8681    1.4748 C   0  0  0  0  0  0  0  0  0  0  0  0
    6.8247    0.7553    1.7214 C   0  0  0  0  0  0  0  0  0  0  0  0
    6.6671    1.8892    3.0576 Cl  0  0  0  0  0  0  0  0  0  0  0  0
    8.0493    0.6868    1.0501 C   0  0  0  0  0  0  0  0  0  0  0  0
    8.2332   -0.2139   -0.0017 C   0  0  0  0  0  0  0  0  0  0  0  0
    9.7882   -0.2738   -0.8181 Cl  0  0  0  0  0  0  0  0  0  0  0  0
    6.8876   -3.4514   -2.7908 H   0  0  0  0  0  0  0  0  0  0  0  0
    5.5566   -2.3197   -2.3445 H   0  0  0  0  0  0  0  0  0  0  0  0
    6.1344   -3.5740   -1.1565 H   0  0  0  0  0  0  0  0  0  0  0  0
    5.1365   -1.6257   -0.0329 H   0  0  0  0  0  0  0  0  0  0  0  0
    4.2233    0.8645    2.5065 H   0  0  0  0  0  0  0  0  0  0  0  0
    3.1199   -4.3429    2.9307 H   0  0  0  0  0  0  0  0  0  0  0  0
   -0.6781   -2.5815    0.9826 H   0  0  0  0  0  0  0  0  0  0  0  0
   -1.0830    0.7954   -1.8720 H   0  0  0  0  0  0  0  0  0  0  0  0
   -3.3421    1.1266   -2.7632 H   0  0  0  0  0  0  0  0  0  0  0  0
   -6.4551   -0.3890   -1.2149 H   0  0  0  0  0  0  0  0  0  0  0  0
   -5.6957   -0.0426   -2.7939 H   0  0  0  0  0  0  0  0  0  0  0  0
   -5.5729    1.8412    0.4582 H   0  0  0  0  0  0  0  0  0  0  0  0
   -7.2931    1.4198    0.1387 H   0  0  0  0  0  0  0  0  0  0  0  0
   -7.7589    3.6593    0.4489 H   0  0  0  0  0  0  0  0  0  0  0  0
   -6.0204    4.0669    0.4498 H   0  0  0  0  0  0  0  0  0  0  0  0
   -8.8014    3.3148   -1.7316 H   0  0  0  0  0  0  0  0  0  0  0  0
   -7.9413    3.9392   -3.1662 H   0  0  0  0  0  0  0  0  0  0  0  0
   -8.0350    1.2377   -2.3831 H   0  0  0  0  0  0  0  0  0  0  0  0
   -6.8718    1.9602   -3.5533 H   0  0  0  0  0  0  0  0  0  0  0  0
   -4.9838   -1.0757    0.5574 H   0  0  0  0  0  0  0  0  0  0  0  0
   -2.7332   -1.3917    1.4682 H   0  0  0  0  0  0  0  0  0  0  0  0
    0.2971    1.5013   -0.0153 H   0  0  0  0  0  0  0  0  0  0  0  0
    2.5423    1.1968    0.8662 H   0  0  0  0  0  0  0  0  0  0  0  0
    8.8640    1.3339    1.3503 H   0  0  0  0  0  0  0  0  0  0  0  0
  1  2  1  0
  2  3  1  0
  3  4  2  0
  4  5  1  0
  5  6  1  0
  6  7  1  0
  7  8  2  0
  8  9  1  0
  9 10  3  0
  8 11  1  0
 11 12  2  0
 12 13  1  0
 13 14  2  0
 14 15  1  0
 15 16  1  0
 16 17  2  0
 17 18  1  0
 18 19  2  0
 19 20  1  0
 20 21  1  0
 21 22  1  0
 22 23  1  0
 23 24  1  0
 24 25  1  0
 25 26  1  0
 19 27  1  0
 27 28  2  0
 15 29  2  0
 29 30  1  0
 30 31  2  0
  5 32  2  0
 32 33  1  0
 32 34  1  0
 34 35  2  0
 35 36  1  0
 35  3  1  0
 31  7  1  0
 31 13  1  0
 28 16  1  0
 26 21  1  0
  1 37  1  0
  1 38  1  0
  1 39  1  0
  4 40  1  0
  6 41  1  0
 11 42  1  0
 14 43  1  0
 17 44  1  0
 18 45  1  0
 20 46  1  0
 20 47  1  0
 22 48  1  0
 22 49  1  0
 23 50  1  0
 23 51  1  0
 25 52  1  0
 25 53  1  0
 26 54  1  0
 26 55  1  0
 27 56  1  0
 28 57  1  0
 29 58  1  0
 30 59  1  0
 34 60  1  0
M  END
$$$$
