
     RDKit          3D

 38 40  0  0  0  0  0  0  0  0999 V2000
    5.3353   -0.5409    1.5179 O   0  0  0  0  0  0  0  0  0  0  0  0
    5.8377   -0.5448    0.3622 C   0  0  0  0  0  0  0  0  0  0  0  0
    7.1990   -0.3119    0.1944 O   0  0  0  0  0  0  0  0  0  0  0  0
    4.9643   -0.7560   -0.8353 C   0  0  0  0  0  0  0  0  0  0  0  0
    4.5377    0.5797   -1.4527 C   0  0  0  0  0  0  0  0  0  0  0  0
    3.7424    1.3683   -0.5112 N   0  0  0  0  0  0  0  0  0  0  0  0
    2.3808    1.0495   -0.1863 C   0  0  0  0  0  0  0  0  0  0  0  0
    1.6916    1.8092    0.7664 C   0  0  0  0  0  0  0  0  0  0  0  0
    0.3666    1.4907    1.0732 C   0  0  0  0  0  0  0  0  0  0  0  0
   -0.3147    2.2310    1.9849 N   0  0  0  0  0  0  0  0  0  0  0  0
   -1.6037    1.9436    2.2942 C   0  0  0  0  0  0  0  0  0  0  0  0
   -2.2315    0.8989    1.6970 N   0  0  0  0  0  0  0  0  0  0  0  0
   -1.6048    0.1204    0.7723 C   0  0  0  0  0  0  0  0  0  0  0  0
   -2.3013   -1.0054    0.2099 N   0  0  0  0  0  0  0  0  0  0  0  0
   -3.7268   -1.0400    0.0213 C   0  0  0  0  0  0  0  0  0  0  0  0
   -4.3969   -2.2736    0.0411 C   0  0  0  0  0  0  0  0  0  0  0  0
   -5.7793   -2.3313   -0.1591 C   0  0  0  0  0  0  0  0  0  0  0  0
   -6.5030   -1.1597   -0.3936 C   0  0  0  0  0  0  0  0  0  0  0  0
   -5.8439    0.0726   -0.4357 C   0  0  0  0  0  0  0  0  0  0  0  0
   -6.8307    1.6716   -0.7781 Br  0  0  0  0  0  0  0  0  0  0  0  0
   -4.4603    0.1338   -0.2356 C   0  0  0  0  0  0  0  0  0  0  0  0
   -0.2653    0.4051    0.4316 C   0  0  0  0  0  0  0  0  0  0  0  0
    0.4594   -0.3189   -0.5313 C   0  0  0  0  0  0  0  0  0  0  0  0
    1.7468    0.0177   -0.8094 N   0  0  0  0  0  0  0  0  0  0  0  0
    7.8008   -0.1517    0.9934 H   0  0  0  0  0  0  0  0  0  0  0  0
    5.5292   -1.3397   -1.5932 H   0  0  0  0  0  0  0  0  0  0  0  0
    4.0713   -1.3528   -0.5515 H   0  0  0  0  0  0  0  0  0  0  0  0
    5.4442    1.1553   -1.7426 H   0  0  0  0  0  0  0  0  0  0  0  0
    3.9507    0.3965   -2.3785 H   0  0  0  0  0  0  0  0  0  0  0  0
    4.1800    2.2201   -0.0920 H   0  0  0  0  0  0  0  0  0  0  0  0
    2.1803    2.6394    1.2621 H   0  0  0  0  0  0  0  0  0  0  0  0
   -2.1304    2.5439    3.0231 H   0  0  0  0  0  0  0  0  0  0  0  0
   -1.7675   -1.8887    0.0486 H   0  0  0  0  0  0  0  0  0  0  0  0
   -3.8481   -3.1896    0.2205 H   0  0  0  0  0  0  0  0  0  0  0  0
   -6.2896   -3.2855   -0.1340 H   0  0  0  0  0  0  0  0  0  0  0  0
   -7.5730   -1.2107   -0.5492 H   0  0  0  0  0  0  0  0  0  0  0  0
   -3.9609    1.0916   -0.3004 H   0  0  0  0  0  0  0  0  0  0  0  0
    0.0138   -1.1380   -1.0768 H   0  0  0  0  0  0  0  0  0  0  0  0
  1  2  2  0
  2  3  1  0
  2  4  1  0
  4  5  1  0
  5  6  1  0
  6  7  1  0
  7  8  2  0
  8  9  1  0
  9 10  2  0
 10 11  1  0
 11 12  2  0
 12 13  1  0
 13 14  1  0
 14 15  1  0
 15 16  2  0
 16 17  1  0
 17 18  2  0
 18 19  1  0
 19 20  1  0
 19 21  2  0
 13 22  2  0
 22 23  1  0
 23 24  2  0
 24  7  1  0
 22  9  1  0
 21 15  1  0
  3 25  1  0
  4 26  1  0
  4 27  1  0
  5 28  1  0
  5 29  1  0
  6 30  1  0
  8 31  1  0
 11 32  1  0
 14 33  1  0
 16 34  1  0
 17 35  1  0
 18 36  1  0
 21 37  1  0
 23 38  1  0
M  END
$$$$
