
     RDKit          3D

 67 74  0  0  0  0  0  0  0  0999 V2000
    5.4825   -1.4437    1.7923 C   0  0  0  0  0  0  0  0  0  0  0  0
    4.4118   -1.5844    0.7051 C   0  0  0  0  0  0  0  0  0  0  0  0
    3.8185   -0.2772    0.3156 N   0  0  0  0  0  0  0  0  0  0  0  0
    4.8791    0.6112   -0.2167 C   0  0  0  0  0  0  0  0  0  0  0  0
    2.6973   -0.3822   -0.6740 C   0  0  1  0  0  0  0  0  0  0  0  0
    1.8229   -1.6459   -0.5246 C   0  0  0  0  0  0  0  0  0  0  0  0
    0.5592   -1.5939   -1.4172 C   0  0  2  0  0  0  0  0  0  0  0  0
    0.4810   -0.4761   -2.2754 O   0  0  0  0  0  0  0  0  0  0  0  0
    0.6761    0.8029   -1.6769 C   0  0  2  0  0  0  0  0  0  0  0  0
    1.1684    1.6590   -2.8757 C   0  0  0  0  0  0  0  0  0  0  0  0
    1.7432    0.8202   -0.5229 C   0  0  1  0  0  0  0  0  0  0  0  0
    1.0919    0.7342    0.7429 O   0  0  0  0  0  0  0  0  0  0  0  0
    1.5069    1.7664    1.6105 C   0  0  0  0  0  0  0  0  0  0  0  0
   -0.6252    1.3055   -1.1665 N   0  0  0  0  0  0  0  0  0  0  0  0
   -1.0484    2.5929   -0.9623 C   0  0  0  0  0  0  0  0  0  0  0  0
   -0.3280    3.7906   -1.1084 C   0  0  0  0  0  0  0  0  0  0  0  0
   -0.9624    5.0054   -0.7998 C   0  0  0  0  0  0  0  0  0  0  0  0
   -2.2833    5.0218   -0.3181 C   0  0  0  0  0  0  0  0  0  0  0  0
   -2.9757    3.8213   -0.1117 C   0  0  0  0  0  0  0  0  0  0  0  0
   -2.3297    2.6257   -0.4341 C   0  0  0  0  0  0  0  0  0  0  0  0
   -2.6967    1.3189   -0.2224 C   0  0  0  0  0  0  0  0  0  0  0  0
   -3.8058    0.7472    0.4212 C   0  0  0  0  0  0  0  0  0  0  0  0
   -3.8304   -0.6260    0.6561 C   0  0  0  0  0  0  0  0  0  0  0  0
   -2.7279   -1.4240    0.2752 C   0  0  0  0  0  0  0  0  0  0  0  0
   -2.3940   -2.7616    0.4462 C   0  0  0  0  0  0  0  0  0  0  0  0
   -3.0433   -3.8323    1.0704 C   0  0  0  0  0  0  0  0  0  0  0  0
   -2.4095   -5.0858    1.0764 C   0  0  0  0  0  0  0  0  0  0  0  0
   -1.1480   -5.2533    0.4755 C   0  0  0  0  0  0  0  0  0  0  0  0
   -0.5021   -4.1675   -0.1341 C   0  0  0  0  0  0  0  0  0  0  0  0
   -1.1458   -2.9240   -0.1321 C   0  0  0  0  0  0  0  0  0  0  0  0
   -0.6792   -1.7613   -0.6505 N   0  0  0  0  0  0  0  0  0  0  0  0
   -1.6422   -0.8449   -0.3935 C   0  0  0  0  0  0  0  0  0  0  0  0
   -1.6301    0.5402   -0.6560 C   0  0  0  0  0  0  0  0  0  0  0  0
   -5.0916   -0.8946    1.3237 C   0  0  0  0  0  0  0  0  0  0  0  0
   -5.5486   -2.0186    1.6472 O   0  0  0  0  0  0  0  0  0  0  0  0
   -5.8082    0.3158    1.5184 N   0  0  0  0  0  0  0  0  0  0  0  0
   -5.0285    1.4222    0.9725 C   0  0  0  0  0  0  0  0  0  0  0  0
    5.7153   -2.4433    2.2172 H   0  0  0  0  0  0  0  0  0  0  0  0
    5.1165   -0.7865    2.6098 H   0  0  0  0  0  0  0  0  0  0  0  0
    6.4230   -1.0308    1.3713 H   0  0  0  0  0  0  0  0  0  0  0  0
    3.6383   -2.2372    1.1576 H   0  0  0  0  0  0  0  0  0  0  0  0
    4.8389   -2.1070   -0.1803 H   0  0  0  0  0  0  0  0  0  0  0  0
    5.5185    0.9807    0.6115 H   0  0  0  0  0  0  0  0  0  0  0  0
    5.5088    0.0840   -0.9676 H   0  0  0  0  0  0  0  0  0  0  0  0
    4.4685    1.5178   -0.7021 H   0  0  0  0  0  0  0  0  0  0  0  0
    3.1120   -0.3926   -1.7104 H   0  0  0  0  0  0  0  0  0  0  0  0
    2.4189   -2.5395   -0.8141 H   0  0  0  0  0  0  0  0  0  0  0  0
    1.5178   -1.7746    0.5376 H   0  0  0  0  0  0  0  0  0  0  0  0
    0.6295   -2.4657   -2.1042 H   0  0  0  0  0  0  0  0  0  0  0  0
    1.8098    2.5158   -2.6004 H   0  0  0  0  0  0  0  0  0  0  0  0
    1.8068    1.0442   -3.5477 H   0  0  0  0  0  0  0  0  0  0  0  0
    0.3074    2.0194   -3.4784 H   0  0  0  0  0  0  0  0  0  0  0  0
    2.3292    1.7613   -0.6176 H   0  0  0  0  0  0  0  0  0  0  0  0
    0.9989    1.6332    2.5873 H   0  0  0  0  0  0  0  0  0  0  0  0
    1.2147    2.7615    1.2098 H   0  0  0  0  0  0  0  0  0  0  0  0
    2.6039    1.7247    1.7882 H   0  0  0  0  0  0  0  0  0  0  0  0
    0.7066    3.8203   -1.3870 H   0  0  0  0  0  0  0  0  0  0  0  0
   -0.4218    5.9365   -0.9114 H   0  0  0  0  0  0  0  0  0  0  0  0
   -2.7564    5.9645   -0.0755 H   0  0  0  0  0  0  0  0  0  0  0  0
   -3.9747    3.8394    0.2967 H   0  0  0  0  0  0  0  0  0  0  0  0
   -3.9958   -3.7324    1.5529 H   0  0  0  0  0  0  0  0  0  0  0  0
   -2.8929   -5.9294    1.5521 H   0  0  0  0  0  0  0  0  0  0  0  0
   -0.6696   -6.2240    0.4900 H   0  0  0  0  0  0  0  0  0  0  0  0
    0.4732   -4.3008   -0.5816 H   0  0  0  0  0  0  0  0  0  0  0  0
   -6.7459    0.3999    1.9698 H   0  0  0  0  0  0  0  0  0  0  0  0
   -5.5970    1.9290    0.1645 H   0  0  0  0  0  0  0  0  0  0  0  0
   -4.7565    2.1276    1.7856 H   0  0  0  0  0  0  0  0  0  0  0  0
  1  2  1  0
  2  3  1  0
  3  4  1  0
  3  5  1  0
  5  6  1  0
  6  7  1  0
  7  8  1  0
  8  9  1  0
  9 10  1  6
  9 11  1  0
 11 12  1  0
 12 13  1  0
  9 14  1  0
 14 15  1  0
 15 16  2  0
 16 17  1  0
 17 18  2  0
 18 19  1  0
 19 20  2  0
 20 21  1  0
 21 22  2  0
 22 23  1  0
 23 24  2  0
 24 25  1  0
 25 26  2  0
 26 27  1  0
 27 28  2  0
 28 29  1  0
 29 30  2  0
 30 31  1  0
 31 32  1  0
 32 33  2  0
 23 34  1  0
 34 35  2  0
 34 36  1  0
 36 37  1  0
 11  5  1  0
 33 14  1  0
 31  7  1  0
 20 15  1  0
 33 21  1  0
 37 22  1  0
 32 24  1  0
 30 25  1  0
  1 38  1  0
  1 39  1  0
  1 40  1  0
  2 41  1  0
  2 42  1  0
  4 43  1  0
  4 44  1  0
  4 45  1  0
  5 46  1  6
  6 47  1  0
  6 48  1  0
  7 49  1  6
 10 50  1  0
 10 51  1  0
 10 52  1  0
 11 53  1  1
 13 54  1  0
 13 55  1  0
 13 56  1  0
 16 57  1  0
 17 58  1  0
 18 59  1  0
 19 60  1  0
 26 61  1  0
 27 62  1  0
 28 63  1  0
 29 64  1  0
 36 65  1  0
 37 66  1  0
 37 67  1  0
M  END
$$$$
