
     RDKit          3D

 28 28  0  0  0  0  0  0  0  0999 V2000
    3.7798   -1.9855   -1.3157 N   0  0  0  0  0  0  0  0  0  0  0  0
    3.8074   -0.8586   -1.0530 C   0  0  0  0  0  0  0  0  0  0  0  0
    3.8422    0.5473   -0.7263 C   0  0  0  0  0  0  0  0  0  0  0  0
    5.0841    1.2352   -0.9788 C   0  0  0  0  0  0  0  0  0  0  0  0
    6.0814    1.7861   -1.1819 N   0  0  0  0  0  0  0  0  0  0  0  0
    2.7549    1.1973   -0.2461 C   0  0  0  0  0  0  0  0  0  0  0  0
    2.7925    2.6133    0.0010 N   0  0  0  0  0  0  0  0  0  0  0  0
    1.4866    0.4779    0.0382 C   0  0  0  0  0  0  0  0  0  0  0  0
    1.5130   -0.6232    0.9766 C   0  0  0  0  0  0  0  0  0  0  0  0
    1.5357   -1.5031    1.7280 N   0  0  0  0  0  0  0  0  0  0  0  0
    0.3317    0.9371   -0.4793 C   0  0  0  0  0  0  0  0  0  0  0  0
   -0.9989    0.3263   -0.2534 C   0  0  0  0  0  0  0  0  0  0  0  0
   -2.0929    1.1602    0.0015 C   0  0  0  0  0  0  0  0  0  0  0  0
   -3.3637    0.6181    0.1913 C   0  0  0  0  0  0  0  0  0  0  0  0
   -3.5677   -0.7662    0.1099 C   0  0  0  0  0  0  0  0  0  0  0  0
   -4.8460   -1.2811    0.3225 O   0  0  0  0  0  0  0  0  0  0  0  0
   -2.4820   -1.6230   -0.1823 C   0  0  0  0  0  0  0  0  0  0  0  0
   -2.6599   -3.0510   -0.2978 N   0  0  0  0  0  4  0  0  0  0  0  0
   -1.6696   -3.8049   -0.3987 O   0  0  0  0  0  0  0  0  0  0  0  0
   -3.9153   -3.6131   -0.3293 O   0  0  0  0  0  1  0  0  0  0  0  0
   -1.2037   -1.0595   -0.3686 C   0  0  0  0  0  0  0  0  0  0  0  0
    3.6282    3.2002   -0.2147 H   0  0  0  0  0  0  0  0  0  0  0  0
    1.9690    3.0956    0.4253 H   0  0  0  0  0  0  0  0  0  0  0  0
    0.3532    1.8418   -1.0769 H   0  0  0  0  0  0  0  0  0  0  0  0
   -1.9598    2.2334    0.0675 H   0  0  0  0  0  0  0  0  0  0  0  0
   -4.1948    1.2784    0.4049 H   0  0  0  0  0  0  0  0  0  0  0  0
   -5.6344   -0.6805    0.5339 H   0  0  0  0  0  0  0  0  0  0  0  0
   -0.3708   -1.6984   -0.6326 H   0  0  0  0  0  0  0  0  0  0  0  0
  1  2  3  0
  2  3  1  0
  3  4  1  0
  4  5  3  0
  3  6  2  0
  6  7  1  0
  6  8  1  0
  8  9  1  0
  9 10  3  0
  8 11  2  0
 11 12  1  0
 12 13  2  0
 13 14  1  0
 14 15  2  0
 15 16  1  0
 15 17  1  0
 17 18  1  0
 18 19  2  0
 18 20  1  0
 17 21  2  0
 21 12  1  0
  7 22  1  0
  7 23  1  0
 11 24  1  0
 13 25  1  0
 14 26  1  0
 16 27  1  0
 21 28  1  0
M  CHG  2  18   1  20  -1
M  END
$$$$
