
     RDKit          3D

 44 46  0  0  0  0  0  0  0  0999 V2000
   -6.4152   -0.3484    1.8997 C   0  0  0  0  0  0  0  0  0  0  0  0
   -5.8792    0.0945    0.6571 O   0  0  0  0  0  0  0  0  0  0  0  0
   -4.5192    0.0390    0.3127 C   0  0  0  0  0  0  0  0  0  0  0  0
   -3.5460   -0.4695    1.1929 C   0  0  0  0  0  0  0  0  0  0  0  0
   -2.2031   -0.5113    0.8148 C   0  0  0  0  0  0  0  0  0  0  0  0
   -1.8073   -0.0578   -0.4534 C   0  0  0  0  0  0  0  0  0  0  0  0
   -0.4257   -0.0727   -0.8543 N   0  0  0  0  0  0  0  0  0  0  0  0
    0.5274   -1.0349   -0.3702 C   0  0  0  0  0  0  0  0  0  0  0  0
    0.1086   -2.2976   -0.0820 N   0  0  0  0  0  0  0  0  0  0  0  0
    0.9726   -3.2596    0.3281 C   0  0  0  0  0  0  0  0  0  0  0  0
    2.2937   -2.9804    0.4499 N   0  0  0  0  0  0  0  0  0  0  0  0
    2.7759   -1.7409    0.1757 C   0  0  0  0  0  0  0  0  0  0  0  0
    4.1417   -1.4830    0.3171 C   0  0  0  0  0  0  0  0  0  0  0  0
    4.6565   -0.1999    0.0559 C   0  0  0  0  0  0  0  0  0  0  0  0
    6.0234    0.0941    0.1851 O   0  0  0  0  0  0  0  0  0  0  0  0
    7.0178   -0.8455    0.5803 C   0  0  0  0  0  0  0  0  0  0  0  0
    3.7897    0.8291   -0.3425 C   0  0  0  0  0  0  0  0  0  0  0  0
    4.3368    2.0999   -0.5842 O   0  0  0  0  0  0  0  0  0  0  0  0
    3.5876    3.2393   -0.9945 C   0  0  0  0  0  0  0  0  0  0  0  0
    2.4122    0.5688   -0.4862 C   0  0  0  0  0  0  0  0  0  0  0  0
    1.8984   -0.7182   -0.2426 C   0  0  0  0  0  0  0  0  0  0  0  0
   -2.7732    0.4670   -1.3236 C   0  0  0  0  0  0  0  0  0  0  0  0
   -4.1309    0.5123   -0.9501 C   0  0  0  0  0  0  0  0  0  0  0  0
   -5.1223    1.0206   -1.8045 O   0  0  0  0  0  0  0  0  0  0  0  0
   -4.8775    1.5337   -3.1101 C   0  0  0  0  0  0  0  0  0  0  0  0
   -7.5130   -0.1893    1.8981 H   0  0  0  0  0  0  0  0  0  0  0  0
   -6.2132   -1.4315    2.0384 H   0  0  0  0  0  0  0  0  0  0  0  0
   -5.9731    0.2339    2.7356 H   0  0  0  0  0  0  0  0  0  0  0  0
   -3.8164   -0.8294    2.1762 H   0  0  0  0  0  0  0  0  0  0  0  0
   -1.4727   -0.8812    1.5225 H   0  0  0  0  0  0  0  0  0  0  0  0
   -0.1365    0.5621   -1.6320 H   0  0  0  0  0  0  0  0  0  0  0  0
    0.6080   -4.2527    0.5511 H   0  0  0  0  0  0  0  0  0  0  0  0
    4.7939   -2.2861    0.6341 H   0  0  0  0  0  0  0  0  0  0  0  0
    8.0061   -0.3422    0.5954 H   0  0  0  0  0  0  0  0  0  0  0  0
    6.7983   -1.2279    1.5994 H   0  0  0  0  0  0  0  0  0  0  0  0
    7.0582   -1.6862   -0.1442 H   0  0  0  0  0  0  0  0  0  0  0  0
    4.2756    4.1009   -1.1148 H   0  0  0  0  0  0  0  0  0  0  0  0
    3.0932    3.0409   -1.9689 H   0  0  0  0  0  0  0  0  0  0  0  0
    2.8293    3.4954   -0.2246 H   0  0  0  0  0  0  0  0  0  0  0  0
    1.7494    1.3720   -0.7697 H   0  0  0  0  0  0  0  0  0  0  0  0
   -2.4589    0.8294   -2.2930 H   0  0  0  0  0  0  0  0  0  0  0  0
   -5.8380    1.8647   -3.5552 H   0  0  0  0  0  0  0  0  0  0  0  0
   -4.4406    0.7428   -3.7556 H   0  0  0  0  0  0  0  0  0  0  0  0
   -4.1921    2.4058   -3.0554 H   0  0  0  0  0  0  0  0  0  0  0  0
  1  2  1  0
  2  3  1  0
  3  4  2  0
  4  5  1  0
  5  6  2  0
  6  7  1  0
  7  8  1  0
  8  9  2  0
  9 10  1  0
 10 11  2  0
 11 12  1  0
 12 13  2  0
 13 14  1  0
 14 15  1  0
 15 16  1  0
 14 17  2  0
 17 18  1  0
 18 19  1  0
 17 20  1  0
 20 21  2  0
  6 22  1  0
 22 23  2  0
 23 24  1  0
 24 25  1  0
 23  3  1  0
 21  8  1  0
 21 12  1  0
  1 26  1  0
  1 27  1  0
  1 28  1  0
  4 29  1  0
  5 30  1  0
  7 31  1  0
 10 32  1  0
 13 33  1  0
 16 34  1  0
 16 35  1  0
 16 36  1  0
 19 37  1  0
 19 38  1  0
 19 39  1  0
 20 40  1  0
 22 41  1  0
 25 42  1  0
 25 43  1  0
 25 44  1  0
M  END
$$$$
