
     RDKit          3D

 57 59  0  0  0  0  0  0  0  0999 V2000
    1.0212    2.5122   -3.6838 C   0  0  0  0  0  0  0  0  0  0  0  0
   -0.0124    2.3806   -2.7132 O   0  0  0  0  0  0  0  0  0  0  0  0
    0.1672    1.8573   -1.4227 C   0  0  0  0  0  0  0  0  0  0  0  0
    1.4252    1.4147   -0.9647 C   0  0  0  0  0  0  0  0  0  0  0  0
    1.5743    0.9089    0.3398 C   0  0  0  0  0  0  0  0  0  0  0  0
    2.8146    0.4725    0.8608 C   0  0  0  0  0  0  0  0  0  0  0  0
    4.0404    0.6166    0.1191 N   0  0  0  0  0  0  0  0  0  0  0  0
    5.2153   -0.1747    0.3740 C   0  0  0  0  0  0  0  0  0  0  0  0
    5.1148   -1.5153    0.7968 C   0  0  0  0  0  0  0  0  0  0  0  0
    6.2679   -2.2701    1.0626 C   0  0  0  0  0  0  0  0  0  0  0  0
    6.1616   -3.5878    1.5104 O   0  0  0  0  0  0  0  0  0  0  0  0
    7.5320   -1.6948    0.8788 C   0  0  0  0  0  0  0  0  0  0  0  0
    8.9911   -2.6191    1.2120 Cl  0  0  0  0  0  0  0  0  0  0  0  0
    7.6380   -0.3740    0.4247 C   0  0  0  0  0  0  0  0  0  0  0  0
    6.4895    0.3814    0.1679 C   0  0  0  0  0  0  0  0  0  0  0  0
    6.6205    1.6606   -0.2633 F   0  0  0  0  0  0  0  0  0  0  0  0
    2.8606   -0.0263    2.1281 N   0  0  0  0  0  0  0  0  0  0  0  0
    1.7477   -0.1289    2.8972 C   0  0  0  0  0  0  0  0  0  0  0  0
    0.5511    0.2943    2.4209 N   0  0  0  0  0  0  0  0  0  0  0  0
    0.4375    0.8118    1.1707 C   0  0  0  0  0  0  0  0  0  0  0  0
   -0.8093    1.2480    0.7149 C   0  0  0  0  0  0  0  0  0  0  0  0
   -0.9541    1.7764   -0.5825 C   0  0  0  0  0  0  0  0  0  0  0  0
   -2.1832    2.2460   -1.0834 O   0  0  0  0  0  0  0  0  0  0  0  0
   -3.4793    2.0309   -0.5163 C   0  0  0  0  0  0  0  0  0  0  0  0
   -4.1498    0.7791   -1.1170 C   0  0  0  0  0  0  0  0  0  0  0  0
   -5.6026    0.6181   -0.5994 C   0  0  0  0  0  0  0  0  0  0  0  0
   -5.7087   -0.4944    0.4499 C   0  0  0  0  0  0  0  0  0  0  0  0
   -5.3193   -1.8084   -0.1142 N   0  0  0  0  0  0  0  0  0  0  0  0
   -5.0790   -2.7748    0.9698 C   0  0  0  0  0  0  0  0  0  0  0  0
   -4.1693   -1.7545   -1.0548 C   0  0  0  0  0  0  0  0  0  0  0  0
   -3.3103   -0.4962   -0.8755 C   0  0  0  0  0  0  0  0  0  0  0  0
    0.6878    0.0000    0.0000 Cl  0  0  0  0  0  0  0  0  0  0  0  0
    1.4268    1.5114   -3.9477 H   0  0  0  0  0  0  0  0  0  0  0  0
    1.8318    3.1637   -3.2932 H   0  0  0  0  0  0  0  0  0  0  0  0
    0.6014    2.9802   -4.5980 H   0  0  0  0  0  0  0  0  0  0  0  0
    2.2749    1.4612   -1.6285 H   0  0  0  0  0  0  0  0  0  0  0  0
    4.1511    1.4618   -0.4818 H   0  0  0  0  0  0  0  0  0  0  0  0
    4.1440   -1.9788    0.9160 H   0  0  0  0  0  0  0  0  0  0  0  0
    5.2598   -4.0283    1.6494 H   0  0  0  0  0  0  0  0  0  0  0  0
    8.6150    0.0682    0.2742 H   0  0  0  0  0  0  0  0  0  0  0  0
    1.8177   -0.5374    3.8960 H   0  0  0  0  0  0  0  0  0  0  0  0
   -1.6474    1.1752    1.3918 H   0  0  0  0  0  0  0  0  0  0  0  0
   -4.0988    2.9130   -0.7814 H   0  0  0  0  0  0  0  0  0  0  0  0
   -3.4601    1.9945    0.5898 H   0  0  0  0  0  0  0  0  0  0  0  0
   -4.2075    0.9377   -2.2175 H   0  0  0  0  0  0  0  0  0  0  0  0
   -5.9901    1.5681   -0.1695 H   0  0  0  0  0  0  0  0  0  0  0  0
   -6.2691    0.3549   -1.4511 H   0  0  0  0  0  0  0  0  0  0  0  0
   -6.7621   -0.5508    0.8016 H   0  0  0  0  0  0  0  0  0  0  0  0
   -5.0722   -0.2254    1.3251 H   0  0  0  0  0  0  0  0  0  0  0  0
   -4.9585   -3.7959    0.5472 H   0  0  0  0  0  0  0  0  0  0  0  0
   -4.1656   -2.5058    1.5474 H   0  0  0  0  0  0  0  0  0  0  0  0
   -5.9498   -2.8061    1.6578 H   0  0  0  0  0  0  0  0  0  0  0  0
   -4.5647   -1.7671   -2.0931 H   0  0  0  0  0  0  0  0  0  0  0  0
   -3.5154   -2.6513   -0.9670 H   0  0  0  0  0  0  0  0  0  0  0  0
   -2.8943   -0.5061    0.1547 H   0  0  0  0  0  0  0  0  0  0  0  0
   -2.4602   -0.5268   -1.5919 H   0  0  0  0  0  0  0  0  0  0  0  0
   -0.6878    0.0000    0.0000 H   0  0  0  0  0  0  0  0  0  0  0  0
  1  2  1  0
  2  3  1  0
  3  4  2  0
  4  5  1  0
  5  6  2  0
  6  7  1  0
  7  8  1  0
  8  9  2  0
  9 10  1  0
 10 11  1  0
 10 12  2  0
 12 13  1  0
 12 14  1  0
 14 15  2  0
 15 16  1  0
  6 17  1  0
 17 18  2  0
 18 19  1  0
 19 20  2  0
 20 21  1  0
 21 22  2  0
 22 23  1  0
 23 24  1  0
 24 25  1  0
 25 26  1  0
 26 27  1  0
 27 28  1  0
 28 29  1  0
 28 30  1  0
 30 31  1  0
 22  3  1  0
 31 25  1  0
 20  5  1  0
 15  8  1  0
  1 33  1  0
  1 34  1  0
  1 35  1  0
  4 36  1  0
  7 37  1  0
  9 38  1  0
 11 39  1  0
 14 40  1  0
 18 41  1  0
 21 42  1  0
 24 43  1  0
 24 44  1  0
 25 45  1  0
 26 46  1  0
 26 47  1  0
 27 48  1  0
 27 49  1  0
 29 50  1  0
 29 51  1  0
 29 52  1  0
 30 53  1  0
 30 54  1  0
 31 55  1  0
 31 56  1  0
 32 57  1  0
M  END
$$$$
