
     RDKit          3D

 66 71  0  0  0  0  0  0  0  0999 V2000
    0.3764   -2.6569    0.2664 C   0  0  0  0  0  0  0  0  0  0  0  0
   -0.8747   -1.9042    0.1643 N   0  0  0  0  0  0  0  0  0  0  0  0
   -1.1236   -0.6484    0.6167 C   0  0  0  0  0  0  0  0  0  0  0  0
    0.1260    0.4311    1.3270 S   0  0  0  0  0  0  0  0  0  0  0  0
    0.3303    1.5889   -0.4574 S   0  0  0  0  0  0  0  0  0  0  0  0
    1.4390    0.4061   -1.2333 C   0  0  0  0  0  0  0  0  0  0  0  0
    2.7822    0.2323   -0.9036 C   0  0  0  0  0  0  0  0  0  0  0  0
    3.5348    0.9682    0.1265 C   0  0  0  0  0  0  0  0  0  0  0  0
    3.4099    2.2206    0.1979 O   0  0  0  0  0  0  0  0  0  0  0  0
    4.3914    0.2656    1.0423 N   0  0  0  0  0  0  0  0  0  0  0  0
    5.0653    0.8834    2.1509 C   0  0  0  0  0  0  0  0  0  0  0  0
    4.4493    1.8897    2.9177 C   0  0  0  0  0  0  0  0  0  0  0  0
    5.1167    2.4501    4.0111 C   0  0  0  0  0  0  0  0  0  0  0  0
    6.3942    2.0037    4.3565 C   0  0  0  0  0  0  0  0  0  0  0  0
    7.0027    0.9884    3.6151 C   0  0  0  0  0  0  0  0  0  0  0  0
    6.3384    0.4246    2.5220 C   0  0  0  0  0  0  0  0  0  0  0  0
    3.2325   -0.7969   -1.7126 C   0  0  0  0  0  0  0  0  0  0  0  0
    4.4996   -1.3655   -1.8603 C   0  0  0  0  0  0  0  0  0  0  0  0
    4.6544   -2.3984   -2.8024 C   0  0  0  0  0  0  0  0  0  0  0  0
    6.2239   -3.1490   -3.0213 Cl  0  0  0  0  0  0  0  0  0  0  0  0
    3.5563   -2.8260   -3.5800 C   0  0  0  0  0  0  0  0  0  0  0  0
    2.2975   -2.2190   -3.4306 C   0  0  0  0  0  0  0  0  0  0  0  0
    2.1676   -1.1994   -2.4837 C   0  0  0  0  0  0  0  0  0  0  0  0
    1.0655   -0.4770   -2.1948 N   0  0  0  0  0  0  0  0  0  0  0  0
   -0.2350   -0.5784   -2.8576 C   0  0  0  0  0  0  0  0  0  0  0  0
   -2.4633   -0.3096    0.4156 C   0  0  0  0  0  0  0  0  0  0  0  0
   -3.1166    0.9701    0.7551 C   0  0  0  0  0  0  0  0  0  0  0  0
   -2.6886    1.6447    1.7304 O   0  0  0  0  0  0  0  0  0  0  0  0
   -4.1843    1.4794   -0.0585 N   0  0  0  0  0  0  0  0  0  0  0  0
   -5.0993    2.5031    0.3699 C   0  0  0  0  0  0  0  0  0  0  0  0
   -5.4846    2.6259    1.7186 C   0  0  0  0  0  0  0  0  0  0  0  0
   -6.3920    3.6177    2.1053 C   0  0  0  0  0  0  0  0  0  0  0  0
   -6.9293    4.4868    1.1525 C   0  0  0  0  0  0  0  0  0  0  0  0
   -6.5688    4.3586   -0.1911 C   0  0  0  0  0  0  0  0  0  0  0  0
   -5.6637    3.3665   -0.5826 C   0  0  0  0  0  0  0  0  0  0  0  0
   -3.0377   -1.4221   -0.1795 C   0  0  0  0  0  0  0  0  0  0  0  0
   -4.3554   -1.6864   -0.5627 C   0  0  0  0  0  0  0  0  0  0  0  0
   -4.6428   -2.9444   -1.1223 C   0  0  0  0  0  0  0  0  0  0  0  0
   -6.2801   -3.3199   -1.6255 Cl  0  0  0  0  0  0  0  0  0  0  0  0
   -3.6231   -3.9087   -1.2719 C   0  0  0  0  0  0  0  0  0  0  0  0
   -2.3102   -3.6270   -0.8589 C   0  0  0  0  0  0  0  0  0  0  0  0
   -2.0482   -2.3677   -0.3117 C   0  0  0  0  0  0  0  0  0  0  0  0
    0.2746   -3.4411    1.0452 H   0  0  0  0  0  0  0  0  0  0  0  0
    1.2248   -1.9956    0.5353 H   0  0  0  0  0  0  0  0  0  0  0  0
    0.6098   -3.1360   -0.7078 H   0  0  0  0  0  0  0  0  0  0  0  0
    4.5572   -0.7537    0.8877 H   0  0  0  0  0  0  0  0  0  0  0  0
    3.4448    2.2217    2.6941 H   0  0  0  0  0  0  0  0  0  0  0  0
    4.6383    3.2233    4.5977 H   0  0  0  0  0  0  0  0  0  0  0  0
    6.9083    2.4374    5.2041 H   0  0  0  0  0  0  0  0  0  0  0  0
    7.9881    0.6359    3.8889 H   0  0  0  0  0  0  0  0  0  0  0  0
    6.8184   -0.3643    1.9568 H   0  0  0  0  0  0  0  0  0  0  0  0
    5.3459   -1.0140   -1.2857 H   0  0  0  0  0  0  0  0  0  0  0  0
    3.6826   -3.6196   -4.3051 H   0  0  0  0  0  0  0  0  0  0  0  0
    1.4596   -2.5354   -4.0377 H   0  0  0  0  0  0  0  0  0  0  0  0
   -0.1502   -0.2088   -3.9004 H   0  0  0  0  0  0  0  0  0  0  0  0
   -0.5692   -1.6364   -2.8712 H   0  0  0  0  0  0  0  0  0  0  0  0
   -1.0048    0.0189   -2.3291 H   0  0  0  0  0  0  0  0  0  0  0  0
   -4.2246    1.1688   -1.0559 H   0  0  0  0  0  0  0  0  0  0  0  0
   -5.1063    1.9434    2.4679 H   0  0  0  0  0  0  0  0  0  0  0  0
   -6.6849    3.7067    3.1433 H   0  0  0  0  0  0  0  0  0  0  0  0
   -7.6319    5.2531    1.4539 H   0  0  0  0  0  0  0  0  0  0  0  0
   -6.9925    5.0260   -0.9305 H   0  0  0  0  0  0  0  0  0  0  0  0
   -5.3957    3.2752   -1.6279 H   0  0  0  0  0  0  0  0  0  0  0  0
   -5.1421   -0.9590   -0.4208 H   0  0  0  0  0  0  0  0  0  0  0  0
   -3.8513   -4.8767   -1.6991 H   0  0  0  0  0  0  0  0  0  0  0  0
   -1.5315   -4.3704   -0.9635 H   0  0  0  0  0  0  0  0  0  0  0  0
  1  2  1  0
  2  3  1  0
  3  4  1  0
  4  5  1  0
  5  6  1  0
  6  7  2  0
  7  8  1  0
  8  9  2  0
  8 10  1  0
 10 11  1  0
 11 12  2  0
 12 13  1  0
 13 14  2  0
 14 15  1  0
 15 16  2  0
  7 17  1  0
 17 18  2  0
 18 19  1  0
 19 20  1  0
 19 21  2  0
 21 22  1  0
 22 23  2  0
 23 24  1  0
 24 25  1  0
  3 26  2  0
 26 27  1  0
 27 28  2  0
 27 29  1  0
 29 30  1  0
 30 31  2  0
 31 32  1  0
 32 33  2  0
 33 34  1  0
 34 35  2  0
 26 36  1  0
 36 37  2  0
 37 38  1  0
 38 39  1  0
 38 40  2  0
 40 41  1  0
 41 42  2  0
 42  2  1  0
 24  6  1  0
 35 30  1  0
 42 36  1  0
 16 11  1  0
 23 17  1  0
  1 43  1  0
  1 44  1  0
  1 45  1  0
 10 46  1  0
 12 47  1  0
 13 48  1  0
 14 49  1  0
 15 50  1  0
 16 51  1  0
 18 52  1  0
 21 53  1  0
 22 54  1  0
 25 55  1  0
 25 56  1  0
 25 57  1  0
 29 58  1  0
 31 59  1  0
 32 60  1  0
 33 61  1  0
 34 62  1  0
 35 63  1  0
 37 64  1  0
 40 65  1  0
 41 66  1  0
M  END
$$$$
