
     RDKit          3D

 50 54  0  0  0  0  0  0  0  0999 V2000
    7.6178   -2.8632    0.9688 Br  0  0  0  0  0  0  0  0  0  0  0  0
    7.2654   -1.0388    0.5269 C   0  0  0  0  0  0  0  0  0  0  0  0
    8.3151   -0.1167    0.4768 C   0  0  0  0  0  0  0  0  0  0  0  0
    8.0558    1.2210    0.1694 C   0  0  0  0  0  0  0  0  0  0  0  0
    6.7484    1.6390   -0.0959 C   0  0  0  0  0  0  0  0  0  0  0  0
    5.6886    0.7185   -0.0685 C   0  0  0  0  0  0  0  0  0  0  0  0
    4.3485    1.1736   -0.3249 N   0  0  0  0  0  0  0  0  0  0  0  0
    3.3205    0.3342   -0.8794 C   0  0  0  0  0  0  0  0  0  0  0  0
    3.6653   -0.6532   -1.7508 N   0  0  0  0  0  0  0  0  0  0  0  0
    2.7363   -1.4454   -2.3427 C   0  0  0  0  0  0  0  0  0  0  0  0
    1.4178   -1.2623   -2.0846 N   0  0  0  0  0  0  0  0  0  0  0  0
    0.9991   -0.2953   -1.2295 C   0  0  0  0  0  0  0  0  0  0  0  0
   -0.3779   -0.1389   -0.9788 C   0  0  0  0  0  0  0  0  0  0  0  0
   -0.7645    0.8555   -0.0808 C   0  0  0  0  0  0  0  0  0  0  0  0
    0.1479    1.6499    0.5496 C   0  0  0  0  0  0  0  0  0  0  0  0
   -0.5840    2.4769    1.3748 C   0  0  0  0  0  0  0  0  0  0  0  0
   -1.8961    2.1706    1.2304 N   0  0  0  0  0  0  0  0  0  0  0  0
   -2.0001    1.1917    0.3372 N   0  0  0  0  0  0  0  0  0  0  0  0
   -3.2651    0.5603   -0.0311 C   0  0  0  0  0  0  0  0  0  0  0  0
   -3.4840   -0.7054    0.8123 C   0  0  0  0  0  0  0  0  0  0  0  0
   -4.7743   -1.3810    0.5522 N   0  0  0  0  0  0  0  0  0  0  0  0
   -4.8934   -2.0025   -0.7837 C   0  0  0  0  0  0  0  0  0  0  0  0
   -5.5509   -1.0723   -1.8320 C   0  0  0  0  0  0  0  0  0  0  0  0
   -6.0624    0.1240   -1.2779 O   0  0  0  0  0  0  0  0  0  0  0  0
   -6.8579   -0.1787   -0.1558 C   0  0  0  0  0  0  0  0  0  0  0  0
   -5.9715   -0.6390    1.0090 C   0  0  0  0  0  0  0  0  0  0  0  0
    1.5172    1.5319    0.3343 C   0  0  0  0  0  0  0  0  0  0  0  0
    1.9571    0.5470   -0.5851 C   0  0  0  0  0  0  0  0  0  0  0  0
    5.9556   -0.6237    0.2618 C   0  0  0  0  0  0  0  0  0  0  0  0
    9.3293   -0.4342    0.6826 H   0  0  0  0  0  0  0  0  0  0  0  0
    8.8684    1.9354    0.1380 H   0  0  0  0  0  0  0  0  0  0  0  0
    6.5613    2.6791   -0.3316 H   0  0  0  0  0  0  0  0  0  0  0  0
    4.1528    2.1945   -0.2215 H   0  0  0  0  0  0  0  0  0  0  0  0
    3.0482   -2.2215   -3.0279 H   0  0  0  0  0  0  0  0  0  0  0  0
   -1.1079   -0.7758   -1.4619 H   0  0  0  0  0  0  0  0  0  0  0  0
   -0.1983    3.2376    2.0404 H   0  0  0  0  0  0  0  0  0  0  0  0
   -4.0913    1.2825    0.1383 H   0  0  0  0  0  0  0  0  0  0  0  0
   -3.2458    0.3097   -1.1109 H   0  0  0  0  0  0  0  0  0  0  0  0
   -2.6519   -1.4187    0.6254 H   0  0  0  0  0  0  0  0  0  0  0  0
   -3.4229   -0.4385    1.8903 H   0  0  0  0  0  0  0  0  0  0  0  0
   -3.9024   -2.3492   -1.1523 H   0  0  0  0  0  0  0  0  0  0  0  0
   -5.5198   -2.9149   -0.6811 H   0  0  0  0  0  0  0  0  0  0  0  0
   -4.7935   -0.8001   -2.5971 H   0  0  0  0  0  0  0  0  0  0  0  0
   -6.3590   -1.6142   -2.3727 H   0  0  0  0  0  0  0  0  0  0  0  0
   -7.4122    0.7350    0.1462 H   0  0  0  0  0  0  0  0  0  0  0  0
   -7.6229   -0.9536   -0.3977 H   0  0  0  0  0  0  0  0  0  0  0  0
   -5.6891    0.2450    1.6232 H   0  0  0  0  0  0  0  0  0  0  0  0
   -6.5682   -1.3024    1.6704 H   0  0  0  0  0  0  0  0  0  0  0  0
    2.2000    2.1701    0.8780 H   0  0  0  0  0  0  0  0  0  0  0  0
    5.1507   -1.3434    0.3334 H   0  0  0  0  0  0  0  0  0  0  0  0
  1  2  1  0
  2  3  2  0
  3  4  1  0
  4  5  2  0
  5  6  1  0
  6  7  1  0
  7  8  1  0
  8  9  2  0
  9 10  1  0
 10 11  2  0
 11 12  1  0
 12 13  2  0
 13 14  1  0
 14 15  2  0
 15 16  1  0
 16 17  2  0
 17 18  1  0
 18 19  1  0
 19 20  1  0
 20 21  1  0
 21 22  1  0
 22 23  1  0
 23 24  1  0
 24 25  1  0
 25 26  1  0
 15 27  1  0
 27 28  2  0
  6 29  2  0
 29  2  1  0
 28  8  1  0
 28 12  1  0
 18 14  1  0
 26 21  1  0
  3 30  1  0
  4 31  1  0
  5 32  1  0
  7 33  1  0
 10 34  1  0
 13 35  1  0
 16 36  1  0
 19 37  1  0
 19 38  1  0
 20 39  1  0
 20 40  1  0
 22 41  1  0
 22 42  1  0
 23 43  1  0
 23 44  1  0
 25 45  1  0
 25 46  1  0
 26 47  1  0
 26 48  1  0
 27 49  1  0
 29 50  1  0
M  END
$$$$
