MODEL 1
REMARK VINA RESULT:    -8.313      0.000      0.000
REMARK INTER + INTRA:         -11.796
REMARK INTER:                 -11.229
REMARK INTRA:                  -0.567
REMARK UNBOUND:                -0.567
REMARK  Name = 
REMARK  8 active torsions:
REMARK  status: ('A' for Active; 'I' for Inactive)
REMARK    1  A    between atoms: C_1  and  N_2
REMARK    2  A    between atoms: N_2  and  C_3
REMARK    3  A    between atoms: N_2  and  C_4
REMARK    4  A    between atoms: C_4  and  C_5
REMARK    5  A    between atoms: C_5  and  C_6
REMARK    6  A    between atoms: C_6  and  N_7
REMARK    7  A    between atoms: C_13  and  N_14
REMARK    8  A    between atoms: N_14  and  C_15
REMARK                            x       y       z     vdW  Elec       q    Type
REMARK                         _______ _______ _______ _____ _____    ______ ____
ROOT
ATOM      1  N   UNL     1      24.740  -0.557  53.977  0.00  0.00    -0.347 N 
ATOM      2  C   UNL     1      24.675  -1.166  55.185  0.00  0.00    +0.006 A 
ATOM      3  C   UNL     1      23.352  -1.396  55.544  0.00  0.00    -0.036 A 
ATOM      4  C   UNL     1      22.599  -0.913  54.494  0.00  0.00    +0.001 A 
ATOM      5  C   UNL     1      21.219  -0.896  54.312  0.00  0.00    -0.040 A 
ATOM      6  C   UNL     1      20.713  -0.349  53.108  0.00  0.00    +0.041 A 
ATOM      7  C   UNL     1      19.333  -0.278  52.822  0.00  0.00    +0.134 A 
ATOM      8  N   UNL     1      18.925   0.287  51.653  0.00  0.00    -0.220 NA
ATOM      9  C   UNL     1      19.807   0.790  50.753  0.00  0.00    +0.119 A 
ATOM     10  N   UNL     1      21.139   0.730  50.996  0.00  0.00    -0.235 NA
ATOM     11  C   UNL     1      21.619   0.178  52.139  0.00  0.00    +0.078 A 
ATOM     12  C   UNL     1      23.008   0.140  52.361  0.00  0.00    -0.011 A 
ATOM     13  C   UNL     1      23.466  -0.415  53.558  0.00  0.00    +0.051 A 
ENDROOT
BRANCH   7  14
ATOM     14  N   UNL     1      18.352  -0.841  53.712  0.00  0.00    -0.299 N 
ATOM     15  H   UNL     1      18.366  -0.565  54.656  0.00  0.00    +0.000 HD
BRANCH  14  16
ATOM     16  C   UNL     1      17.354  -1.788  53.292  0.00  0.00    +0.033 A 
ATOM     17  C   UNL     1      17.501  -3.165  53.540  0.00  0.00    -0.040 A 
ATOM     18  C   UNL     1      16.528  -4.069  53.104  0.00  0.00    -0.059 A 
ATOM     19  C   UNL     1      15.408  -3.610  52.407  0.00  0.00    -0.048 A 
ATOM     20  C   UNL     1      15.261  -2.246  52.139  0.00  0.00    +0.020 A 
ATOM     21 BR   UNL     1      13.735  -1.620  51.175  0.00  0.00    -0.050 Br
ATOM     22  C   UNL     1      16.234  -1.339  52.574  0.00  0.00    -0.027 A 
ENDBRANCH  14  16
ENDBRANCH   7  14
BRANCH   1  23
ATOM     23  C   UNL     1      25.966  -0.215  53.254  0.00  0.00    +0.024 C 
BRANCH  23  24
ATOM     24  C   UNL     1      26.670   0.963  53.935  0.00  0.00    -0.022 C 
BRANCH  24  25
ATOM     25  C   UNL     1      27.763   0.463  54.901  0.00  0.00    -0.000 C 
BRANCH  25  27
ATOM     26  C   UNL     1      29.775  -0.134  53.614  0.00  0.00    -0.013 C 
ATOM     27  N   UNL     1      29.140   0.843  54.513  0.00  0.00    -0.308 N 
ATOM     28  C   UNL     1      29.228   2.206  53.964  0.00  0.00    -0.013 C 
ATOM     29  H   UNL     1      29.671   0.838  55.384  0.00  0.00    +0.000 HD
ENDBRANCH  25  27
ENDBRANCH  24  25
ENDBRANCH  23  24
ENDBRANCH   1  23
TORSDOF 6
ENDMDL
MODEL 2
REMARK VINA RESULT:    -8.240      6.473      8.731
REMARK INTER + INTRA:         -11.696
REMARK INTER:                 -10.827
REMARK INTRA:                  -0.869
REMARK UNBOUND:                -0.567
REMARK  Name = 
REMARK  8 active torsions:
REMARK  status: ('A' for Active; 'I' for Inactive)
REMARK    1  A    between atoms: C_1  and  N_2
REMARK    2  A    between atoms: N_2  and  C_3
REMARK    3  A    between atoms: N_2  and  C_4
REMARK    4  A    between atoms: C_4  and  C_5
REMARK    5  A    between atoms: C_5  and  C_6
REMARK    6  A    between atoms: C_6  and  N_7
REMARK    7  A    between atoms: C_13  and  N_14
REMARK    8  A    between atoms: N_14  and  C_15
REMARK                            x       y       z     vdW  Elec       q    Type
REMARK                         _______ _______ _______ _____ _____    ______ ____
ROOT
ATOM      1  N   UNL     1      26.835   6.694  48.912  0.00  0.00    -0.347 N 
ATOM      2  C   UNL     1      27.782   5.869  48.404  0.00  0.00    +0.006 A 
ATOM      3  C   UNL     1      27.522   4.551  48.763  0.00  0.00    -0.036 A 
ATOM      4  C   UNL     1      26.361   4.596  49.505  0.00  0.00    +0.001 A 
ATOM      5  C   UNL     1      25.639   3.568  50.104  0.00  0.00    -0.040 A 
ATOM      6  C   UNL     1      24.451   3.906  50.798  0.00  0.00    +0.041 A 
ATOM      7  C   UNL     1      23.645   2.945  51.443  0.00  0.00    +0.134 A 
ATOM      8  N   UNL     1      22.532   3.353  52.113  0.00  0.00    -0.220 NA
ATOM      9  C   UNL     1      22.175   4.660  52.182  0.00  0.00    +0.119 A 
ATOM     10  N   UNL     1      22.926   5.606  51.566  0.00  0.00    -0.235 NA
ATOM     11  C   UNL     1      24.047   5.273  50.878  0.00  0.00    +0.078 A 
ATOM     12  C   UNL     1      24.806   6.281  50.257  0.00  0.00    -0.011 A 
ATOM     13  C   UNL     1      25.965   5.905  49.576  0.00  0.00    +0.051 A 
ENDROOT
BRANCH   7  14
ATOM     14  N   UNL     1      23.941   1.539  51.362  0.00  0.00    -0.299 N 
ATOM     15  H   UNL     1      23.818   1.086  50.497  0.00  0.00    +0.000 HD
BRANCH  14  16
ATOM     16  C   UNL     1      24.404   0.762  52.479  0.00  0.00    +0.033 A 
ATOM     17  C   UNL     1      23.515   0.002  53.263  0.00  0.00    -0.040 A 
ATOM     18  C   UNL     1      23.986  -0.729  54.357  0.00  0.00    -0.059 A 
ATOM     19  C   UNL     1      25.342  -0.700  54.688  0.00  0.00    -0.048 A 
ATOM     20  C   UNL     1      26.231   0.067  53.928  0.00  0.00    +0.020 A 
ATOM     21 BR   UNL     1      28.084   0.116  54.389  0.00  0.00    -0.050 Br
ATOM     22  C   UNL     1      25.762   0.800  52.833  0.00  0.00    -0.027 A 
ENDBRANCH  14  16
ENDBRANCH   7  14
BRANCH   1  23
ATOM     23  C   UNL     1      26.749   8.139  48.692  0.00  0.00    +0.024 C 
BRANCH  23  24
ATOM     24  C   UNL     1      28.145   8.720  48.446  0.00  0.00    -0.022 C 
BRANCH  24  25
ATOM     25  C   UNL     1      28.598   9.582  49.641  0.00  0.00    -0.000 C 
BRANCH  25  27
ATOM     26  C   UNL     1      30.797   8.546  49.251  0.00  0.00    -0.013 C 
ATOM     27  N   UNL     1      30.066   9.709  49.778  0.00  0.00    -0.308 N 
ATOM     28  C   UNL     1      30.590  10.965  49.217  0.00  0.00    -0.013 C 
ATOM     29  H   UNL     1      30.237   9.739  50.784  0.00  0.00    +0.000 HD
ENDBRANCH  25  27
ENDBRANCH  24  25
ENDBRANCH  23  24
ENDBRANCH   1  23
TORSDOF 6
ENDMDL
MODEL 3
REMARK VINA RESULT:    -8.135      3.569      9.712
REMARK INTER + INTRA:         -11.555
REMARK INTER:                 -10.969
REMARK INTRA:                  -0.586
REMARK UNBOUND:                -0.567
REMARK  Name = 
REMARK  8 active torsions:
REMARK  status: ('A' for Active; 'I' for Inactive)
REMARK    1  A    between atoms: C_1  and  N_2
REMARK    2  A    between atoms: N_2  and  C_3
REMARK    3  A    between atoms: N_2  and  C_4
REMARK    4  A    between atoms: C_4  and  C_5
REMARK    5  A    between atoms: C_5  and  C_6
REMARK    6  A    between atoms: C_6  and  N_7
REMARK    7  A    between atoms: C_13  and  N_14
REMARK    8  A    between atoms: N_14  and  C_15
REMARK                            x       y       z     vdW  Elec       q    Type
REMARK                         _______ _______ _______ _____ _____    ______ ____
ROOT
ATOM      1  N   UNL     1      18.933  -0.410  52.561  0.00  0.00    -0.347 N 
ATOM      2  C   UNL     1      18.922   0.261  51.384  0.00  0.00    +0.006 A 
ATOM      3  C   UNL     1      20.204   0.682  51.050  0.00  0.00    -0.036 A 
ATOM      4  C   UNL     1      21.015   0.229  52.069  0.00  0.00    +0.001 A 
ATOM      5  C   UNL     1      22.389   0.352  52.245  0.00  0.00    -0.040 A 
ATOM      6  C   UNL     1      22.970  -0.240  53.393  0.00  0.00    +0.041 A 
ATOM      7  C   UNL     1      24.352  -0.172  53.671  0.00  0.00    +0.134 A 
ATOM      8  N   UNL     1      24.829  -0.744  54.810  0.00  0.00    -0.220 NA
ATOM      9  C   UNL     1      24.014  -1.376  55.692  0.00  0.00    +0.119 A 
ATOM     10  N   UNL     1      22.683  -1.464  55.449  0.00  0.00    -0.235 NA
ATOM     11  C   UNL     1      22.137  -0.919  54.332  0.00  0.00    +0.078 A 
ATOM     12  C   UNL     1      20.750  -1.023  54.116  0.00  0.00    -0.011 A 
ATOM     13  C   UNL     1      20.219  -0.433  52.968  0.00  0.00    +0.051 A 
ENDROOT
BRANCH   7  14
ATOM     14  N   UNL     1      25.275   0.437  52.750  0.00  0.00    -0.299 N 
ATOM     15  H   UNL     1      24.959   0.640  51.840  0.00  0.00    +0.000 HD
BRANCH  14  16
ATOM     16  C   UNL     1      26.633   0.764  53.090  0.00  0.00    +0.033 A 
ATOM     17  C   UNL     1      27.046   2.099  53.256  0.00  0.00    -0.040 A 
ATOM     18  C   UNL     1      28.376   2.393  53.566  0.00  0.00    -0.059 A 
ATOM     19  C   UNL     1      29.309   1.363  53.701  0.00  0.00    -0.048 A 
ATOM     20  C   UNL     1      28.913   0.034  53.520  0.00  0.00    +0.020 A 
ATOM     21 BR   UNL     1      30.192  -1.375  53.692  0.00  0.00    -0.050 Br
ATOM     22  C   UNL     1      27.582  -0.264  53.209  0.00  0.00    -0.027 A 
ENDBRANCH  14  16
ENDBRANCH   7  14
BRANCH   1  23
ATOM     23  C   UNL     1      17.780  -1.049  53.195  0.00  0.00    +0.024 C 
BRANCH  23  24
ATOM     24  C   UNL     1      16.666  -1.268  52.167  0.00  0.00    -0.022 C 
BRANCH  24  25
ATOM     25  C   UNL     1      15.393  -0.495  52.565  0.00  0.00    -0.000 C 
BRANCH  25  27
ATOM     26  C   UNL     1      15.376   1.184  50.764  0.00  0.00    -0.013 C 
ATOM     27  N   UNL     1      15.419   0.943  52.216  0.00  0.00    -0.308 N 
ATOM     28  C   UNL     1      14.386   1.724  52.915  0.00  0.00    -0.013 C 
ATOM     29  H   UNL     1      16.323   1.280  52.548  0.00  0.00    +0.000 HD
ENDBRANCH  25  27
ENDBRANCH  24  25
ENDBRANCH  23  24
ENDBRANCH   1  23
TORSDOF 6
ENDMDL
MODEL 4
REMARK VINA RESULT:    -8.092      3.755      8.951
REMARK INTER + INTRA:         -11.497
REMARK INTER:                 -10.405
REMARK INTRA:                  -1.093
REMARK UNBOUND:                -0.567
REMARK  Name = 
REMARK  8 active torsions:
REMARK  status: ('A' for Active; 'I' for Inactive)
REMARK    1  A    between atoms: C_1  and  N_2
REMARK    2  A    between atoms: N_2  and  C_3
REMARK    3  A    between atoms: N_2  and  C_4
REMARK    4  A    between atoms: C_4  and  C_5
REMARK    5  A    between atoms: C_5  and  C_6
REMARK    6  A    between atoms: C_6  and  N_7
REMARK    7  A    between atoms: C_13  and  N_14
REMARK    8  A    between atoms: N_14  and  C_15
REMARK                            x       y       z     vdW  Elec       q    Type
REMARK                         _______ _______ _______ _____ _____    ______ ____
ROOT
ATOM      1  N   UNL     1      20.098   0.131  52.001  0.00  0.00    -0.347 N 
ATOM      2  C   UNL     1      20.110  -0.339  53.272  0.00  0.00    +0.006 A 
ATOM      3  C   UNL     1      21.307  -0.015  53.900  0.00  0.00    -0.036 A 
ATOM      4  C   UNL     1      22.032   0.691  52.964  0.00  0.00    +0.001 A 
ATOM      5  C   UNL     1      23.295   1.269  53.055  0.00  0.00    -0.040 A 
ATOM      6  C   UNL     1      23.793   1.964  51.926  0.00  0.00    +0.041 A 
ATOM      7  C   UNL     1      25.060   2.584  51.909  0.00  0.00    +0.134 A 
ATOM      8  N   UNL     1      25.478   3.210  50.775  0.00  0.00    -0.220 NA
ATOM      9  C   UNL     1      24.713   3.253  49.655  0.00  0.00    +0.119 A 
ATOM     10  N   UNL     1      23.487   2.673  49.643  0.00  0.00    -0.235 NA
ATOM     11  C   UNL     1      23.004   2.033  50.738  0.00  0.00    +0.078 A 
ATOM     12  C   UNL     1      21.731   1.436  50.688  0.00  0.00    -0.011 A 
ATOM     13  C   UNL     1      21.274   0.767  51.825  0.00  0.00    +0.051 A 
ENDROOT
BRANCH   7  14
ATOM     14  N   UNL     1      25.896   2.619  53.080  0.00  0.00    -0.299 N 
ATOM     15  H   UNL     1      25.678   3.266  53.789  0.00  0.00    +0.000 HD
BRANCH  14  16
ATOM     16  C   UNL     1      27.032   1.758  53.267  0.00  0.00    +0.033 A 
ATOM     17  C   UNL     1      28.284   2.272  53.654  0.00  0.00    -0.040 A 
ATOM     18  C   UNL     1      29.380   1.419  53.808  0.00  0.00    -0.059 A 
ATOM     19  C   UNL     1      29.242   0.050  53.569  0.00  0.00    -0.048 A 
ATOM     20  C   UNL     1      28.008  -0.468  53.167  0.00  0.00    +0.020 A 
ATOM     21 BR   UNL     1      27.822  -2.339  52.826  0.00  0.00    -0.050 Br
ATOM     22  C   UNL     1      26.909   0.384  53.010  0.00  0.00    -0.027 A 
ENDBRANCH  14  16
ENDBRANCH   7  14
BRANCH   1  23
ATOM     23  C   UNL     1      18.982   0.031  51.061  0.00  0.00    +0.024 C 
BRANCH  23  24
ATOM     24  C   UNL     1      17.762   0.779  51.607  0.00  0.00    -0.022 C 
BRANCH  24  25
ATOM     25  C   UNL     1      17.582   2.132  50.891  0.00  0.00    -0.000 C 
BRANCH  25  27
ATOM     26  C   UNL     1      19.109   3.995  51.402  0.00  0.00    -0.013 C 
ATOM     27  N   UNL     1      17.851   3.313  51.743  0.00  0.00    -0.308 N 
ATOM     28  C   UNL     1      16.726   4.261  51.784  0.00  0.00    -0.013 C 
ATOM     29  H   UNL     1      17.959   2.939  52.686  0.00  0.00    +0.000 HD
ENDBRANCH  25  27
ENDBRANCH  24  25
ENDBRANCH  23  24
ENDBRANCH   1  23
TORSDOF 6
ENDMDL
MODEL 5
REMARK VINA RESULT:    -7.988      3.763      9.654
REMARK INTER + INTRA:         -11.356
REMARK INTER:                 -10.777
REMARK INTRA:                  -0.580
REMARK UNBOUND:                -0.567
REMARK  Name = 
REMARK  8 active torsions:
REMARK  status: ('A' for Active; 'I' for Inactive)
REMARK    1  A    between atoms: C_1  and  N_2
REMARK    2  A    between atoms: N_2  and  C_3
REMARK    3  A    between atoms: N_2  and  C_4
REMARK    4  A    between atoms: C_4  and  C_5
REMARK    5  A    between atoms: C_5  and  C_6
REMARK    6  A    between atoms: C_6  and  N_7
REMARK    7  A    between atoms: C_13  and  N_14
REMARK    8  A    between atoms: N_14  and  C_15
REMARK                            x       y       z     vdW  Elec       q    Type
REMARK                         _______ _______ _______ _____ _____    ______ ____
ROOT
ATOM      1  N   UNL     1      18.313   0.152  51.569  0.00  0.00    -0.347 N 
ATOM      2  C   UNL     1      18.516   0.751  50.371  0.00  0.00    +0.006 A 
ATOM      3  C   UNL     1      19.871   0.988  50.168  0.00  0.00    -0.036 A 
ATOM      4  C   UNL     1      20.500   0.495  51.291  0.00  0.00    +0.001 A 
ATOM      5  C   UNL     1      21.852   0.454  51.618  0.00  0.00    -0.040 A 
ATOM      6  C   UNL     1      22.223  -0.141  52.848  0.00  0.00    +0.041 A 
ATOM      7  C   UNL     1      23.564  -0.232  53.279  0.00  0.00    +0.134 A 
ATOM      8  N   UNL     1      23.836  -0.794  54.488  0.00  0.00    -0.220 NA
ATOM      9  C   UNL     1      22.855  -1.269  55.297  0.00  0.00    +0.119 A 
ATOM     10  N   UNL     1      21.558  -1.202  54.907  0.00  0.00    -0.235 NA
ATOM     11  C   UNL     1      21.212  -0.656  53.713  0.00  0.00    +0.078 A 
ATOM     12  C   UNL     1      19.855  -0.597  53.345  0.00  0.00    -0.011 A 
ATOM     13  C   UNL     1      19.533  -0.010  52.120  0.00  0.00    +0.051 A 
ENDROOT
BRANCH   7  14
ATOM     14  N   UNL     1      24.652   0.204  52.445  0.00  0.00    -0.299 N 
ATOM     15  H   UNL     1      24.441   0.722  51.635  0.00  0.00    +0.000 HD
BRANCH  14  16
ATOM     16  C   UNL     1      26.032  -0.079  52.732  0.00  0.00    +0.033 A 
ATOM     17  C   UNL     1      26.564  -1.373  52.568  0.00  0.00    -0.040 A 
ATOM     18  C   UNL     1      27.903  -1.629  52.874  0.00  0.00    -0.059 A 
ATOM     19  C   UNL     1      28.720  -0.605  53.358  0.00  0.00    -0.048 A 
ATOM     20  C   UNL     1      28.197   0.678  53.543  0.00  0.00    +0.020 A 
ATOM     21 BR   UNL     1      29.313   2.076  54.216  0.00  0.00    -0.050 Br
ATOM     22  C   UNL     1      26.857   0.938  53.238  0.00  0.00    -0.027 A 
ENDBRANCH  14  16
ENDBRANCH   7  14
BRANCH   1  23
ATOM     23  C   UNL     1      17.024  -0.301  52.093  0.00  0.00    +0.024 C 
BRANCH  23  24
ATOM     24  C   UNL     1      15.934   0.727  51.777  0.00  0.00    -0.022 C 
BRANCH  24  25
ATOM     25  C   UNL     1      14.775   0.626  52.788  0.00  0.00    -0.000 C 
BRANCH  25  27
ATOM     26  C   UNL     1      14.858   3.078  52.575  0.00  0.00    -0.013 C 
ATOM     27  N   UNL     1      14.311   1.929  53.316  0.00  0.00    -0.308 N 
ATOM     28  C   UNL     1      12.846   2.016  53.427  0.00  0.00    -0.013 C 
ATOM     29  H   UNL     1      14.685   1.979  54.264  0.00  0.00    +0.000 HD
ENDBRANCH  25  27
ENDBRANCH  24  25
ENDBRANCH  23  24
ENDBRANCH   1  23
TORSDOF 6
ENDMDL
MODEL 6
REMARK VINA RESULT:    -7.675      2.773      3.252
REMARK INTER + INTRA:         -10.934
REMARK INTER:                 -10.047
REMARK INTRA:                  -0.887
REMARK UNBOUND:                -0.567
REMARK  Name = 
REMARK  8 active torsions:
REMARK  status: ('A' for Active; 'I' for Inactive)
REMARK    1  A    between atoms: C_1  and  N_2
REMARK    2  A    between atoms: N_2  and  C_3
REMARK    3  A    between atoms: N_2  and  C_4
REMARK    4  A    between atoms: C_4  and  C_5
REMARK    5  A    between atoms: C_5  and  C_6
REMARK    6  A    between atoms: C_6  and  N_7
REMARK    7  A    between atoms: C_13  and  N_14
REMARK    8  A    between atoms: N_14  and  C_15
REMARK                            x       y       z     vdW  Elec       q    Type
REMARK                         _______ _______ _______ _____ _____    ______ ____
ROOT
ATOM      1  N   UNL     1      23.796  -0.450  53.854  0.00  0.00    -0.347 N 
ATOM      2  C   UNL     1      22.954  -1.153  54.649  0.00  0.00    +0.006 A 
ATOM      3  C   UNL     1      21.668  -0.631  54.578  0.00  0.00    -0.036 A 
ATOM      4  C   UNL     1      21.748   0.421  53.691  0.00  0.00    +0.001 A 
ATOM      5  C   UNL     1      20.760   1.289  53.235  0.00  0.00    -0.040 A 
ATOM      6  C   UNL     1      21.127   2.279  52.292  0.00  0.00    +0.041 A 
ATOM      7  C   UNL     1      20.207   3.212  51.767  0.00  0.00    +0.134 A 
ATOM      8  N   UNL     1      20.644   4.151  50.884  0.00  0.00    -0.220 NA
ATOM      9  C   UNL     1      21.942   4.221  50.495  0.00  0.00    +0.119 A 
ATOM     10  N   UNL     1      22.848   3.335  50.976  0.00  0.00    -0.235 NA
ATOM     11  C   UNL     1      22.484   2.370  51.858  0.00  0.00    +0.078 A 
ATOM     12  C   UNL     1      23.453   1.471  52.342  0.00  0.00    -0.011 A 
ATOM     13  C   UNL     1      23.048   0.505  53.265  0.00  0.00    +0.051 A 
ENDROOT
BRANCH   7  14
ATOM     14  N   UNL     1      18.808   3.156  52.099  0.00  0.00    -0.299 N 
ATOM     15  H   UNL     1      18.490   3.682  52.868  0.00  0.00    +0.000 HD
BRANCH  14  16
ATOM     16  C   UNL     1      17.852   2.369  51.368  0.00  0.00    +0.033 A 
ATOM     17  C   UNL     1      18.250   1.255  50.606  0.00  0.00    -0.040 A 
ATOM     18  C   UNL     1      17.305   0.518  49.886  0.00  0.00    -0.059 A 
ATOM     19  C   UNL     1      15.960   0.891  49.910  0.00  0.00    -0.048 A 
ATOM     20  C   UNL     1      15.556   2.007  50.649  0.00  0.00    +0.020 A 
ATOM     21 BR   UNL     1      13.717   2.524  50.670  0.00  0.00    -0.050 Br
ATOM     22  C   UNL     1      16.500   2.747  51.369  0.00  0.00    -0.027 A 
ENDBRANCH  14  16
ENDBRANCH   7  14
BRANCH   1  23
ATOM     23  C   UNL     1      25.212  -0.747  53.629  0.00  0.00    +0.024 C 
BRANCH  23  24
ATOM     24  C   UNL     1      26.060  -0.165  54.764  0.00  0.00    -0.022 C 
BRANCH  24  25
ATOM     25  C   UNL     1      26.613   1.222  54.378  0.00  0.00    -0.000 C 
BRANCH  25  27
ATOM     26  C   UNL     1      28.792   0.081  54.497  0.00  0.00    -0.013 C 
ATOM     27  N   UNL     1      28.076   1.366  54.555  0.00  0.00    -0.308 N 
ATOM     28  C   UNL     1      28.672   2.349  53.636  0.00  0.00    -0.013 C 
ATOM     29  H   UNL     1      28.193   1.732  55.500  0.00  0.00    +0.000 HD
ENDBRANCH  25  27
ENDBRANCH  24  25
ENDBRANCH  23  24
ENDBRANCH   1  23
TORSDOF 6
ENDMDL
MODEL 7
REMARK VINA RESULT:    -7.445      6.021      7.868
REMARK INTER + INTRA:         -10.623
REMARK INTER:                  -9.750
REMARK INTRA:                  -0.872
REMARK UNBOUND:                -0.567
REMARK  Name = 
REMARK  8 active torsions:
REMARK  status: ('A' for Active; 'I' for Inactive)
REMARK    1  A    between atoms: C_1  and  N_2
REMARK    2  A    between atoms: N_2  and  C_3
REMARK    3  A    between atoms: N_2  and  C_4
REMARK    4  A    between atoms: C_4  and  C_5
REMARK    5  A    between atoms: C_5  and  C_6
REMARK    6  A    between atoms: C_6  and  N_7
REMARK    7  A    between atoms: C_13  and  N_14
REMARK    8  A    between atoms: N_14  and  C_15
REMARK                            x       y       z     vdW  Elec       q    Type
REMARK                         _______ _______ _______ _____ _____    ______ ____
ROOT
ATOM      1  N   UNL     1      25.689   5.707  49.426  0.00  0.00    -0.347 N 
ATOM      2  C   UNL     1      26.713   4.876  49.115  0.00  0.00    +0.006 A 
ATOM      3  C   UNL     1      26.438   3.582  49.542  0.00  0.00    -0.036 A 
ATOM      4  C   UNL     1      25.188   3.646  50.120  0.00  0.00    +0.001 A 
ATOM      5  C   UNL     1      24.416   2.644  50.701  0.00  0.00    -0.040 A 
ATOM      6  C   UNL     1      23.140   2.994  51.204  0.00  0.00    +0.041 A 
ATOM      7  C   UNL     1      22.277   2.060  51.815  0.00  0.00    +0.134 A 
ATOM      8  N   UNL     1      21.077   2.481  52.298  0.00  0.00    -0.220 NA
ATOM      9  C   UNL     1      20.684   3.777  52.214  0.00  0.00    +0.119 A 
ATOM     10  N   UNL     1      21.488   4.697  51.626  0.00  0.00    -0.235 NA
ATOM     11  C   UNL     1      22.698   4.349  51.120  0.00  0.00    +0.078 A 
ATOM     12  C   UNL     1      23.509   5.332  50.523  0.00  0.00    -0.011 A 
ATOM     13  C   UNL     1      24.757   4.943  50.032  0.00  0.00    +0.051 A 
ENDROOT
BRANCH   7  14
ATOM     14  N   UNL     1      22.613   0.662  51.888  0.00  0.00    -0.299 N 
ATOM     15  H   UNL     1      22.424   0.097  51.105  0.00  0.00    +0.000 HD
BRANCH  14  16
ATOM     16  C   UNL     1      23.209   0.050  53.044  0.00  0.00    +0.033 A 
ATOM     17  C   UNL     1      22.445  -0.723  53.939  0.00  0.00    -0.040 A 
ATOM     18  C   UNL     1      23.041  -1.290  55.068  0.00  0.00    -0.059 A 
ATOM     19  C   UNL     1      24.398  -1.083  55.323  0.00  0.00    -0.048 A 
ATOM     20  C   UNL     1      25.162  -0.301  54.451  0.00  0.00    +0.020 A 
ATOM     21 BR   UNL     1      27.016  -0.006  54.808  0.00  0.00    -0.050 Br
ATOM     22  C   UNL     1      24.568   0.269  53.321  0.00  0.00    -0.027 A 
ENDBRANCH  14  16
ENDBRANCH   7  14
BRANCH   1  23
ATOM     23  C   UNL     1      25.600   7.126  49.080  0.00  0.00    +0.024 C 
BRANCH  23  24
ATOM     24  C   UNL     1      26.111   7.986  50.239  0.00  0.00    -0.022 C 
BRANCH  24  25
ATOM     25  C   UNL     1      27.263   8.901  49.777  0.00  0.00    -0.000 C 
BRANCH  25  27
ATOM     26  C   UNL     1      26.317  10.723  48.417  0.00  0.00    -0.013 C 
ATOM     27  N   UNL     1      27.084   9.467  48.420  0.00  0.00    -0.308 N 
ATOM     28  C   UNL     1      28.351   9.615  47.687  0.00  0.00    -0.013 C 
ATOM     29  H   UNL     1      26.527   8.776  47.917  0.00  0.00    +0.000 HD
ENDBRANCH  25  27
ENDBRANCH  24  25
ENDBRANCH  23  24
ENDBRANCH   1  23
TORSDOF 6
ENDMDL
MODEL 8
REMARK VINA RESULT:    -7.406      2.371      3.793
REMARK INTER + INTRA:         -10.570
REMARK INTER:                  -9.753
REMARK INTRA:                  -0.817
REMARK UNBOUND:                -0.567
REMARK  Name = 
REMARK  8 active torsions:
REMARK  status: ('A' for Active; 'I' for Inactive)
REMARK    1  A    between atoms: C_1  and  N_2
REMARK    2  A    between atoms: N_2  and  C_3
REMARK    3  A    between atoms: N_2  and  C_4
REMARK    4  A    between atoms: C_4  and  C_5
REMARK    5  A    between atoms: C_5  and  C_6
REMARK    6  A    between atoms: C_6  and  N_7
REMARK    7  A    between atoms: C_13  and  N_14
REMARK    8  A    between atoms: N_14  and  C_15
REMARK                            x       y       z     vdW  Elec       q    Type
REMARK                         _______ _______ _______ _____ _____    ______ ____
ROOT
ATOM      1  N   UNL     1      23.509   0.016  53.316  0.00  0.00    -0.347 N 
ATOM      2  C   UNL     1      23.862   1.021  52.477  0.00  0.00    +0.006 A 
ATOM      3  C   UNL     1      22.767   1.440  51.731  0.00  0.00    -0.036 A 
ATOM      4  C   UNL     1      21.713   0.658  52.156  0.00  0.00    +0.001 A 
ATOM      5  C   UNL     1      20.380   0.656  51.759  0.00  0.00    -0.040 A 
ATOM      6  C   UNL     1      19.498  -0.255  52.390  0.00  0.00    +0.041 A 
ATOM      7  C   UNL     1      18.128  -0.344  52.063  0.00  0.00    +0.134 A 
ATOM      8  N   UNL     1      17.353  -1.265  52.696  0.00  0.00    -0.220 NA
ATOM      9  C   UNL     1      17.858  -2.107  53.633  0.00  0.00    +0.119 A 
ATOM     10  N   UNL     1      19.168  -2.042  53.974  0.00  0.00    -0.235 NA
ATOM     11  C   UNL     1      20.002  -1.146  53.386  0.00  0.00    +0.078 A 
ATOM     12  C   UNL     1      21.357  -1.111  53.759  0.00  0.00    -0.011 A 
ATOM     13  C   UNL     1      22.191  -0.192  53.118  0.00  0.00    +0.051 A 
ENDROOT
BRANCH   7  14
ATOM     14  N   UNL     1      17.522   0.556  51.117  0.00  0.00    -0.299 N 
ATOM     15  H   UNL     1      17.595   0.344  50.159  0.00  0.00    +0.000 HD
BRANCH  14  16
ATOM     16  C   UNL     1      16.817   1.749  51.501  0.00  0.00    +0.033 A 
ATOM     17  C   UNL     1      17.406   3.021  51.371  0.00  0.00    -0.040 A 
ATOM     18  C   UNL     1      16.709   4.165  51.770  0.00  0.00    -0.059 A 
ATOM     19  C   UNL     1      15.427   4.052  52.312  0.00  0.00    -0.048 A 
ATOM     20  C   UNL     1      14.841   2.791  52.463  0.00  0.00    +0.020 A 
ATOM     21 BR   UNL     1      13.092   2.635  53.216  0.00  0.00    -0.050 Br
ATOM     22  C   UNL     1      15.536   1.644  52.065  0.00  0.00    -0.027 A 
ENDBRANCH  14  16
ENDBRANCH   7  14
BRANCH   1  23
ATOM     23  C   UNL     1      24.384  -0.632  54.294  0.00  0.00    +0.024 C 
BRANCH  23  24
ATOM     24  C   UNL     1      25.834  -0.611  53.801  0.00  0.00    -0.022 C 
BRANCH  24  25
ATOM     25  C   UNL     1      26.747   0.105  54.817  0.00  0.00    -0.000 C 
BRANCH  25  27
ATOM     26  C   UNL     1      28.686  -0.605  53.476  0.00  0.00    -0.013 C 
ATOM     27  N   UNL     1      28.083   0.463  54.289  0.00  0.00    -0.308 N 
ATOM     28  C   UNL     1      28.092   1.748  53.570  0.00  0.00    -0.013 C 
ATOM     29  H   UNL     1      28.671   0.579  55.114  0.00  0.00    +0.000 HD
ENDBRANCH  25  27
ENDBRANCH  24  25
ENDBRANCH  23  24
ENDBRANCH   1  23
TORSDOF 6
ENDMDL
MODEL 9
REMARK VINA RESULT:    -7.385      7.656     10.379
REMARK INTER + INTRA:         -10.542
REMARK INTER:                  -9.704
REMARK INTRA:                  -0.839
REMARK UNBOUND:                -0.567
REMARK  Name = 
REMARK  8 active torsions:
REMARK  status: ('A' for Active; 'I' for Inactive)
REMARK    1  A    between atoms: C_1  and  N_2
REMARK    2  A    between atoms: N_2  and  C_3
REMARK    3  A    between atoms: N_2  and  C_4
REMARK    4  A    between atoms: C_4  and  C_5
REMARK    5  A    between atoms: C_5  and  C_6
REMARK    6  A    between atoms: C_6  and  N_7
REMARK    7  A    between atoms: C_13  and  N_14
REMARK    8  A    between atoms: N_14  and  C_15
REMARK                            x       y       z     vdW  Elec       q    Type
REMARK                         _______ _______ _______ _____ _____    ______ ____
ROOT
ATOM      1  N   UNL     1      28.563   7.693  47.632  0.00  0.00    -0.347 N 
ATOM      2  C   UNL     1      29.651   6.888  47.572  0.00  0.00    +0.006 A 
ATOM      3  C   UNL     1      29.346   5.619  48.052  0.00  0.00    -0.036 A 
ATOM      4  C   UNL     1      28.013   5.670  48.400  0.00  0.00    +0.001 A 
ATOM      5  C   UNL     1      27.183   4.682  48.920  0.00  0.00    -0.040 A 
ATOM      6  C   UNL     1      25.828   5.012  49.166  0.00  0.00    +0.041 A 
ATOM      7  C   UNL     1      24.901   4.089  49.695  0.00  0.00    +0.134 A 
ATOM      8  N   UNL     1      23.622   4.491  49.928  0.00  0.00    -0.220 NA
ATOM      9  C   UNL     1      23.210   5.758  49.670  0.00  0.00    +0.119 A 
ATOM     10  N   UNL     1      24.075   6.666  49.154  0.00  0.00    -0.235 NA
ATOM     11  C   UNL     1      25.366   6.335  48.894  0.00  0.00    +0.078 A 
ATOM     12  C   UNL     1      26.237   7.304  48.366  0.00  0.00    -0.011 A 
ATOM     13  C   UNL     1      27.563   6.936  48.131  0.00  0.00    +0.051 A 
ENDROOT
BRANCH   7  14
ATOM     14  N   UNL     1      25.263   2.718  49.940  0.00  0.00    -0.299 N 
ATOM     15  H   UNL     1      25.335   2.110  49.170  0.00  0.00    +0.000 HD
BRANCH  14  16
ATOM     16  C   UNL     1      25.523   2.191  51.253  0.00  0.00    +0.033 A 
ATOM     17  C   UNL     1      24.508   1.576  52.010  0.00  0.00    -0.040 A 
ATOM     18  C   UNL     1      24.779   1.090  53.292  0.00  0.00    -0.059 A 
ATOM     19  C   UNL     1      26.059   1.222  53.835  0.00  0.00    -0.048 A 
ATOM     20  C   UNL     1      27.070   1.848  53.099  0.00  0.00    +0.020 A 
ATOM     21 BR   UNL     1      28.817   2.039  53.848  0.00  0.00    -0.050 Br
ATOM     22  C   UNL     1      26.801   2.336  51.816  0.00  0.00    -0.027 A 
ENDBRANCH  14  16
ENDBRANCH   7  14
BRANCH   1  23
ATOM     23  C   UNL     1      28.491   9.076  47.159  0.00  0.00    +0.024 C 
BRANCH  23  24
ATOM     24  C   UNL     1      28.460  10.040  48.348  0.00  0.00    -0.022 C 
BRANCH  24  25
ATOM     25  C   UNL     1      29.416  11.227  48.115  0.00  0.00    -0.000 C 
BRANCH  25  27
ATOM     26  C   UNL     1      30.845   9.886  49.606  0.00  0.00    -0.013 C 
ATOM     27  N   UNL     1      30.757  11.058  48.720  0.00  0.00    -0.308 N 
ATOM     28  C   UNL     1      31.840  11.055  47.724  0.00  0.00    -0.013 C 
ATOM     29  H   UNL     1      30.890  11.884  49.303  0.00  0.00    +0.000 HD
ENDBRANCH  25  27
ENDBRANCH  24  25
ENDBRANCH  23  24
ENDBRANCH   1  23
TORSDOF 6
ENDMDL
