MODEL 1
REMARK VINA RESULT:    -4.897      0.000      0.000
REMARK INTER + INTRA:          -5.916
REMARK INTER:                  -5.756
REMARK INTRA:                  -0.160
REMARK UNBOUND:                -0.160
REMARK  Name = 
REMARK  3 active torsions:
REMARK  status: ('A' for Active; 'I' for Inactive)
REMARK    1  A    between atoms: C_2  and  C_3
REMARK    2  A    between atoms: C_3  and  C_4
REMARK    3  A    between atoms: C_6  and  C_7
REMARK                            x       y       z     vdW  Elec       q    Type
REMARK                         _______ _______ _______ _____ _____    ______ ____
ROOT
ATOM      1  C   UNL     1      24.800  -0.210  53.363  0.00  0.00    +0.129 C 
ATOM      2  C   UNL     1      25.896   0.024  52.623  0.00  0.00    -0.027 C 
ENDROOT
BRANCH   2   3
ATOM      3  C   UNL     1      27.282  -0.299  53.035  0.00  0.00    -0.020 A 
ATOM      4  C   UNL     1      28.106   0.728  53.520  0.00  0.00    -0.036 A 
ATOM      5  C   UNL     1      29.424   0.443  53.882  0.00  0.00    +0.028 A 
ATOM      6  N   UNL     1      29.912  -0.819  53.745  0.00  0.00    -0.263 NA
ATOM      7  C   UNL     1      29.147  -1.828  53.255  0.00  0.00    +0.028 A 
ATOM      8  C   UNL     1      27.822  -1.588  52.882  0.00  0.00    -0.036 A 
ENDBRANCH   2   3
BRANCH   1  10
ATOM      9  N   UNL     1      24.910  -1.168  55.777  0.00  0.00    -0.190 NA
ATOM     10  C   UNL     1      24.861  -0.743  54.702  0.00  0.00    +0.110 C 
ENDBRANCH   1  10
BRANCH   1  11
ATOM     11  C   UNL     1      23.508   0.159  52.850  0.00  0.00    +0.110 C 
ATOM     12  N   UNL     1      22.467   0.456  52.437  0.00  0.00    -0.190 NA
ENDBRANCH   1  11
TORSDOF 3
ENDMDL
MODEL 2
REMARK VINA RESULT:    -4.892      1.714      2.690
REMARK INTER + INTRA:          -5.910
REMARK INTER:                  -5.750
REMARK INTRA:                  -0.161
REMARK UNBOUND:                -0.160
REMARK  Name = 
REMARK  3 active torsions:
REMARK  status: ('A' for Active; 'I' for Inactive)
REMARK    1  A    between atoms: C_2  and  C_3
REMARK    2  A    between atoms: C_3  and  C_4
REMARK    3  A    between atoms: C_6  and  C_7
REMARK                            x       y       z     vdW  Elec       q    Type
REMARK                         _______ _______ _______ _____ _____    ______ ____
ROOT
ATOM      1  C   UNL     1      23.478   0.171  53.124  0.00  0.00    +0.129 C 
ATOM      2  C   UNL     1      24.290  -0.613  53.854  0.00  0.00    -0.027 C 
ENDROOT
BRANCH   2   3
ATOM      3  C   UNL     1      25.768  -0.523  53.866  0.00  0.00    -0.020 A 
ATOM      4  C   UNL     1      26.505  -1.260  52.928  0.00  0.00    -0.036 A 
ATOM      5  C   UNL     1      27.900  -1.208  52.950  0.00  0.00    +0.028 A 
ATOM      6  N   UNL     1      28.541  -0.464  53.889  0.00  0.00    -0.263 NA
ATOM      7  C   UNL     1      27.856   0.240  54.828  0.00  0.00    +0.028 A 
ATOM      8  C   UNL     1      26.459   0.218  54.841  0.00  0.00    -0.036 A 
ENDBRANCH   2   3
BRANCH   1  10
ATOM      9  N   UNL     1      24.371   1.946  51.447  0.00  0.00    -0.190 NA
ATOM     10  C   UNL     1      23.973   1.156  52.195  0.00  0.00    +0.110 C 
ENDBRANCH   1  10
BRANCH   1  11
ATOM     11  C   UNL     1      22.055  -0.025  53.195  0.00  0.00    +0.110 C 
ATOM     12  N   UNL     1      20.909  -0.182  53.252  0.00  0.00    -0.190 NA
ENDBRANCH   1  11
TORSDOF 3
ENDMDL
MODEL 3
REMARK VINA RESULT:    -4.874      1.673      2.165
REMARK INTER + INTRA:          -5.889
REMARK INTER:                  -5.743
REMARK INTRA:                  -0.146
REMARK UNBOUND:                -0.160
REMARK  Name = 
REMARK  3 active torsions:
REMARK  status: ('A' for Active; 'I' for Inactive)
REMARK    1  A    between atoms: C_2  and  C_3
REMARK    2  A    between atoms: C_3  and  C_4
REMARK    3  A    between atoms: C_6  and  C_7
REMARK                            x       y       z     vdW  Elec       q    Type
REMARK                         _______ _______ _______ _____ _____    ______ ____
ROOT
ATOM      1  C   UNL     1      24.035   0.353  53.140  0.00  0.00    +0.129 C 
ATOM      2  C   UNL     1      24.764  -0.495  53.885  0.00  0.00    -0.027 C 
ENDROOT
BRANCH   2   3
ATOM      3  C   UNL     1      26.244  -0.535  53.921  0.00  0.00    -0.020 A 
ATOM      4  C   UNL     1      26.925   0.256  54.859  0.00  0.00    -0.036 A 
ATOM      5  C   UNL     1      28.321   0.252  54.881  0.00  0.00    +0.028 A 
ATOM      6  N   UNL     1      29.016  -0.499  53.986  0.00  0.00    -0.263 NA
ATOM      7  C   UNL     1      28.386  -1.255  53.050  0.00  0.00    +0.028 A 
ATOM      8  C   UNL     1      26.990  -1.281  52.993  0.00  0.00    -0.036 A 
ENDBRANCH   2   3
BRANCH   1  10
ATOM      9  N   UNL     1      25.104   2.036  51.472  0.00  0.00    -0.190 NA
ATOM     10  C   UNL     1      24.629   1.287  52.216  0.00  0.00    +0.110 C 
ENDBRANCH   1  10
BRANCH   1  11
ATOM     11  C   UNL     1      22.599   0.284  53.190  0.00  0.00    +0.110 C 
ATOM     12  N   UNL     1      21.443   0.228  53.230  0.00  0.00    -0.190 NA
ENDBRANCH   1  11
TORSDOF 3
ENDMDL
MODEL 4
REMARK VINA RESULT:    -4.807      1.790      5.151
REMARK INTER + INTRA:          -5.810
REMARK INTER:                  -5.685
REMARK INTRA:                  -0.125
REMARK UNBOUND:                -0.160
REMARK  Name = 
REMARK  3 active torsions:
REMARK  status: ('A' for Active; 'I' for Inactive)
REMARK    1  A    between atoms: C_2  and  C_3
REMARK    2  A    between atoms: C_3  and  C_4
REMARK    3  A    between atoms: C_6  and  C_7
REMARK                            x       y       z     vdW  Elec       q    Type
REMARK                         _______ _______ _______ _____ _____    ______ ____
ROOT
ATOM      1  C   UNL     1      26.821  -0.066  53.683  0.00  0.00    +0.129 C 
ATOM      2  C   UNL     1      25.739   0.715  53.835  0.00  0.00    -0.027 C 
ENDROOT
BRANCH   2   3
ATOM      3  C   UNL     1      24.401   0.428  53.269  0.00  0.00    -0.020 A 
ATOM      4  C   UNL     1      23.945   1.184  52.179  0.00  0.00    -0.036 A 
ATOM      5  C   UNL     1      22.672   0.945  51.656  0.00  0.00    +0.028 A 
ATOM      6  N   UNL     1      21.872  -0.001  52.214  0.00  0.00    -0.263 NA
ATOM      7  C   UNL     1      22.275  -0.732  53.286  0.00  0.00    +0.028 A 
ATOM      8  C   UNL     1      23.541  -0.527  53.839  0.00  0.00    -0.036 A 
ENDBRANCH   2   3
BRANCH   1  10
ATOM      9  N   UNL     1      26.811  -2.212  52.215  0.00  0.00    -0.190 NA
ATOM     10  C   UNL     1      26.817  -1.256  52.868  0.00  0.00    +0.110 C 
ENDBRANCH   1  10
BRANCH   1  11
ATOM     11  C   UNL     1      28.069   0.330  54.279  0.00  0.00    +0.110 C 
ATOM     12  N   UNL     1      29.074   0.649  54.759  0.00  0.00    -0.190 NA
ENDBRANCH   1  11
TORSDOF 3
ENDMDL
MODEL 5
REMARK VINA RESULT:    -4.578      2.052      5.490
REMARK INTER + INTRA:          -5.541
REMARK INTER:                  -5.628
REMARK INTRA:                   0.087
REMARK UNBOUND:                -0.160
REMARK  Name = 
REMARK  3 active torsions:
REMARK  status: ('A' for Active; 'I' for Inactive)
REMARK    1  A    between atoms: C_2  and  C_3
REMARK    2  A    between atoms: C_3  and  C_4
REMARK    3  A    between atoms: C_6  and  C_7
REMARK                            x       y       z     vdW  Elec       q    Type
REMARK                         _______ _______ _______ _____ _____    ______ ____
ROOT
ATOM      1  C   UNL     1      26.135   0.337  54.205  0.00  0.00    +0.129 C 
ATOM      2  C   UNL     1      25.287  -0.698  54.324  0.00  0.00    -0.027 C 
ENDROOT
BRANCH   2   3
ATOM      3  C   UNL     1      23.832  -0.637  54.053  0.00  0.00    -0.020 A 
ATOM      4  C   UNL     1      22.935  -1.075  55.038  0.00  0.00    -0.036 A 
ATOM      5  C   UNL     1      21.562  -1.052  54.782  0.00  0.00    +0.028 A 
ATOM      6  N   UNL     1      21.100  -0.627  53.577  0.00  0.00    -0.263 NA
ATOM      7  C   UNL     1      21.945  -0.221  52.593  0.00  0.00    +0.028 A 
ATOM      8  C   UNL     1      23.325  -0.226  52.807  0.00  0.00    -0.036 A 
ENDBRANCH   2   3
BRANCH   1  10
ATOM      9  N   UNL     1      25.351   2.738  53.593  0.00  0.00    -0.190 NA
ATOM     10  C   UNL     1      25.699   1.669  53.866  0.00  0.00    +0.110 C 
ENDBRANCH   1  10
BRANCH   1  11
ATOM     11  C   UNL     1      27.529   0.147  54.508  0.00  0.00    +0.110 C 
ATOM     12  N   UNL     1      28.651  -0.005  54.751  0.00  0.00    -0.190 NA
ENDBRANCH   1  11
TORSDOF 3
ENDMDL
MODEL 6
REMARK VINA RESULT:    -4.384      2.660      3.486
REMARK INTER + INTRA:          -5.314
REMARK INTER:                  -5.240
REMARK INTRA:                  -0.074
REMARK UNBOUND:                -0.160
REMARK  Name = 
REMARK  3 active torsions:
REMARK  status: ('A' for Active; 'I' for Inactive)
REMARK    1  A    between atoms: C_2  and  C_3
REMARK    2  A    between atoms: C_3  and  C_4
REMARK    3  A    between atoms: C_6  and  C_7
REMARK                            x       y       z     vdW  Elec       q    Type
REMARK                         _______ _______ _______ _____ _____    ______ ____
ROOT
ATOM      1  C   UNL     1      25.154   2.615  51.055  0.00  0.00    +0.129 C 
ATOM      2  C   UNL     1      26.451   2.268  51.096  0.00  0.00    -0.027 C 
ENDROOT
BRANCH   2   3
ATOM      3  C   UNL     1      27.063   1.395  52.124  0.00  0.00    -0.020 A 
ATOM      4  C   UNL     1      26.790   0.019  52.100  0.00  0.00    -0.036 A 
ATOM      5  C   UNL     1      27.335  -0.811  53.082  0.00  0.00    +0.028 A 
ATOM      6  N   UNL     1      28.109  -0.284  54.068  0.00  0.00    -0.263 NA
ATOM      7  C   UNL     1      28.370   1.047  54.133  0.00  0.00    +0.028 A 
ATOM      8  C   UNL     1      27.846   1.913  53.170  0.00  0.00    -0.036 A 
ENDBRANCH   2   3
BRANCH   1  10
ATOM      9  N   UNL     1      23.454   1.917  52.895  0.00  0.00    -0.190 NA
ATOM     10  C   UNL     1      24.210   2.227  52.075  0.00  0.00    +0.110 C 
ENDBRANCH   1  10
BRANCH   1  11
ATOM     11  C   UNL     1      24.685   3.479  50.005  0.00  0.00    +0.110 C 
ATOM     12  N   UNL     1      24.307   4.175  49.160  0.00  0.00    -0.190 NA
ENDBRANCH   1  11
TORSDOF 3
ENDMDL
MODEL 7
REMARK VINA RESULT:    -4.339      3.474      4.430
REMARK INTER + INTRA:          -5.261
REMARK INTER:                  -5.104
REMARK INTRA:                  -0.156
REMARK UNBOUND:                -0.160
REMARK  Name = 
REMARK  3 active torsions:
REMARK  status: ('A' for Active; 'I' for Inactive)
REMARK    1  A    between atoms: C_2  and  C_3
REMARK    2  A    between atoms: C_3  and  C_4
REMARK    3  A    between atoms: C_6  and  C_7
REMARK                            x       y       z     vdW  Elec       q    Type
REMARK                         _______ _______ _______ _____ _____    ______ ____
ROOT
ATOM      1  C   UNL     1      25.876   3.369  50.645  0.00  0.00    +0.129 C 
ATOM      2  C   UNL     1      26.836   2.609  51.197  0.00  0.00    -0.027 C 
ENDROOT
BRANCH   2   3
ATOM      3  C   UNL     1      26.605   1.556  52.212  0.00  0.00    -0.020 A 
ATOM      4  C   UNL     1      26.594   1.907  53.570  0.00  0.00    -0.036 A 
ATOM      5  C   UNL     1      26.409   0.918  54.538  0.00  0.00    +0.028 A 
ATOM      6  N   UNL     1      26.261  -0.381  54.166  0.00  0.00    -0.263 NA
ATOM      7  C   UNL     1      26.292  -0.756  52.861  0.00  0.00    +0.028 A 
ATOM      8  C   UNL     1      26.474   0.201  51.860  0.00  0.00    -0.036 A 
ENDBRANCH   2   3
BRANCH   1  10
ATOM      9  N   UNL     1      23.383   3.230  51.371  0.00  0.00    -0.190 NA
ATOM     10  C   UNL     1      24.493   3.292  51.047  0.00  0.00    +0.110 C 
ENDBRANCH   1  10
BRANCH   1  11
ATOM     11  C   UNL     1      26.234   4.368  49.673  0.00  0.00    +0.110 C 
ATOM     12  N   UNL     1      26.522   5.171  48.890  0.00  0.00    -0.190 NA
ENDBRANCH   1  11
TORSDOF 3
ENDMDL
MODEL 8
REMARK VINA RESULT:    -4.278      2.598      5.311
REMARK INTER + INTRA:          -5.188
REMARK INTER:                  -5.015
REMARK INTRA:                  -0.173
REMARK UNBOUND:                -0.160
REMARK  Name = 
REMARK  3 active torsions:
REMARK  status: ('A' for Active; 'I' for Inactive)
REMARK    1  A    between atoms: C_2  and  C_3
REMARK    2  A    between atoms: C_3  and  C_4
REMARK    3  A    between atoms: C_6  and  C_7
REMARK                            x       y       z     vdW  Elec       q    Type
REMARK                         _______ _______ _______ _____ _____    ______ ____
ROOT
ATOM      1  C   UNL     1      25.358  -0.135  52.886  0.00  0.00    +0.129 C 
ATOM      2  C   UNL     1      25.466   0.977  52.140  0.00  0.00    -0.027 C 
ENDROOT
BRANCH   2   3
ATOM      3  C   UNL     1      24.438   2.039  52.046  0.00  0.00    -0.020 A 
ATOM      4  C   UNL     1      23.500   1.989  51.005  0.00  0.00    -0.036 A 
ATOM      5  C   UNL     1      22.545   3.001  50.886  0.00  0.00    +0.028 A 
ATOM      6  N   UNL     1      22.538   4.039  51.763  0.00  0.00    -0.263 NA
ATOM      7  C   UNL     1      23.450   4.129  52.766  0.00  0.00    +0.028 A 
ATOM      8  C   UNL     1      24.421   3.138  52.922  0.00  0.00    -0.036 A 
ENDBRANCH   2   3
BRANCH   1  10
ATOM      9  N   UNL     1      23.214  -0.722  54.234  0.00  0.00    -0.190 NA
ATOM     10  C   UNL     1      24.168  -0.459  53.634  0.00  0.00    +0.110 C 
ENDBRANCH   1  10
BRANCH   1  11
ATOM     11  C   UNL     1      26.428  -1.095  52.885  0.00  0.00    +0.110 C 
ATOM     12  N   UNL     1      27.290  -1.869  52.884  0.00  0.00    -0.190 NA
ENDBRANCH   1  11
TORSDOF 3
ENDMDL
MODEL 9
REMARK VINA RESULT:    -4.140      2.830      6.559
REMARK INTER + INTRA:          -5.026
REMARK INTER:                  -4.858
REMARK INTRA:                  -0.167
REMARK UNBOUND:                -0.160
REMARK  Name = 
REMARK  3 active torsions:
REMARK  status: ('A' for Active; 'I' for Inactive)
REMARK    1  A    between atoms: C_2  and  C_3
REMARK    2  A    between atoms: C_3  and  C_4
REMARK    3  A    between atoms: C_6  and  C_7
REMARK                            x       y       z     vdW  Elec       q    Type
REMARK                         _______ _______ _______ _____ _____    ______ ____
ROOT
ATOM      1  C   UNL     1      23.685  -0.057  53.281  0.00  0.00    +0.129 C 
ATOM      2  C   UNL     1      23.324   0.762  52.279  0.00  0.00    -0.027 C 
ENDROOT
BRANCH   2   3
ATOM      3  C   UNL     1      21.930   1.150  51.962  0.00  0.00    -0.020 A 
ATOM      4  C   UNL     1      21.197   0.375  51.051  0.00  0.00    -0.036 A 
ATOM      5  C   UNL     1      19.893   0.748  50.719  0.00  0.00    +0.028 A 
ATOM      6  N   UNL     1      19.345   1.868  51.261  0.00  0.00    -0.263 NA
ATOM      7  C   UNL     1      20.038   2.653  52.126  0.00  0.00    +0.028 A 
ATOM      8  C   UNL     1      21.345   2.316  52.486  0.00  0.00    -0.036 A 
ENDBRANCH   2   3
BRANCH   1  10
ATOM      9  N   UNL     1      21.956  -1.256  54.807  0.00  0.00    -0.190 NA
ATOM     10  C   UNL     1      22.727  -0.723  54.128  0.00  0.00    +0.110 C 
ENDBRANCH   1  10
BRANCH   1  11
ATOM     11  C   UNL     1      25.077  -0.361  53.479  0.00  0.00    +0.110 C 
ATOM     12  N   UNL     1      26.198  -0.607  53.638  0.00  0.00    -0.190 NA
ENDBRANCH   1  11
TORSDOF 3
ENDMDL
