MODEL 1
REMARK VINA RESULT:   -11.336      0.000      0.000
REMARK INTER + INTRA:         -14.592
REMARK INTER:                 -13.987
REMARK INTRA:                  -0.605
REMARK UNBOUND:                -0.605
REMARK  Name = 
REMARK  7 active torsions:
REMARK  status: ('A' for Active; 'I' for Inactive)
REMARK    1  A    between atoms: C_1  and  O_2
REMARK    2  A    between atoms: O_2  and  C_3
REMARK    3  A    between atoms: C_4  and  N_5
REMARK    4  A    between atoms: N_5  and  C_6
REMARK    5  A    between atoms: C_7  and  C_9
REMARK    6  A    between atoms: C_12  and  C_13
REMARK    7  A    between atoms: C_21  and  C_22
REMARK                            x       y       z     vdW  Elec       q    Type
REMARK                         _______ _______ _______ _____ _____    ______ ____
ROOT
ATOM      1  C   UNL     1      21.602   3.844  50.105  0.00  0.00    +0.125 C 
ATOM      2  C   UNL     1      22.742   4.681  49.515  0.00  0.00    +0.061 C 
ATOM      3  C   UNL     1      24.098   4.056  49.856  0.00  0.00    +0.014 C 
ATOM      4  C   UNL     1      24.053   2.509  49.786  0.00  0.00    +0.140 C 
ATOM      5  O   UNL     1      22.960   1.996  49.047  0.00  0.00    -0.328 OA
ATOM      6  C   UNL     1      21.659   2.401  49.475  0.00  0.00    +0.174 C 
ATOM      7  C   UNL     1      20.845   2.376  48.158  0.00  0.00    -0.014 C 
ATOM      8  N   UNL     1      21.159   1.400  50.452  0.00  0.00    -0.307 N 
ATOM      9  C   UNL     1      19.887   0.956  50.719  0.00  0.00    +0.053 A 
ATOM     10  C   UNL     1      18.668   1.353  50.141  0.00  0.00    -0.037 A 
ATOM     11  C   UNL     1      17.475   0.781  50.613  0.00  0.00    -0.060 A 
ATOM     12  C   UNL     1      17.493  -0.150  51.665  0.00  0.00    -0.061 A 
ATOM     13  C   UNL     1      18.701  -0.502  52.278  0.00  0.00    -0.052 A 
ATOM     14  C   UNL     1      19.878   0.070  51.786  0.00  0.00    +0.008 A 
ATOM     15  C   UNL     1      21.169  -0.000  52.247  0.00  0.00    +0.015 A 
ATOM     16  C   UNL     1      21.733  -0.613  53.379  0.00  0.00    -0.008 A 
ATOM     17  C   UNL     1      23.068  -0.369  53.696  0.00  0.00    +0.052 A 
ATOM     18  C   UNL     1      23.835   0.505  52.894  0.00  0.00    +0.022 A 
ATOM     19  C   UNL     1      25.125   1.008  52.974  0.00  0.00    +0.008 A 
ATOM     20  C   UNL     1      26.147   0.856  53.919  0.00  0.00    -0.052 A 
ATOM     21  C   UNL     1      27.367   1.511  53.690  0.00  0.00    -0.061 A 
ATOM     22  C   UNL     1      27.549   2.310  52.545  0.00  0.00    -0.060 A 
ATOM     23  C   UNL     1      26.507   2.471  51.618  0.00  0.00    -0.037 A 
ATOM     24  C   UNL     1      25.292   1.819  51.865  0.00  0.00    +0.052 A 
ATOM     25  N   UNL     1      24.166   1.873  51.106  0.00  0.00    -0.311 N 
ATOM     26  C   UNL     1      23.275   1.075  51.746  0.00  0.00    +0.077 A 
ATOM     27  C   UNL     1      21.924   0.824  51.420  0.00  0.00    +0.077 A 
ATOM     28  C   UNL     1      23.347  -1.154  54.885  0.00  0.00    +0.245 C 
ATOM     29  O   UNL     1      24.464  -1.311  55.441  0.00  0.00    -0.270 OA
ATOM     30  N   UNL     1      22.173  -1.831  55.309  0.00  0.00    -0.307 N 
ATOM     31  C   UNL     1      21.086  -1.521  54.385  0.00  0.00    +0.039 C 
ATOM     32  H   UNL     1      22.104  -2.415  56.098  0.00  0.00    +0.000 HD
ENDROOT
BRANCH   2  33
ATOM     33  N   UNL     1      22.665   6.109  49.906  0.00  0.00    -0.295 N 
ATOM     34  C   UNL     1      23.579   6.699  50.894  0.00  0.00    +0.004 C 
ATOM     35  C   UNL     1      21.660   6.940  49.288  0.00  0.00    +0.247 C 
ATOM     36  O   UNL     1      20.525   6.458  49.028  0.00  0.00    -0.270 OA
BRANCH  35  37
ATOM     37  C   UNL     1      21.952   8.316  48.847  0.00  0.00    +0.037 A 
ATOM     38  C   UNL     1      21.070   9.346  49.199  0.00  0.00    -0.049 A 
ATOM     39  C   UNL     1      21.307  10.658  48.778  0.00  0.00    -0.047 A 
ATOM     40  C   UNL     1      22.439  10.962  48.001  0.00  0.00    +0.059 A 
ATOM     41  C   UNL     1      23.343   9.934  47.685  0.00  0.00    -0.047 A 
ATOM     42  C   UNL     1      23.106   8.623  48.112  0.00  0.00    -0.049 A 
BRANCH  40  43
ATOM     43  C   UNL     1      22.657  12.339  47.509  0.00  0.00    +0.337 C 
ATOM     44  O   UNL     1      21.716  12.977  46.962  0.00  0.00    -0.245 OA
ATOM     45  O   UNL     1      23.900  12.950  47.660  0.00  0.00    -0.477 OA
ENDBRANCH  40  43
ENDBRANCH  35  37
ENDBRANCH   2  33
BRANCH   1  47
ATOM     46  C   UNL     1      20.580   4.192  52.182  0.00  0.00    +0.037 C 
ATOM     47  O   UNL     1      21.751   3.770  51.519  0.00  0.00    -0.373 OA
ENDBRANCH   1  47
TORSDOF 4
ENDMDL
MODEL 2
REMARK VINA RESULT:   -11.017      2.109      2.634
REMARK INTER + INTRA:         -14.199
REMARK INTER:                 -13.703
REMARK INTRA:                  -0.496
REMARK UNBOUND:                -0.605
REMARK  Name = 
REMARK  7 active torsions:
REMARK  status: ('A' for Active; 'I' for Inactive)
REMARK    1  A    between atoms: C_1  and  O_2
REMARK    2  A    between atoms: O_2  and  C_3
REMARK    3  A    between atoms: C_4  and  N_5
REMARK    4  A    between atoms: N_5  and  C_6
REMARK    5  A    between atoms: C_7  and  C_9
REMARK    6  A    between atoms: C_12  and  C_13
REMARK    7  A    between atoms: C_21  and  C_22
REMARK                            x       y       z     vdW  Elec       q    Type
REMARK                         _______ _______ _______ _____ _____    ______ ____
ROOT
ATOM      1  C   UNL     1      22.784   4.446  49.606  0.00  0.00    +0.125 C 
ATOM      2  C   UNL     1      24.178   4.972  49.249  0.00  0.00    +0.061 C 
ATOM      3  C   UNL     1      25.261   4.052  49.821  0.00  0.00    +0.014 C 
ATOM      4  C   UNL     1      24.861   2.558  49.716  0.00  0.00    +0.140 C 
ATOM      5  O   UNL     1      23.831   2.301  48.781  0.00  0.00    -0.328 OA
ATOM      6  C   UNL     1      22.609   3.014  48.972  0.00  0.00    +0.174 C 
ATOM      7  C   UNL     1      22.066   3.149  47.527  0.00  0.00    -0.014 C 
ATOM      8  N   UNL     1      21.715   2.187  49.822  0.00  0.00    -0.307 N 
ATOM      9  C   UNL     1      20.348   2.066  49.844  0.00  0.00    +0.053 A 
ATOM     10  C   UNL     1      19.384   2.726  49.060  0.00  0.00    -0.037 A 
ATOM     11  C   UNL     1      18.024   2.467  49.296  0.00  0.00    -0.060 A 
ATOM     12  C   UNL     1      17.627   1.587  50.317  0.00  0.00    -0.061 A 
ATOM     13  C   UNL     1      18.585   0.974  51.134  0.00  0.00    -0.052 A 
ATOM     14  C   UNL     1      19.933   1.236  50.876  0.00  0.00    +0.008 A 
ATOM     15  C   UNL     1      21.065   0.873  51.563  0.00  0.00    +0.015 A 
ATOM     16  C   UNL     1      21.251   0.174  52.768  0.00  0.00    -0.008 A 
ATOM     17  C   UNL     1      22.525   0.102  53.328  0.00  0.00    +0.052 A 
ATOM     18  C   UNL     1      23.611   0.747  52.696  0.00  0.00    +0.022 A 
ATOM     19  C   UNL     1      24.947   0.930  53.019  0.00  0.00    +0.008 A 
ATOM     20  C   UNL     1      25.714   0.565  54.132  0.00  0.00    -0.052 A 
ATOM     21  C   UNL     1      27.076   0.905  54.142  0.00  0.00    -0.061 A 
ATOM     22  C   UNL     1      27.648   1.606  53.063  0.00  0.00    -0.060 A 
ATOM     23  C   UNL     1      26.861   1.986  51.965  0.00  0.00    -0.037 A 
ATOM     24  C   UNL     1      25.501   1.649  51.974  0.00  0.00    +0.052 A 
ATOM     25  N   UNL     1      24.578   1.948  51.024  0.00  0.00    -0.311 N 
ATOM     26  C   UNL     1      23.421   1.403  51.475  0.00  0.00    +0.077 A 
ATOM     27  C   UNL     1      22.131   1.471  50.903  0.00  0.00    +0.077 A 
ATOM     28  C   UNL     1      22.388  -0.695  54.535  0.00  0.00    +0.245 C 
ATOM     29  O   UNL     1      23.315  -1.099  55.282  0.00  0.00    -0.270 OA
ATOM     30  N   UNL     1      21.030  -1.062  54.724  0.00  0.00    -0.307 N 
ATOM     31  C   UNL     1      20.234  -0.527  53.623  0.00  0.00    +0.039 C 
ATOM     32  H   UNL     1      20.680  -1.592  55.476  0.00  0.00    +0.000 HD
ENDROOT
BRANCH   2  33
ATOM     33  N   UNL     1      24.375   6.387  49.645  0.00  0.00    -0.295 N 
ATOM     34  C   UNL     1      24.537   6.791  51.049  0.00  0.00    +0.004 C 
ATOM     35  C   UNL     1      24.410   7.393  48.612  0.00  0.00    +0.247 C 
ATOM     36  O   UNL     1      23.660   7.282  47.606  0.00  0.00    -0.270 OA
BRANCH  35  37
ATOM     37  C   UNL     1      25.382   8.502  48.639  0.00  0.00    +0.037 A 
ATOM     38  C   UNL     1      26.730   8.219  48.893  0.00  0.00    -0.049 A 
ATOM     39  C   UNL     1      27.674   9.250  48.948  0.00  0.00    -0.047 A 
ATOM     40  C   UNL     1      27.282  10.584  48.740  0.00  0.00    +0.059 A 
ATOM     41  C   UNL     1      25.936  10.860  48.445  0.00  0.00    -0.047 A 
ATOM     42  C   UNL     1      24.995   9.826  48.386  0.00  0.00    -0.049 A 
BRANCH  40  43
ATOM     43  C   UNL     1      28.270  11.678  48.855  0.00  0.00    +0.337 C 
ATOM     44  O   UNL     1      29.501  11.418  48.941  0.00  0.00    -0.245 OA
ATOM     45  O   UNL     1      27.850  13.006  48.853  0.00  0.00    -0.477 OA
ENDBRANCH  40  43
ENDBRANCH  35  37
ENDBRANCH   2  33
BRANCH   1  47
ATOM     46  C   UNL     1      21.545   5.125  51.472  0.00  0.00    +0.037 C 
ATOM     47  O   UNL     1      22.652   4.376  51.022  0.00  0.00    -0.373 OA
ENDBRANCH   1  47
TORSDOF 4
ENDMDL
MODEL 3
REMARK VINA RESULT:    -9.734      3.679      6.592
REMARK INTER + INTRA:         -12.616
REMARK INTER:                 -12.559
REMARK INTRA:                  -0.057
REMARK UNBOUND:                -0.605
REMARK  Name = 
REMARK  7 active torsions:
REMARK  status: ('A' for Active; 'I' for Inactive)
REMARK    1  A    between atoms: C_1  and  O_2
REMARK    2  A    between atoms: O_2  and  C_3
REMARK    3  A    between atoms: C_4  and  N_5
REMARK    4  A    between atoms: N_5  and  C_6
REMARK    5  A    between atoms: C_7  and  C_9
REMARK    6  A    between atoms: C_12  and  C_13
REMARK    7  A    between atoms: C_21  and  C_22
REMARK                            x       y       z     vdW  Elec       q    Type
REMARK                         _______ _______ _______ _____ _____    ______ ____
ROOT
ATOM      1  C   UNL     1      23.670   4.325  50.664  0.00  0.00    +0.125 C 
ATOM      2  C   UNL     1      23.917   5.771  50.222  0.00  0.00    +0.061 C 
ATOM      3  C   UNL     1      22.589   6.478  49.934  0.00  0.00    +0.014 C 
ATOM      4  C   UNL     1      21.490   6.074  50.949  0.00  0.00    +0.140 C 
ATOM      5  O   UNL     1      21.988   5.496  52.141  0.00  0.00    -0.328 OA
ATOM      6  C   UNL     1      22.816   4.343  51.988  0.00  0.00    +0.174 C 
ATOM      7  C   UNL     1      23.759   4.437  53.213  0.00  0.00    -0.014 C 
ATOM      8  N   UNL     1      21.950   3.137  52.051  0.00  0.00    -0.307 N 
ATOM      9  C   UNL     1      22.195   1.873  52.527  0.00  0.00    +0.053 A 
ATOM     10  C   UNL     1      23.374   1.346  53.084  0.00  0.00    -0.037 A 
ATOM     11  C   UNL     1      23.400  -0.005  53.465  0.00  0.00    -0.060 A 
ATOM     12  C   UNL     1      22.278  -0.828  53.268  0.00  0.00    -0.061 A 
ATOM     13  C   UNL     1      21.124  -0.317  52.662  0.00  0.00    -0.052 A 
ATOM     14  C   UNL     1      21.115   1.033  52.299  0.00  0.00    +0.008 A 
ATOM     15  C   UNL     1      20.187   1.768  51.605  0.00  0.00    +0.015 A 
ATOM     16  C   UNL     1      18.977   1.413  50.984  0.00  0.00    -0.008 A 
ATOM     17  C   UNL     1      18.317   2.346  50.187  0.00  0.00    +0.052 A 
ATOM     18  C   UNL     1      18.876   3.629  49.992  0.00  0.00    +0.022 A 
ATOM     19  C   UNL     1      18.527   4.729  49.223  0.00  0.00    +0.008 A 
ATOM     20  C   UNL     1      17.490   4.959  48.311  0.00  0.00    -0.052 A 
ATOM     21  C   UNL     1      17.414   6.218  47.694  0.00  0.00    -0.061 A 
ATOM     22  C   UNL     1      18.368   7.214  47.978  0.00  0.00    -0.060 A 
ATOM     23  C   UNL     1      19.415   6.960  48.876  0.00  0.00    -0.037 A 
ATOM     24  C   UNL     1      19.484   5.696  49.477  0.00  0.00    +0.052 A 
ATOM     25  N   UNL     1      20.429   5.254  50.346  0.00  0.00    -0.311 N 
ATOM     26  C   UNL     1      20.058   3.985  50.651  0.00  0.00    +0.077 A 
ATOM     27  C   UNL     1      20.725   3.042  51.464  0.00  0.00    +0.077 A 
ATOM     28  C   UNL     1      17.109   1.690  49.719  0.00  0.00    +0.245 C 
ATOM     29  O   UNL     1      16.172   2.213  49.064  0.00  0.00    -0.270 OA
ATOM     30  N   UNL     1      17.066   0.353  50.194  0.00  0.00    -0.307 N 
ATOM     31  C   UNL     1      18.247   0.101  51.014  0.00  0.00    +0.039 C 
ATOM     32  H   UNL     1      16.354  -0.299  50.002  0.00  0.00    +0.000 HD
ENDROOT
BRANCH   2  33
ATOM     33  N   UNL     1      24.865   5.869  49.087  0.00  0.00    -0.295 N 
ATOM     34  C   UNL     1      24.502   6.519  47.819  0.00  0.00    +0.004 C 
ATOM     35  C   UNL     1      26.185   5.308  49.240  0.00  0.00    +0.247 C 
ATOM     36  O   UNL     1      26.339   4.243  49.897  0.00  0.00    -0.270 OA
BRANCH  35  37
ATOM     37  C   UNL     1      27.388   6.002  48.745  0.00  0.00    +0.037 A 
ATOM     38  C   UNL     1      28.505   5.246  48.368  0.00  0.00    -0.049 A 
ATOM     39  C   UNL     1      29.669   5.875  47.915  0.00  0.00    -0.047 A 
ATOM     40  C   UNL     1      29.730   7.277  47.825  0.00  0.00    +0.059 A 
ATOM     41  C   UNL     1      28.594   8.030  48.164  0.00  0.00    -0.047 A 
ATOM     42  C   UNL     1      27.429   7.398  48.613  0.00  0.00    -0.049 A 
BRANCH  40  43
ATOM     43  C   UNL     1      30.980   7.942  47.400  0.00  0.00    +0.337 C 
ATOM     44  O   UNL     1      32.082   7.333  47.470  0.00  0.00    -0.245 OA
ATOM     45  O   UNL     1      30.948   9.244  46.904  0.00  0.00    -0.477 OA
ENDBRANCH  40  43
ENDBRANCH  35  37
ENDBRANCH   2  33
BRANCH   1  47
ATOM     46  C   UNL     1      23.695   2.502  49.196  0.00  0.00    +0.037 C 
ATOM     47  O   UNL     1      22.971   3.629  49.637  0.00  0.00    -0.373 OA
ENDBRANCH   1  47
TORSDOF 4
ENDMDL
MODEL 4
REMARK VINA RESULT:    -8.825      3.908     11.506
REMARK INTER + INTRA:         -11.494
REMARK INTER:                 -11.310
REMARK INTRA:                  -0.185
REMARK UNBOUND:                -0.605
REMARK  Name = 
REMARK  7 active torsions:
REMARK  status: ('A' for Active; 'I' for Inactive)
REMARK    1  A    between atoms: C_1  and  O_2
REMARK    2  A    between atoms: O_2  and  C_3
REMARK    3  A    between atoms: C_4  and  N_5
REMARK    4  A    between atoms: N_5  and  C_6
REMARK    5  A    between atoms: C_7  and  C_9
REMARK    6  A    between atoms: C_12  and  C_13
REMARK    7  A    between atoms: C_21  and  C_22
REMARK                            x       y       z     vdW  Elec       q    Type
REMARK                         _______ _______ _______ _____ _____    ______ ____
ROOT
ATOM      1  C   UNL     1      26.441   7.266  49.375  0.00  0.00    +0.125 C 
ATOM      2  C   UNL     1      25.408   6.157  49.146  0.00  0.00    +0.061 C 
ATOM      3  C   UNL     1      24.232   6.683  48.319  0.00  0.00    +0.014 C 
ATOM      4  C   UNL     1      24.699   7.655  47.206  0.00  0.00    +0.140 C 
ATOM      5  O   UNL     1      26.076   7.555  46.893  0.00  0.00    -0.328 OA
ATOM      6  C   UNL     1      26.987   7.742  47.976  0.00  0.00    +0.174 C 
ATOM      7  C   UNL     1      28.192   6.860  47.562  0.00  0.00    -0.014 C 
ATOM      8  N   UNL     1      27.352   9.180  48.034  0.00  0.00    -0.307 N 
ATOM      9  C   UNL     1      28.515   9.802  48.415  0.00  0.00    +0.053 A 
ATOM     10  C   UNL     1      29.712   9.236  48.890  0.00  0.00    -0.037 A 
ATOM     11  C   UNL     1      30.765  10.087  49.262  0.00  0.00    -0.060 A 
ATOM     12  C   UNL     1      30.619  11.483  49.191  0.00  0.00    -0.061 A 
ATOM     13  C   UNL     1      29.407  12.047  48.773  0.00  0.00    -0.052 A 
ATOM     14  C   UNL     1      28.376  11.182  48.397  0.00  0.00    +0.008 A 
ATOM     15  C   UNL     1      27.071  11.439  48.056  0.00  0.00    +0.015 A 
ATOM     16  C   UNL     1      26.323  12.628  48.022  0.00  0.00    -0.008 A 
ATOM     17  C   UNL     1      24.948  12.566  47.804  0.00  0.00    +0.052 A 
ATOM     18  C   UNL     1      24.316  11.314  47.641  0.00  0.00    +0.022 A 
ATOM     19  C   UNL     1      22.997  10.909  47.490  0.00  0.00    +0.008 A 
ATOM     20  C   UNL     1      21.784  11.608  47.480  0.00  0.00    -0.052 A 
ATOM     21  C   UNL     1      20.599  10.880  47.293  0.00  0.00    -0.061 A 
ATOM     22  C   UNL     1      20.633   9.482  47.131  0.00  0.00    -0.060 A 
ATOM     23  C   UNL     1      21.855   8.793  47.166  0.00  0.00    -0.037 A 
ATOM     24  C   UNL     1      23.029   9.531  47.365  0.00  0.00    +0.052 A 
ATOM     25  N   UNL     1      24.295   9.046  47.454  0.00  0.00    -0.311 N 
ATOM     26  C   UNL     1      25.077  10.141  47.633  0.00  0.00    +0.077 A 
ATOM     27  C   UNL     1      26.472  10.202  47.848  0.00  0.00    +0.077 A 
ATOM     28  C   UNL     1      24.480  13.941  47.803  0.00  0.00    +0.245 C 
ATOM     29  O   UNL     1      23.320  14.343  47.529  0.00  0.00    -0.270 OA
ATOM     30  N   UNL     1      25.560  14.824  48.066  0.00  0.00    -0.307 N 
ATOM     31  C   UNL     1      26.784  14.043  48.226  0.00  0.00    +0.039 C 
ATOM     32  H   UNL     1      25.496  15.803  48.128  0.00  0.00    +0.000 HD
ENDROOT
BRANCH   2  33
ATOM     33  N   UNL     1      24.968   5.516  50.407  0.00  0.00    -0.295 N 
ATOM     34  C   UNL     1      24.109   6.208  51.379  0.00  0.00    +0.004 C 
ATOM     35  C   UNL     1      25.398   4.166  50.682  0.00  0.00    +0.247 C 
ATOM     36  O   UNL     1      26.554   3.797  50.341  0.00  0.00    -0.270 OA
BRANCH  35  37
ATOM     37  C   UNL     1      24.485   3.160  51.254  0.00  0.00    +0.037 A 
ATOM     38  C   UNL     1      24.670   2.749  52.581  0.00  0.00    -0.049 A 
ATOM     39  C   UNL     1      23.835   1.780  53.147  0.00  0.00    -0.047 A 
ATOM     40  C   UNL     1      22.792   1.212  52.393  0.00  0.00    +0.059 A 
ATOM     41  C   UNL     1      22.584   1.657  51.077  0.00  0.00    -0.047 A 
ATOM     42  C   UNL     1      23.418   2.629  50.514  0.00  0.00    -0.049 A 
BRANCH  40  43
ATOM     43  C   UNL     1      21.947   0.148  52.975  0.00  0.00    +0.337 C 
ATOM     44  O   UNL     1      22.288  -1.063  52.876  0.00  0.00    -0.245 OA
ATOM     45  O   UNL     1      20.774   0.474  53.651  0.00  0.00    -0.477 OA
ENDBRANCH  40  43
ENDBRANCH  35  37
ENDBRANCH   2  33
BRANCH   1  47
ATOM     46  C   UNL     1      26.689   8.907  51.026  0.00  0.00    +0.037 C 
ATOM     47  O   UNL     1      25.825   8.352  50.058  0.00  0.00    -0.373 OA
ENDBRANCH   1  47
TORSDOF 4
ENDMDL
MODEL 5
REMARK VINA RESULT:    -8.753      3.408      8.465
REMARK INTER + INTRA:         -11.405
REMARK INTER:                 -10.657
REMARK INTRA:                  -0.748
REMARK UNBOUND:                -0.605
REMARK  Name = 
REMARK  7 active torsions:
REMARK  status: ('A' for Active; 'I' for Inactive)
REMARK    1  A    between atoms: C_1  and  O_2
REMARK    2  A    between atoms: O_2  and  C_3
REMARK    3  A    between atoms: C_4  and  N_5
REMARK    4  A    between atoms: N_5  and  C_6
REMARK    5  A    between atoms: C_7  and  C_9
REMARK    6  A    between atoms: C_12  and  C_13
REMARK    7  A    between atoms: C_21  and  C_22
REMARK                            x       y       z     vdW  Elec       q    Type
REMARK                         _______ _______ _______ _____ _____    ______ ____
ROOT
ATOM      1  C   UNL     1      21.773   3.061  49.780  0.00  0.00    +0.125 C 
ATOM      2  C   UNL     1      22.489   1.790  50.248  0.00  0.00    +0.061 C 
ATOM      3  C   UNL     1      21.473   0.691  50.573  0.00  0.00    +0.014 C 
ATOM      4  C   UNL     1      20.294   0.682  49.568  0.00  0.00    +0.140 C 
ATOM      5  O   UNL     1      20.562   1.362  48.357  0.00  0.00    -0.328 OA
ATOM      6  C   UNL     1      20.962   2.728  48.471  0.00  0.00    +0.174 C 
ATOM      7  C   UNL     1      21.873   2.920  47.232  0.00  0.00    -0.014 C 
ATOM      8  N   UNL     1      19.745   3.576  48.397  0.00  0.00    -0.307 N 
ATOM      9  C   UNL     1      19.554   4.838  47.890  0.00  0.00    +0.053 A 
ATOM     10  C   UNL     1      20.487   5.712  47.303  0.00  0.00    -0.037 A 
ATOM     11  C   UNL     1      20.060   6.985  46.893  0.00  0.00    -0.060 A 
ATOM     12  C   UNL     1      18.730   7.395  47.091  0.00  0.00    -0.061 A 
ATOM     13  C   UNL     1      17.816   6.546  47.727  0.00  0.00    -0.052 A 
ATOM     14  C   UNL     1      18.258   5.279  48.118  0.00  0.00    +0.008 A 
ATOM     15  C   UNL     1      17.632   4.296  48.843  0.00  0.00    +0.015 A 
ATOM     16  C   UNL     1      16.379   4.246  49.476  0.00  0.00    -0.008 A 
ATOM     17  C   UNL     1      16.072   3.167  50.304  0.00  0.00    +0.052 A 
ATOM     18  C   UNL     1      17.026   2.148  50.516  0.00  0.00    +0.022 A 
ATOM     19  C   UNL     1      17.067   1.014  51.315  0.00  0.00    +0.008 A 
ATOM     20  C   UNL     1      16.173   0.476  52.248  0.00  0.00    -0.052 A 
ATOM     21  C   UNL     1      16.524  -0.720  52.893  0.00  0.00    -0.061 A 
ATOM     22  C   UNL     1      17.752  -1.352  52.614  0.00  0.00    -0.060 A 
ATOM     23  C   UNL     1      18.648  -0.788  51.693  0.00  0.00    -0.037 A 
ATOM     24  C   UNL     1      18.288   0.412  51.065  0.00  0.00    +0.052 A 
ATOM     25  N   UNL     1      19.026   1.120  50.171  0.00  0.00    -0.311 N 
ATOM     26  C   UNL     1      18.253   2.187  49.846  0.00  0.00    +0.077 A 
ATOM     27  C   UNL     1      18.563   3.276  49.002  0.00  0.00    +0.077 A 
ATOM     28  C   UNL     1      14.719   3.398  50.778  0.00  0.00    +0.245 C 
ATOM     29  O   UNL     1      14.013   2.611  51.460  0.00  0.00    -0.270 OA
ATOM     30  N   UNL     1      14.231   4.633  50.276  0.00  0.00    -0.307 N 
ATOM     31  C   UNL     1      15.255   5.242  49.431  0.00  0.00    +0.039 C 
ATOM     32  H   UNL     1      13.345   5.017  50.465  0.00  0.00    +0.000 HD
ENDROOT
BRANCH   2  33
ATOM     33  N   UNL     1      23.426   2.040  51.369  0.00  0.00    -0.295 N 
ATOM     34  C   UNL     1      23.002   1.961  52.775  0.00  0.00    +0.004 C 
ATOM     35  C   UNL     1      24.797   2.368  51.063  0.00  0.00    +0.247 C 
ATOM     36  O   UNL     1      25.058   3.082  50.058  0.00  0.00    -0.270 OA
BRANCH  35  37
ATOM     37  C   UNL     1      25.922   1.801  51.829  0.00  0.00    +0.037 A 
ATOM     38  C   UNL     1      26.009   0.412  51.984  0.00  0.00    -0.049 A 
ATOM     39  C   UNL     1      27.051  -0.157  52.722  0.00  0.00    -0.047 A 
ATOM     40  C   UNL     1      28.031   0.660  53.314  0.00  0.00    +0.059 A 
ATOM     41  C   UNL     1      27.964   2.050  53.122  0.00  0.00    -0.047 A 
ATOM     42  C   UNL     1      26.922   2.616  52.378  0.00  0.00    -0.049 A 
BRANCH  40  43
ATOM     43  C   UNL     1      29.099   0.062  54.142  0.00  0.00    +0.337 C 
ATOM     44  O   UNL     1      28.920  -0.127  55.376  0.00  0.00    -0.245 OA
ATOM     45  O   UNL     1      30.309  -0.315  53.562  0.00  0.00    -0.477 OA
ENDBRANCH  40  43
ENDBRANCH  35  37
ENDBRANCH   2  33
BRANCH   1  47
ATOM     46  C   UNL     1      21.213   4.822  51.216  0.00  0.00    +0.037 C 
ATOM     47  O   UNL     1      20.893   3.512  50.803  0.00  0.00    -0.373 OA
ENDBRANCH   1  47
TORSDOF 4
ENDMDL
MODEL 6
REMARK VINA RESULT:    -8.698      1.547      2.158
REMARK INTER + INTRA:         -11.337
REMARK INTER:                 -11.621
REMARK INTRA:                   0.285
REMARK UNBOUND:                -0.605
REMARK  Name = 
REMARK  7 active torsions:
REMARK  status: ('A' for Active; 'I' for Inactive)
REMARK    1  A    between atoms: C_1  and  O_2
REMARK    2  A    between atoms: O_2  and  C_3
REMARK    3  A    between atoms: C_4  and  N_5
REMARK    4  A    between atoms: N_5  and  C_6
REMARK    5  A    between atoms: C_7  and  C_9
REMARK    6  A    between atoms: C_12  and  C_13
REMARK    7  A    between atoms: C_21  and  C_22
REMARK                            x       y       z     vdW  Elec       q    Type
REMARK                         _______ _______ _______ _____ _____    ______ ____
ROOT
ATOM      1  C   UNL     1      19.855   4.232  49.455  0.00  0.00    +0.125 C 
ATOM      2  C   UNL     1      20.647   5.246  48.621  0.00  0.00    +0.061 C 
ATOM      3  C   UNL     1      22.126   4.850  48.560  0.00  0.00    +0.014 C 
ATOM      4  C   UNL     1      22.306   3.317  48.433  0.00  0.00    +0.140 C 
ATOM      5  O   UNL     1      21.149   2.634  47.989  0.00  0.00    -0.328 OA
ATOM      6  C   UNL     1      19.966   2.819  48.766  0.00  0.00    +0.174 C 
ATOM      7  C   UNL     1      18.841   2.665  47.713  0.00  0.00    -0.014 C 
ATOM      8  N   UNL     1      19.911   1.748  49.793  0.00  0.00    -0.307 N 
ATOM      9  C   UNL     1      18.845   1.102  50.368  0.00  0.00    +0.053 A 
ATOM     10  C   UNL     1      17.468   1.295  50.154  0.00  0.00    -0.037 A 
ATOM     11  C   UNL     1      16.552   0.535  50.900  0.00  0.00    -0.060 A 
ATOM     12  C   UNL     1      16.999  -0.383  51.865  0.00  0.00    -0.061 A 
ATOM     13  C   UNL     1      18.368  -0.534  52.117  0.00  0.00    -0.052 A 
ATOM     14  C   UNL     1      19.263   0.224  51.357  0.00  0.00    +0.008 A 
ATOM     15  C   UNL     1      20.625   0.365  51.454  0.00  0.00    +0.015 A 
ATOM     16  C   UNL     1      21.563  -0.150  52.365  0.00  0.00    -0.008 A 
ATOM     17  C   UNL     1      22.878   0.308  52.327  0.00  0.00    +0.052 A 
ATOM     18  C   UNL     1      23.253   1.298  51.391  0.00  0.00    +0.022 A 
ATOM     19  C   UNL     1      24.422   2.004  51.148  0.00  0.00    +0.008 A 
ATOM     20  C   UNL     1      25.671   2.020  51.779  0.00  0.00    -0.052 A 
ATOM     21  C   UNL     1      26.666   2.866  51.265  0.00  0.00    -0.061 A 
ATOM     22  C   UNL     1      26.404   3.686  50.150  0.00  0.00    -0.060 A 
ATOM     23  C   UNL     1      25.139   3.676  49.543  0.00  0.00    -0.037 A 
ATOM     24  C   UNL     1      24.153   2.834  50.073  0.00  0.00    +0.052 A 
ATOM     25  N   UNL     1      22.871   2.705  49.645  0.00  0.00    -0.311 N 
ATOM     26  C   UNL     1      22.322   1.770  50.461  0.00  0.00    +0.077 A 
ATOM     27  C   UNL     1      20.989   1.302  50.495  0.00  0.00    +0.077 A 
ATOM     28  C   UNL     1      23.588  -0.423  53.362  0.00  0.00    +0.245 C 
ATOM     29  O   UNL     1      24.824  -0.397  53.592  0.00  0.00    -0.270 OA
ATOM     30  N   UNL     1      22.693  -1.284  54.051  0.00  0.00    -0.307 N 
ATOM     31  C   UNL     1      21.362  -1.154  53.465  0.00  0.00    +0.039 C 
ATOM     32  H   UNL     1      22.931  -1.874  54.801  0.00  0.00    +0.000 HD
ENDROOT
BRANCH   2  33
ATOM     33  N   UNL     1      20.456   6.641  49.084  0.00  0.00    -0.295 N 
ATOM     34  C   UNL     1      21.236   7.212  50.192  0.00  0.00    +0.004 C 
ATOM     35  C   UNL     1      19.472   7.460  48.418  0.00  0.00    +0.247 C 
ATOM     36  O   UNL     1      18.396   6.941  48.017  0.00  0.00    -0.270 OA
BRANCH  35  37
ATOM     37  C   UNL     1      19.732   8.873  48.089  0.00  0.00    +0.037 A 
ATOM     38  C   UNL     1      20.816   9.525  48.690  0.00  0.00    -0.049 A 
ATOM     39  C   UNL     1      21.076  10.872  48.416  0.00  0.00    -0.047 A 
ATOM     40  C   UNL     1      20.256  11.587  47.526  0.00  0.00    +0.059 A 
ATOM     41  C   UNL     1      19.194  10.919  46.893  0.00  0.00    -0.047 A 
ATOM     42  C   UNL     1      18.939   9.571  47.166  0.00  0.00    -0.049 A 
BRANCH  40  43
ATOM     43  C   UNL     1      20.498  13.025  47.282  0.00  0.00    +0.337 C 
ATOM     44  O   UNL     1      21.657  13.506  47.404  0.00  0.00    -0.245 OA
ATOM     45  O   UNL     1      19.449  13.857  46.898  0.00  0.00    -0.477 OA
ENDBRANCH  40  43
ENDBRANCH  35  37
ENDBRANCH   2  33
BRANCH   1  47
ATOM     46  C   UNL     1      19.370   4.237  51.744  0.00  0.00    +0.037 C 
ATOM     47  O   UNL     1      20.390   4.181  50.772  0.00  0.00    -0.373 OA
ENDBRANCH   1  47
TORSDOF 4
ENDMDL
MODEL 7
REMARK VINA RESULT:    -8.595      3.640      6.926
REMARK INTER + INTRA:         -11.210
REMARK INTER:                 -10.607
REMARK INTRA:                  -0.604
REMARK UNBOUND:                -0.605
REMARK  Name = 
REMARK  7 active torsions:
REMARK  status: ('A' for Active; 'I' for Inactive)
REMARK    1  A    between atoms: C_1  and  O_2
REMARK    2  A    between atoms: O_2  and  C_3
REMARK    3  A    between atoms: C_4  and  N_5
REMARK    4  A    between atoms: N_5  and  C_6
REMARK    5  A    between atoms: C_7  and  C_9
REMARK    6  A    between atoms: C_12  and  C_13
REMARK    7  A    between atoms: C_21  and  C_22
REMARK                            x       y       z     vdW  Elec       q    Type
REMARK                         _______ _______ _______ _____ _____    ______ ____
ROOT
ATOM      1  C   UNL     1      21.285   2.614  50.943  0.00  0.00    +0.125 C 
ATOM      2  C   UNL     1      21.697   4.001  50.437  0.00  0.00    +0.061 C 
ATOM      3  C   UNL     1      20.481   4.755  49.891  0.00  0.00    +0.014 C 
ATOM      4  C   UNL     1      19.215   4.503  50.749  0.00  0.00    +0.140 C 
ATOM      5  O   UNL     1      19.486   4.003  52.045  0.00  0.00    -0.328 OA
ATOM      6  C   UNL     1      20.244   2.795  52.112  0.00  0.00    +0.174 C 
ATOM      7  C   UNL     1      20.995   2.941  53.459  0.00  0.00    -0.014 C 
ATOM      8  N   UNL     1      19.296   1.651  52.130  0.00  0.00    -0.307 N 
ATOM      9  C   UNL     1      19.378   0.421  52.733  0.00  0.00    +0.053 A 
ATOM     10  C   UNL     1      20.419  -0.123  53.507  0.00  0.00    -0.037 A 
ATOM     11  C   UNL     1      20.292  -1.436  53.989  0.00  0.00    -0.060 A 
ATOM     12  C   UNL     1      19.158  -2.207  53.682  0.00  0.00    -0.061 A 
ATOM     13  C   UNL     1      18.148  -1.685  52.865  0.00  0.00    -0.052 A 
ATOM     14  C   UNL     1      18.289  -0.373  52.404  0.00  0.00    +0.008 A 
ATOM     15  C   UNL     1      17.530   0.352  51.519  0.00  0.00    +0.015 A 
ATOM     16  C   UNL     1      16.407   0.015  50.745  0.00  0.00    -0.008 A 
ATOM     17  C   UNL     1      15.942   0.912  49.786  0.00  0.00    +0.052 A 
ATOM     18  C   UNL     1      16.612   2.139  49.584  0.00  0.00    +0.022 A 
ATOM     19  C   UNL     1      16.461   3.187  48.687  0.00  0.00    +0.008 A 
ATOM     20  C   UNL     1      15.593   3.397  47.609  0.00  0.00    -0.052 A 
ATOM     21  C   UNL     1      15.700   4.600  46.894  0.00  0.00    -0.061 A 
ATOM     22  C   UNL     1      16.667   5.561  47.247  0.00  0.00    -0.060 A 
ATOM     23  C   UNL     1      17.546   5.325  48.315  0.00  0.00    -0.037 A 
ATOM     24  C   UNL     1      17.434   4.116  49.014  0.00  0.00    +0.052 A 
ATOM     25  N   UNL     1      18.203   3.697  50.051  0.00  0.00    -0.311 N 
ATOM     26  C   UNL     1      17.703   2.482  50.390  0.00  0.00    +0.077 A 
ATOM     27  C   UNL     1      18.171   1.576  51.367  0.00  0.00    +0.077 A 
ATOM     28  C   UNL     1      14.776   0.288  49.185  0.00  0.00    +0.245 C 
ATOM     29  O   UNL     1      13.988   0.806  48.353  0.00  0.00    -0.270 OA
ATOM     30  N   UNL     1      14.568  -0.998  49.748  0.00  0.00    -0.307 N 
ATOM     31  C   UNL     1      15.591  -1.246  50.760  0.00  0.00    +0.039 C 
ATOM     32  H   UNL     1      13.849  -1.622  49.497  0.00  0.00    +0.000 HD
ENDROOT
BRANCH   2  33
ATOM     33  N   UNL     1      22.811   3.946  49.460  0.00  0.00    -0.295 N 
ATOM     34  C   UNL     1      22.588   4.073  48.013  0.00  0.00    +0.004 C 
ATOM     35  C   UNL     1      24.154   3.765  49.955  0.00  0.00    +0.247 C 
ATOM     36  O   UNL     1      24.358   3.019  50.949  0.00  0.00    -0.270 OA
BRANCH  35  37
ATOM     37  C   UNL     1      25.294   4.517  49.400  0.00  0.00    +0.037 A 
ATOM     38  C   UNL     1      26.532   3.875  49.262  0.00  0.00    -0.049 A 
ATOM     39  C   UNL     1      27.639   4.566  48.760  0.00  0.00    -0.047 A 
ATOM     40  C   UNL     1      27.522   5.915  48.381  0.00  0.00    +0.059 A 
ATOM     41  C   UNL     1      26.270   6.544  48.482  0.00  0.00    -0.047 A 
ATOM     42  C   UNL     1      25.163   5.849  48.980  0.00  0.00    -0.049 A 
BRANCH  40  43
ATOM     43  C   UNL     1      28.707   6.660  47.905  0.00  0.00    +0.337 C 
ATOM     44  O   UNL     1      29.779   6.051  47.638  0.00  0.00    -0.245 OA
ATOM     45  O   UNL     1      28.644   8.041  47.732  0.00  0.00    -0.477 OA
ENDBRANCH  40  43
ENDBRANCH  35  37
ENDBRANCH   2  33
BRANCH   1  47
ATOM     46  C   UNL     1      21.464   0.726  49.573  0.00  0.00    +0.037 C 
ATOM     47  O   UNL     1      20.704   1.874  49.876  0.00  0.00    -0.373 OA
ENDBRANCH   1  47
TORSDOF 4
ENDMDL
