MODEL 1
REMARK VINA RESULT:    -8.666      0.000      0.000
REMARK INTER + INTRA:         -12.280
REMARK INTER:                 -11.706
REMARK INTRA:                  -0.574
REMARK UNBOUND:                -0.574
REMARK  Name = 
REMARK  6 active torsions:
REMARK  status: ('A' for Active; 'I' for Inactive)
REMARK    1  A    between atoms: C_6  and  N_7
REMARK    2  A    between atoms: N_15  and  C_16
REMARK    3  A    between atoms: C_16  and  C_17
REMARK    4  A    between atoms: C_17  and  C_18
REMARK    5  A    between atoms: C_18  and  C_19
REMARK    6  A    between atoms: C_19  and  N_20
REMARK                            x       y       z     vdW  Elec       q    Type
REMARK                         _______ _______ _______ _____ _____    ______ ____
ROOT
ATOM      1  N   UNL     1      19.044  -1.351  54.011  0.00  0.00    -0.299 N 
ATOM      2  C   UNL     1      20.068  -0.748  53.202  0.00  0.00    +0.135 A 
ATOM      3  N   UNL     1      19.722  -0.117  52.047  0.00  0.00    -0.220 NA
ATOM      4  C   UNL     1      20.642   0.510  51.271  0.00  0.00    +0.119 A 
ATOM      5  N   UNL     1      21.946   0.528  51.644  0.00  0.00    -0.235 NA
ATOM      6  C   UNL     1      22.357  -0.080  52.786  0.00  0.00    +0.081 A 
ATOM      7  C   UNL     1      23.707  -0.052  53.144  0.00  0.00    +0.004 A 
ATOM      8  C   UNL     1      24.126  -0.705  54.316  0.00  0.00    +0.121 A 
ATOM      9  N   UNL     1      25.502  -0.710  54.738  0.00  0.00    -0.329 N 
ATOM     10  N   UNL     1      23.205  -1.348  55.084  0.00  0.00    -0.240 NA
ATOM     11  C   UNL     1      21.885  -1.389  54.764  0.00  0.00    +0.042 A 
ATOM     12  C   UNL     1      21.421  -0.745  53.605  0.00  0.00    +0.059 A 
ATOM     13  H   UNL     1      19.175  -1.379  54.987  0.00  0.00    +0.000 HD
ATOM     14  H   UNL     1      25.700  -1.053  55.639  0.00  0.00    +0.000 HD
ENDROOT
BRANCH   1  20
ATOM     15 BR   UNL     1      14.516  -0.475  51.347  0.00  0.00    -0.050 Br
ATOM     16  C   UNL     1      15.738  -1.611  52.276  0.00  0.00    +0.020 A 
ATOM     17  C   UNL     1      15.444  -2.968  52.440  0.00  0.00    -0.048 A 
ATOM     18  C   UNL     1      16.333  -3.798  53.127  0.00  0.00    -0.059 A 
ATOM     19  C   UNL     1      17.522  -3.276  53.645  0.00  0.00    -0.040 A 
ATOM     20  C   UNL     1      17.837  -1.916  53.469  0.00  0.00    +0.033 A 
ATOM     21  C   UNL     1      16.927  -1.086  52.794  0.00  0.00    -0.027 A 
ENDBRANCH   1  20
BRANCH   9  22
ATOM     22  C   UNL     1      26.629  -0.246  53.927  0.00  0.00    +0.010 C 
BRANCH  22  23
ATOM     23  C   UNL     1      26.941   1.234  54.194  0.00  0.00    -0.036 C 
BRANCH  23  24
ATOM     24  C   UNL     1      27.635   1.897  52.996  0.00  0.00    -0.039 C 
BRANCH  24  25
ATOM     25  C   UNL     1      26.807   1.730  51.716  0.00  0.00    -0.001 C 
BRANCH  25  26
ATOM     26  N   UNL     1      26.276   3.036  51.268  0.00  0.00    -0.298 N 
ATOM     27  C   UNL     1      26.551   3.271  49.838  0.00  0.00    +0.022 C 
ATOM     28  C   UNL     1      26.023   4.660  49.419  0.00  0.00    +0.060 C 
ATOM     29  O   UNL     1      25.214   5.256  50.419  0.00  0.00    -0.377 OA
ATOM     30  C   UNL     1      24.207   4.350  50.820  0.00  0.00    +0.060 C 
ATOM     31  C   UNL     1      24.820   3.118  51.514  0.00  0.00    +0.022 C 
ATOM     32  H   UNL     1      26.750   3.758  51.810  0.00  0.00    +0.000 HD
ENDBRANCH  25  26
ENDBRANCH  24  25
ENDBRANCH  23  24
ENDBRANCH  22  23
ENDBRANCH   9  22
TORSDOF 6
ENDMDL
MODEL 2
REMARK VINA RESULT:    -8.115      4.212      8.720
REMARK INTER + INTRA:         -11.536
REMARK INTER:                 -10.652
REMARK INTRA:                  -0.884
REMARK UNBOUND:                -0.574
REMARK  Name = 
REMARK  6 active torsions:
REMARK  status: ('A' for Active; 'I' for Inactive)
REMARK    1  A    between atoms: C_6  and  N_7
REMARK    2  A    between atoms: N_15  and  C_16
REMARK    3  A    between atoms: C_16  and  C_17
REMARK    4  A    between atoms: C_17  and  C_18
REMARK    5  A    between atoms: C_18  and  C_19
REMARK    6  A    between atoms: C_19  and  N_20
REMARK                            x       y       z     vdW  Elec       q    Type
REMARK                         _______ _______ _______ _____ _____    ______ ____
ROOT
ATOM      1  N   UNL     1      24.790   4.488  49.082  0.00  0.00    -0.299 N 
ATOM      2  C   UNL     1      24.165   4.521  50.377  0.00  0.00    +0.135 A 
ATOM      3  N   UNL     1      24.213   5.665  51.112  0.00  0.00    -0.220 NA
ATOM      4  C   UNL     1      23.597   5.766  52.317  0.00  0.00    +0.119 A 
ATOM      5  N   UNL     1      22.903   4.714  52.817  0.00  0.00    -0.235 NA
ATOM      6  C   UNL     1      22.814   3.545  52.131  0.00  0.00    +0.081 A 
ATOM      7  C   UNL     1      22.098   2.474  52.671  0.00  0.00    +0.004 A 
ATOM      8  C   UNL     1      22.032   1.260  51.965  0.00  0.00    +0.121 A 
ATOM      9  N   UNL     1      21.308   0.122  52.467  0.00  0.00    -0.329 N 
ATOM     10  N   UNL     1      22.663   1.154  50.764  0.00  0.00    -0.240 NA
ATOM     11  C   UNL     1      23.364   2.179  50.213  0.00  0.00    +0.042 A 
ATOM     12  C   UNL     1      23.451   3.412  50.881  0.00  0.00    +0.059 A 
ATOM     13  H   UNL     1      24.397   3.910  48.388  0.00  0.00    +0.000 HD
ATOM     14  H   UNL     1      21.176  -0.639  51.857  0.00  0.00    +0.000 HD
ENDROOT
BRANCH   1  20
ATOM     15 BR   UNL     1      26.733   9.117  47.306  0.00  0.00    -0.050 Br
ATOM     16  C   UNL     1      26.942   7.324  47.930  0.00  0.00    +0.020 A 
ATOM     17  C   UNL     1      28.220   6.766  48.038  0.00  0.00    -0.048 A 
ATOM     18  C   UNL     1      28.373   5.452  48.487  0.00  0.00    -0.059 A 
ATOM     19  C   UNL     1      27.251   4.695  48.835  0.00  0.00    -0.040 A 
ATOM     20  C   UNL     1      25.962   5.253  48.749  0.00  0.00    +0.033 A 
ATOM     21  C   UNL     1      25.817   6.569  48.279  0.00  0.00    -0.027 A 
ENDBRANCH   1  20
BRANCH   9  22
ATOM     22  C   UNL     1      20.756   0.010  53.819  0.00  0.00    +0.010 C 
BRANCH  22  23
ATOM     23  C   UNL     1      21.744  -0.673  54.775  0.00  0.00    -0.036 C 
BRANCH  23  24
ATOM     24  C   UNL     1      23.057  -1.044  54.071  0.00  0.00    -0.039 C 
BRANCH  24  25
ATOM     25  C   UNL     1      24.244  -0.968  55.040  0.00  0.00    -0.001 C 
BRANCH  25  26
ATOM     26  N   UNL     1      25.512  -0.815  54.295  0.00  0.00    -0.298 N 
ATOM     27  C   UNL     1      25.292  -0.201  52.971  0.00  0.00    +0.022 C 
ATOM     28  C   UNL     1      26.629  -0.099  52.205  0.00  0.00    +0.060 C 
ATOM     29  O   UNL     1      27.746  -0.391  53.028  0.00  0.00    -0.377 OA
ATOM     30  C   UNL     1      27.691   0.391  54.204  0.00  0.00    +0.060 C 
ATOM     31  C   UNL     1      26.474   0.000  55.066  0.00  0.00    +0.022 C 
ATOM     32  H   UNL     1      25.897  -1.748  54.156  0.00  0.00    +0.000 HD
ENDBRANCH  25  26
ENDBRANCH  24  25
ENDBRANCH  23  24
ENDBRANCH  22  23
ENDBRANCH   9  22
TORSDOF 6
ENDMDL
MODEL 3
REMARK VINA RESULT:    -8.010      5.142      9.545
REMARK INTER + INTRA:         -11.393
REMARK INTER:                 -10.473
REMARK INTRA:                  -0.920
REMARK UNBOUND:                -0.574
REMARK  Name = 
REMARK  6 active torsions:
REMARK  status: ('A' for Active; 'I' for Inactive)
REMARK    1  A    between atoms: C_6  and  N_7
REMARK    2  A    between atoms: N_15  and  C_16
REMARK    3  A    between atoms: C_16  and  C_17
REMARK    4  A    between atoms: C_17  and  C_18
REMARK    5  A    between atoms: C_18  and  C_19
REMARK    6  A    between atoms: C_19  and  N_20
REMARK                            x       y       z     vdW  Elec       q    Type
REMARK                         _______ _______ _______ _____ _____    ______ ____
ROOT
ATOM      1  N   UNL     1      24.930   7.551  50.593  0.00  0.00    -0.299 N 
ATOM      2  C   UNL     1      25.243   6.182  50.285  0.00  0.00    +0.135 A 
ATOM      3  N   UNL     1      26.241   5.907  49.402  0.00  0.00    -0.220 NA
ATOM      4  C   UNL     1      26.609   4.633  49.113  0.00  0.00    +0.119 A 
ATOM      5  N   UNL     1      25.984   3.591  49.716  0.00  0.00    -0.235 NA
ATOM      6  C   UNL     1      24.982   3.798  50.609  0.00  0.00    +0.081 A 
ATOM      7  C   UNL     1      24.351   2.707  51.211  0.00  0.00    +0.004 A 
ATOM      8  C   UNL     1      23.298   2.930  52.116  0.00  0.00    +0.121 A 
ATOM      9  N   UNL     1      22.609   1.849  52.770  0.00  0.00    -0.329 N 
ATOM     10  N   UNL     1      22.919   4.207  52.392  0.00  0.00    -0.240 NA
ATOM     11  C   UNL     1      23.516   5.288  51.825  0.00  0.00    +0.042 A 
ATOM     12  C   UNL     1      24.576   5.111  50.920  0.00  0.00    +0.059 A 
ATOM     13  H   UNL     1      24.593   7.762  51.494  0.00  0.00    +0.000 HD
ATOM     14  H   UNL     1      21.991   2.079  53.500  0.00  0.00    +0.000 HD
ENDROOT
BRANCH   1  20
ATOM     15 BR   UNL     1      28.085  11.404  48.704  0.00  0.00    -0.050 Br
ATOM     16  C   UNL     1      26.445  10.426  48.736  0.00  0.00    +0.020 A 
ATOM     17  C   UNL     1      25.406  10.775  47.868  0.00  0.00    -0.048 A 
ATOM     18  C   UNL     1      24.203  10.065  47.897  0.00  0.00    -0.059 A 
ATOM     19  C   UNL     1      24.037   9.001  48.788  0.00  0.00    -0.040 A 
ATOM     20  C   UNL     1      25.083   8.629  49.653  0.00  0.00    +0.033 A 
ATOM     21  C   UNL     1      26.282   9.361  49.629  0.00  0.00    -0.027 A 
ENDBRANCH   1  20
BRANCH   9  22
ATOM     22  C   UNL     1      22.759   0.432  52.429  0.00  0.00    +0.010 C 
BRANCH  22  23
ATOM     23  C   UNL     1      23.574  -0.318  53.493  0.00  0.00    -0.036 C 
BRANCH  23  24
ATOM     24  C   UNL     1      25.084  -0.143  53.285  0.00  0.00    -0.039 C 
BRANCH  24  25
ATOM     25  C   UNL     1      25.845  -0.295  54.607  0.00  0.00    -0.001 C 
BRANCH  25  26
ATOM     26  N   UNL     1      27.139   0.419  54.546  0.00  0.00    -0.298 N 
ATOM     27  C   UNL     1      28.172  -0.389  53.871  0.00  0.00    +0.022 C 
ATOM     28  C   UNL     1      29.518   0.369  53.867  0.00  0.00    +0.060 C 
ATOM     29  O   UNL     1      29.381   1.716  54.287  0.00  0.00    -0.377 OA
ATOM     30  C   UNL     1      28.359   2.346  53.544  0.00  0.00    +0.060 C 
ATOM     31  C   UNL     1      26.987   1.714  53.849  0.00  0.00    +0.022 C 
ATOM     32  H   UNL     1      27.439   0.586  55.506  0.00  0.00    +0.000 HD
ENDBRANCH  25  26
ENDBRANCH  24  25
ENDBRANCH  23  24
ENDBRANCH  22  23
ENDBRANCH   9  22
TORSDOF 6
ENDMDL
MODEL 4
REMARK VINA RESULT:    -7.998      4.736      9.751
REMARK INTER + INTRA:         -11.378
REMARK INTER:                 -10.851
REMARK INTRA:                  -0.527
REMARK UNBOUND:                -0.574
REMARK  Name = 
REMARK  6 active torsions:
REMARK  status: ('A' for Active; 'I' for Inactive)
REMARK    1  A    between atoms: C_6  and  N_7
REMARK    2  A    between atoms: N_15  and  C_16
REMARK    3  A    between atoms: C_16  and  C_17
REMARK    4  A    between atoms: C_17  and  C_18
REMARK    5  A    between atoms: C_18  and  C_19
REMARK    6  A    between atoms: C_19  and  N_20
REMARK                            x       y       z     vdW  Elec       q    Type
REMARK                         _______ _______ _______ _____ _____    ______ ____
ROOT
ATOM      1  N   UNL     1      24.339   0.687  52.901  0.00  0.00    -0.299 N 
ATOM      2  C   UNL     1      23.189  -0.003  53.420  0.00  0.00    +0.135 A 
ATOM      3  N   UNL     1      23.321  -0.782  54.529  0.00  0.00    -0.220 NA
ATOM      4  C   UNL     1      22.259  -1.415  55.088  0.00  0.00    +0.119 A 
ATOM      5  N   UNL     1      21.023  -1.274  54.549  0.00  0.00    -0.235 NA
ATOM      6  C   UNL     1      20.823  -0.510  53.445  0.00  0.00    +0.081 A 
ATOM      7  C   UNL     1      19.540  -0.387  52.907  0.00  0.00    +0.004 A 
ATOM      8  C   UNL     1      19.346   0.388  51.749  0.00  0.00    +0.121 A 
ATOM      9  N   UNL     1      18.050   0.555  51.148  0.00  0.00    -0.329 N 
ATOM     10  N   UNL     1      20.415   1.009  51.180  0.00  0.00    -0.240 NA
ATOM     11  C   UNL     1      21.673   0.911  51.682  0.00  0.00    +0.042 A 
ATOM     12  C   UNL     1      21.911   0.152  52.841  0.00  0.00    +0.059 A 
ATOM     13  H   UNL     1      24.201   1.552  52.451  0.00  0.00    +0.000 HD
ATOM     14  H   UNL     1      17.961   1.228  50.436  0.00  0.00    +0.000 HD
ENDROOT
BRANCH   1  20
ATOM     15 BR   UNL     1      29.384   1.667  54.296  0.00  0.00    -0.050 Br
ATOM     16  C   UNL     1      28.013   0.537  53.596  0.00  0.00    +0.020 A 
ATOM     17  C   UNL     1      28.324  -0.758  53.171  0.00  0.00    -0.048 A 
ATOM     18  C   UNL     1      27.323  -1.583  52.651  0.00  0.00    -0.059 A 
ATOM     19  C   UNL     1      26.008  -1.118  52.560  0.00  0.00    -0.040 A 
ATOM     20  C   UNL     1      25.680   0.178  53.003  0.00  0.00    +0.033 A 
ATOM     21  C   UNL     1      26.697   1.005  53.507  0.00  0.00    -0.027 A 
ENDBRANCH   1  20
BRANCH   9  22
ATOM     22  C   UNL     1      16.852  -0.203  51.516  0.00  0.00    +0.010 C 
BRANCH  22  23
ATOM     23  C   UNL     1      15.637   0.225  50.679  0.00  0.00    -0.036 C 
BRANCH  23  24
ATOM     24  C   UNL     1      14.823   1.324  51.374  0.00  0.00    -0.039 C 
BRANCH  24  25
ATOM     25  C   UNL     1      14.480   0.930  52.816  0.00  0.00    -0.001 C 
BRANCH  25  26
ATOM     26  N   UNL     1      13.925   2.086  53.552  0.00  0.00    -0.298 N 
ATOM     27  C   UNL     1      14.052   3.334  52.775  0.00  0.00    +0.022 C 
ATOM     28  C   UNL     1      13.505   4.525  53.592  0.00  0.00    +0.060 C 
ATOM     29  O   UNL     1      12.814   4.109  54.758  0.00  0.00    -0.377 OA
ATOM     30  C   UNL     1      11.841   3.143  54.417  0.00  0.00    +0.060 C 
ATOM     31  C   UNL     1      12.504   1.856  53.890  0.00  0.00    +0.022 C 
ATOM     32  H   UNL     1      14.464   2.187  54.411  0.00  0.00    +0.000 HD
ENDBRANCH  25  26
ENDBRANCH  24  25
ENDBRANCH  23  24
ENDBRANCH  22  23
ENDBRANCH   9  22
TORSDOF 6
ENDMDL
MODEL 5
REMARK VINA RESULT:    -7.975      5.206     10.121
REMARK INTER + INTRA:         -11.346
REMARK INTER:                 -10.915
REMARK INTRA:                  -0.431
REMARK UNBOUND:                -0.574
REMARK  Name = 
REMARK  6 active torsions:
REMARK  status: ('A' for Active; 'I' for Inactive)
REMARK    1  A    between atoms: C_6  and  N_7
REMARK    2  A    between atoms: N_15  and  C_16
REMARK    3  A    between atoms: C_16  and  C_17
REMARK    4  A    between atoms: C_17  and  C_18
REMARK    5  A    between atoms: C_18  and  C_19
REMARK    6  A    between atoms: C_19  and  N_20
REMARK                            x       y       z     vdW  Elec       q    Type
REMARK                         _______ _______ _______ _____ _____    ______ ____
ROOT
ATOM      1  N   UNL     1      25.067   0.898  52.612  0.00  0.00    -0.299 N 
ATOM      2  C   UNL     1      24.414   1.853  51.758  0.00  0.00    +0.135 A 
ATOM      3  N   UNL     1      25.135   2.492  50.796  0.00  0.00    -0.220 NA
ATOM      4  C   UNL     1      24.558   3.364  49.932  0.00  0.00    +0.119 A 
ATOM      5  N   UNL     1      23.227   3.615  50.005  0.00  0.00    -0.235 NA
ATOM      6  C   UNL     1      22.451   3.008  50.939  0.00  0.00    +0.081 A 
ATOM      7  C   UNL     1      21.084   3.288  50.996  0.00  0.00    +0.004 A 
ATOM      8  C   UNL     1      20.292   2.673  51.983  0.00  0.00    +0.121 A 
ATOM      9  N   UNL     1      18.879   2.920  52.092  0.00  0.00    -0.329 N 
ATOM     10  N   UNL     1      20.875   1.811  52.859  0.00  0.00    -0.240 NA
ATOM     11  C   UNL     1      22.201   1.516  52.826  0.00  0.00    +0.042 A 
ATOM     12  C   UNL     1      23.027   2.103  51.853  0.00  0.00    +0.059 A 
ATOM     13  H   UNL     1      24.540   0.137  52.950  0.00  0.00    +0.000 HD
ATOM     14  H   UNL     1      18.363   2.345  52.702  0.00  0.00    +0.000 HD
ENDROOT
BRANCH   1  20
ATOM     15 BR   UNL     1      29.658  -1.667  53.447  0.00  0.00    -0.050 Br
ATOM     16  C   UNL     1      28.584  -0.088  53.424  0.00  0.00    +0.020 A 
ATOM     17  C   UNL     1      29.137   1.139  53.803  0.00  0.00    -0.048 A 
ATOM     18  C   UNL     1      28.349   2.292  53.794  0.00  0.00    -0.059 A 
ATOM     19  C   UNL     1      27.010   2.225  53.402  0.00  0.00    -0.040 A 
ATOM     20  C   UNL     1      26.448   0.998  53.000  0.00  0.00    +0.033 A 
ATOM     21  C   UNL     1      27.243  -0.160  53.030  0.00  0.00    -0.027 A 
ENDBRANCH   1  20
BRANCH   9  22
ATOM     22  C   UNL     1      18.151   3.962  51.366  0.00  0.00    +0.010 C 
BRANCH  22  23
ATOM     23  C   UNL     1      16.791   3.453  50.866  0.00  0.00    -0.036 C 
BRANCH  23  24
ATOM     24  C   UNL     1      15.933   2.896  52.011  0.00  0.00    -0.039 C 
BRANCH  24  25
ATOM     25  C   UNL     1      15.376   4.027  52.885  0.00  0.00    -0.001 C 
BRANCH  25  26
ATOM     26  N   UNL     1      14.228   3.547  53.684  0.00  0.00    -0.298 N 
ATOM     27  C   UNL     1      13.118   4.518  53.675  0.00  0.00    +0.022 C 
ATOM     28  C   UNL     1      11.958   4.005  54.555  0.00  0.00    +0.060 C 
ATOM     29  O   UNL     1      12.137   2.656  54.953  0.00  0.00    -0.377 OA
ATOM     30  C   UNL     1      12.404   1.855  53.820  0.00  0.00    +0.060 C 
ATOM     31  C   UNL     1      13.750   2.243  53.178  0.00  0.00    +0.022 C 
ATOM     32  H   UNL     1      14.552   3.437  54.644  0.00  0.00    +0.000 HD
ENDBRANCH  25  26
ENDBRANCH  24  25
ENDBRANCH  23  24
ENDBRANCH  22  23
ENDBRANCH   9  22
TORSDOF 6
ENDMDL
MODEL 6
REMARK VINA RESULT:    -7.845      5.257      8.774
REMARK INTER + INTRA:         -11.172
REMARK INTER:                  -9.810
REMARK INTRA:                  -1.362
REMARK UNBOUND:                -0.574
REMARK  Name = 
REMARK  6 active torsions:
REMARK  status: ('A' for Active; 'I' for Inactive)
REMARK    1  A    between atoms: C_6  and  N_7
REMARK    2  A    between atoms: N_15  and  C_16
REMARK    3  A    between atoms: C_16  and  C_17
REMARK    4  A    between atoms: C_17  and  C_18
REMARK    5  A    between atoms: C_18  and  C_19
REMARK    6  A    between atoms: C_19  and  N_20
REMARK                            x       y       z     vdW  Elec       q    Type
REMARK                         _______ _______ _______ _____ _____    ______ ____
ROOT
ATOM      1  N   UNL     1      25.833   1.776  52.676  0.00  0.00    -0.299 N 
ATOM      2  C   UNL     1      25.700   2.699  51.581  0.00  0.00    +0.135 A 
ATOM      3  N   UNL     1      26.572   2.630  50.539  0.00  0.00    -0.220 NA
ATOM      4  C   UNL     1      26.460   3.444  49.459  0.00  0.00    +0.119 A 
ATOM      5  N   UNL     1      25.455   4.352  49.392  0.00  0.00    -0.235 NA
ATOM      6  C   UNL     1      24.550   4.470  50.398  0.00  0.00    +0.081 A 
ATOM      7  C   UNL     1      23.528   5.417  50.307  0.00  0.00    +0.004 A 
ATOM      8  C   UNL     1      22.609   5.547  51.364  0.00  0.00    +0.121 A 
ATOM      9  N   UNL     1      21.534   6.503  51.329  0.00  0.00    -0.329 N 
ATOM     10  N   UNL     1      22.732   4.742  52.454  0.00  0.00    -0.240 NA
ATOM     11  C   UNL     1      23.713   3.809  52.569  0.00  0.00    +0.042 A 
ATOM     12  C   UNL     1      24.648   3.640  51.534  0.00  0.00    +0.059 A 
ATOM     13  H   UNL     1      25.019   1.498  53.154  0.00  0.00    +0.000 HD
ATOM     14  H   UNL     1      20.844   6.437  52.027  0.00  0.00    +0.000 HD
ENDROOT
BRANCH   1  20
ATOM     15 BR   UNL     1      28.911  -2.544  53.152  0.00  0.00    -0.050 Br
ATOM     16  C   UNL     1      28.567  -0.680  53.384  0.00  0.00    +0.020 A 
ATOM     17  C   UNL     1      29.527   0.138  53.987  0.00  0.00    -0.048 A 
ATOM     18  C   UNL     1      29.272   1.500  54.165  0.00  0.00    -0.059 A 
ATOM     19  C   UNL     1      28.061   2.050  53.734  0.00  0.00    -0.040 A 
ATOM     20  C   UNL     1      27.095   1.239  53.109  0.00  0.00    +0.033 A 
ATOM     21  C   UNL     1      27.354  -0.133  52.951  0.00  0.00    -0.027 A 
ENDBRANCH   1  20
BRANCH   9  22
ATOM     22  C   UNL     1      21.391   7.568  50.333  0.00  0.00    +0.010 C 
BRANCH  22  23
ATOM     23  C   UNL     1      20.209   7.299  49.390  0.00  0.00    -0.036 C 
BRANCH  23  24
ATOM     24  C   UNL     1      20.594   6.350  48.247  0.00  0.00    -0.039 C 
BRANCH  24  25
ATOM     25  C   UNL     1      19.819   5.029  48.340  0.00  0.00    -0.001 C 
BRANCH  25  26
ATOM     26  N   UNL     1      20.729   3.919  48.695  0.00  0.00    -0.298 N 
ATOM     27  C   UNL     1      19.987   2.665  48.931  0.00  0.00    +0.022 C 
ATOM     28  C   UNL     1      20.962   1.542  49.343  0.00  0.00    +0.060 C 
ATOM     29  O   UNL     1      22.319   1.912  49.167  0.00  0.00    -0.377 OA
ATOM     30  C   UNL     1      22.516   2.399  47.855  0.00  0.00    +0.060 C 
ATOM     31  C   UNL     1      21.733   3.708  47.631  0.00  0.00    +0.022 C 
ATOM     32  H   UNL     1      21.203   4.178  49.559  0.00  0.00    +0.000 HD
ENDBRANCH  25  26
ENDBRANCH  24  25
ENDBRANCH  23  24
ENDBRANCH  22  23
ENDBRANCH   9  22
TORSDOF 6
ENDMDL
MODEL 7
REMARK VINA RESULT:    -7.719      4.304      9.526
REMARK INTER + INTRA:         -11.001
REMARK INTER:                 -10.876
REMARK INTRA:                  -0.124
REMARK UNBOUND:                -0.574
REMARK  Name = 
REMARK  6 active torsions:
REMARK  status: ('A' for Active; 'I' for Inactive)
REMARK    1  A    between atoms: C_6  and  N_7
REMARK    2  A    between atoms: N_15  and  C_16
REMARK    3  A    between atoms: C_16  and  C_17
REMARK    4  A    between atoms: C_17  and  C_18
REMARK    5  A    between atoms: C_18  and  C_19
REMARK    6  A    between atoms: C_19  and  N_20
REMARK                            x       y       z     vdW  Elec       q    Type
REMARK                         _______ _______ _______ _____ _____    ______ ____
ROOT
ATOM      1  N   UNL     1      22.690   1.762  52.649  0.00  0.00    -0.299 N 
ATOM      2  C   UNL     1      21.996   0.615  53.169  0.00  0.00    +0.135 A 
ATOM      3  N   UNL     1      22.645  -0.234  54.010  0.00  0.00    -0.220 NA
ATOM      4  C   UNL     1      22.023  -1.304  54.567  0.00  0.00    +0.119 A 
ATOM      5  N   UNL     1      20.716  -1.546  54.298  0.00  0.00    -0.235 NA
ATOM      6  C   UNL     1      20.010  -0.735  53.468  0.00  0.00    +0.081 A 
ATOM      7  C   UNL     1      18.666  -1.011  53.203  0.00  0.00    +0.004 A 
ATOM      8  C   UNL     1      17.950  -0.179  52.324  0.00  0.00    +0.121 A 
ATOM      9  N   UNL     1      16.564  -0.410  52.012  0.00  0.00    -0.329 N 
ATOM     10  N   UNL     1      18.580   0.883  51.754  0.00  0.00    -0.240 NA
ATOM     11  C   UNL     1      19.884   1.178  51.995  0.00  0.00    +0.042 A 
ATOM     12  C   UNL     1      20.636   0.378  52.872  0.00  0.00    +0.059 A 
ATOM     13  H   UNL     1      22.169   2.576  52.459  0.00  0.00    +0.000 HD
ATOM     14  H   UNL     1      16.087   0.292  51.515  0.00  0.00    +0.000 HD
ENDROOT
BRANCH   1  20
ATOM     15 BR   UNL     1      26.639   3.614  49.595  0.00  0.00    -0.050 Br
ATOM     16  C   UNL     1      25.974   2.562  51.043  0.00  0.00    +0.020 A 
ATOM     17  C   UNL     1      26.856   1.809  51.823  0.00  0.00    -0.048 A 
ATOM     18  C   UNL     1      26.368   1.032  52.878  0.00  0.00    -0.059 A 
ATOM     19  C   UNL     1      25.000   1.012  53.159  0.00  0.00    -0.040 A 
ATOM     20  C   UNL     1      24.105   1.782  52.393  0.00  0.00    +0.033 A 
ATOM     21  C   UNL     1      24.603   2.545  51.323  0.00  0.00    -0.027 A 
ENDBRANCH   1  20
BRANCH   9  22
ATOM     22  C   UNL     1      15.811  -1.611  52.379  0.00  0.00    +0.010 C 
BRANCH  22  23
ATOM     23  C   UNL     1      14.297  -1.366  52.314  0.00  0.00    -0.036 C 
BRANCH  23  24
ATOM     24  C   UNL     1      13.962   0.130  52.238  0.00  0.00    -0.039 C 
BRANCH  24  25
ATOM     25  C   UNL     1      13.304   0.615  53.536  0.00  0.00    -0.001 C 
BRANCH  25  26
ATOM     26  N   UNL     1      13.573   2.053  53.747  0.00  0.00    -0.298 N 
ATOM     27  C   UNL     1      14.611   2.551  52.825  0.00  0.00    +0.022 C 
ATOM     28  C   UNL     1      14.898   4.043  53.105  0.00  0.00    +0.060 C 
ATOM     29  O   UNL     1      13.954   4.617  53.994  0.00  0.00    -0.377 OA
ATOM     30  C   UNL     1      12.644   4.355  53.533  0.00  0.00    +0.060 C 
ATOM     31  C   UNL     1      12.337   2.845  53.578  0.00  0.00    +0.022 C 
ATOM     32  H   UNL     1      13.914   2.161  54.702  0.00  0.00    +0.000 HD
ENDBRANCH  25  26
ENDBRANCH  24  25
ENDBRANCH  23  24
ENDBRANCH  22  23
ENDBRANCH   9  22
TORSDOF 6
ENDMDL
MODEL 8
REMARK VINA RESULT:    -7.653      4.684      7.914
REMARK INTER + INTRA:         -10.911
REMARK INTER:                 -10.083
REMARK INTRA:                  -0.828
REMARK UNBOUND:                -0.574
REMARK  Name = 
REMARK  6 active torsions:
REMARK  status: ('A' for Active; 'I' for Inactive)
REMARK    1  A    between atoms: C_6  and  N_7
REMARK    2  A    between atoms: N_15  and  C_16
REMARK    3  A    between atoms: C_16  and  C_17
REMARK    4  A    between atoms: C_17  and  C_18
REMARK    5  A    between atoms: C_18  and  C_19
REMARK    6  A    between atoms: C_19  and  N_20
REMARK                            x       y       z     vdW  Elec       q    Type
REMARK                         _______ _______ _______ _____ _____    ______ ____
ROOT
ATOM      1  N   UNL     1      24.241   2.251  51.188  0.00  0.00    -0.299 N 
ATOM      2  C   UNL     1      24.294   3.670  50.957  0.00  0.00    +0.135 A 
ATOM      3  N   UNL     1      23.348   4.473  51.515  0.00  0.00    -0.220 NA
ATOM      4  C   UNL     1      23.380   5.822  51.370  0.00  0.00    +0.119 A 
ATOM      5  N   UNL     1      24.378   6.406  50.661  0.00  0.00    -0.235 NA
ATOM      6  C   UNL     1      25.354   5.661  50.081  0.00  0.00    +0.081 A 
ATOM      7  C   UNL     1      26.366   6.288  49.351  0.00  0.00    +0.004 A 
ATOM      8  C   UNL     1      27.359   5.506  48.734  0.00  0.00    +0.121 A 
ATOM      9  N   UNL     1      28.429   6.092  47.970  0.00  0.00    -0.329 N 
ATOM     10  N   UNL     1      27.317   4.153  48.866  0.00  0.00    -0.240 NA
ATOM     11  C   UNL     1      26.347   3.515  49.573  0.00  0.00    +0.042 A 
ATOM     12  C   UNL     1      25.339   4.258  50.211  0.00  0.00    +0.059 A 
ATOM     13  H   UNL     1      25.088   1.750  51.213  0.00  0.00    +0.000 HD
ATOM     14  H   UNL     1      29.168   5.503  47.696  0.00  0.00    +0.000 HD
ENDROOT
BRANCH   1  20
ATOM     15 BR   UNL     1      21.366  -0.863  54.413  0.00  0.00    -0.050 Br
ATOM     16  C   UNL     1      21.634   0.088  52.778  0.00  0.00    +0.020 A 
ATOM     17  C   UNL     1      20.653   0.055  51.782  0.00  0.00    -0.048 A 
ATOM     18  C   UNL     1      20.853   0.743  50.583  0.00  0.00    -0.059 A 
ATOM     19  C   UNL     1      22.028   1.471  50.378  0.00  0.00    -0.040 A 
ATOM     20  C   UNL     1      23.014   1.527  51.382  0.00  0.00    +0.033 A 
ATOM     21  C   UNL     1      22.812   0.816  52.577  0.00  0.00    -0.027 A 
ENDBRANCH   1  20
BRANCH   9  22
ATOM     22  C   UNL     1      28.499   7.498  47.568  0.00  0.00    +0.010 C 
BRANCH  22  23
ATOM     23  C   UNL     1      29.720   8.198  48.182  0.00  0.00    -0.036 C 
BRANCH  23  24
ATOM     24  C   UNL     1      29.449   9.683  48.459  0.00  0.00    -0.039 C 
BRANCH  24  25
ATOM     25  C   UNL     1      28.293   9.859  49.451  0.00  0.00    -0.001 C 
BRANCH  25  26
ATOM     26  N   UNL     1      27.497  11.058  49.113  0.00  0.00    -0.298 N 
ATOM     27  C   UNL     1      28.356  12.164  48.647  0.00  0.00    +0.022 C 
ATOM     28  C   UNL     1      27.496  13.412  48.347  0.00  0.00    +0.060 C 
ATOM     29  O   UNL     1      26.107  13.128  48.363  0.00  0.00    -0.377 OA
ATOM     30  C   UNL     1      25.836  12.023  47.526  0.00  0.00    +0.060 C 
ATOM     31  C   UNL     1      26.491  10.741  48.078  0.00  0.00    +0.022 C 
ATOM     32  H   UNL     1      27.023  11.358  49.964  0.00  0.00    +0.000 HD
ENDBRANCH  25  26
ENDBRANCH  24  25
ENDBRANCH  23  24
ENDBRANCH  22  23
ENDBRANCH   9  22
TORSDOF 6
ENDMDL
MODEL 9
REMARK VINA RESULT:    -7.556      4.126      6.575
REMARK INTER + INTRA:         -10.782
REMARK INTER:                 -10.441
REMARK INTRA:                  -0.341
REMARK UNBOUND:                -0.574
REMARK  Name = 
REMARK  6 active torsions:
REMARK  status: ('A' for Active; 'I' for Inactive)
REMARK    1  A    between atoms: C_6  and  N_7
REMARK    2  A    between atoms: N_15  and  C_16
REMARK    3  A    between atoms: C_16  and  C_17
REMARK    4  A    between atoms: C_17  and  C_18
REMARK    5  A    between atoms: C_18  and  C_19
REMARK    6  A    between atoms: C_19  and  N_20
REMARK                            x       y       z     vdW  Elec       q    Type
REMARK                         _______ _______ _______ _____ _____    ______ ____
ROOT
ATOM      1  N   UNL     1      23.226   1.334  52.678  0.00  0.00    -0.299 N 
ATOM      2  C   UNL     1      23.278   2.664  52.132  0.00  0.00    +0.135 A 
ATOM      3  N   UNL     1      22.264   3.533  52.393  0.00  0.00    -0.220 NA
ATOM      4  C   UNL     1      22.287   4.813  51.943  0.00  0.00    +0.119 A 
ATOM      5  N   UNL     1      23.343   5.261  51.220  0.00  0.00    -0.235 NA
ATOM      6  C   UNL     1      24.388   4.445  50.927  0.00  0.00    +0.081 A 
ATOM      7  C   UNL     1      25.460   4.930  50.175  0.00  0.00    +0.004 A 
ATOM      8  C   UNL     1      26.527   4.070  49.856  0.00  0.00    +0.121 A 
ATOM      9  N   UNL     1      27.660   4.510  49.086  0.00  0.00    -0.329 N 
ATOM     10  N   UNL     1      26.495   2.782  50.293  0.00  0.00    -0.240 NA
ATOM     11  C   UNL     1      25.467   2.283  51.029  0.00  0.00    +0.042 A 
ATOM     12  C   UNL     1      24.385   3.109  51.376  0.00  0.00    +0.059 A 
ATOM     13  H   UNL     1      24.075   0.888  52.902  0.00  0.00    +0.000 HD
ATOM     14  H   UNL     1      28.434   3.906  49.030  0.00  0.00    +0.000 HD
ENDROOT
BRANCH   1  20
ATOM     15 BR   UNL     1      18.318   0.218  50.939  0.00  0.00    -0.050 Br
ATOM     16  C   UNL     1      19.736   0.068  52.209  0.00  0.00    +0.020 A 
ATOM     17  C   UNL     1      19.565  -0.709  53.359  0.00  0.00    -0.048 A 
ATOM     18  C   UNL     1      20.599  -0.813  54.292  0.00  0.00    -0.059 A 
ATOM     19  C   UNL     1      21.809  -0.146  54.077  0.00  0.00    -0.040 A 
ATOM     20  C   UNL     1      21.999   0.623  52.913  0.00  0.00    +0.033 A 
ATOM     21  C   UNL     1      20.946   0.736  51.990  0.00  0.00    -0.027 A 
ENDBRANCH   1  20
BRANCH   9  22
ATOM     22  C   UNL     1      27.746   5.789  48.378  0.00  0.00    +0.010 C 
BRANCH  22  23
ATOM     23  C   UNL     1      29.198   6.280  48.282  0.00  0.00    -0.036 C 
BRANCH  23  24
ATOM     24  C   UNL     1      29.276   7.762  47.889  0.00  0.00    -0.039 C 
BRANCH  24  25
ATOM     25  C   UNL     1      30.185   8.541  48.848  0.00  0.00    -0.001 C 
BRANCH  25  26
ATOM     26  N   UNL     1      29.676   9.916  49.042  0.00  0.00    -0.298 N 
ATOM     27  C   UNL     1      30.575  10.917  48.436  0.00  0.00    +0.022 C 
ATOM     28  C   UNL     1      30.036  12.340  48.698  0.00  0.00    +0.060 C 
ATOM     29  O   UNL     1      28.724  12.331  49.233  0.00  0.00    -0.377 OA
ATOM     30  C   UNL     1      27.884  11.533  48.424  0.00  0.00    +0.060 C 
ATOM     31  C   UNL     1      28.320  10.055  48.469  0.00  0.00    +0.022 C 
ATOM     32  H   UNL     1      29.636  10.086  50.046  0.00  0.00    +0.000 HD
ENDBRANCH  25  26
ENDBRANCH  24  25
ENDBRANCH  23  24
ENDBRANCH  22  23
ENDBRANCH   9  22
TORSDOF 6
ENDMDL
