MODEL 1
REMARK VINA RESULT:    -7.965      0.000      0.000
REMARK INTER + INTRA:         -15.440
REMARK INTER:                 -13.553
REMARK INTRA:                  -1.887
REMARK UNBOUND:                -1.887
REMARK  Name = 
REMARK  13 active torsions:
REMARK  status: ('A' for Active; 'I' for Inactive)
REMARK    1  A    between atoms: C_1  and  S_2
REMARK    2  A    between atoms: S_2  and  C_5
REMARK    3  A    between atoms: C_5  and  C_6
REMARK    4  A    between atoms: C_6  and  N_7
REMARK    5  A    between atoms: N_7  and  C_8
REMARK    6  A    between atoms: C_8  and  C_9
REMARK    7  A    between atoms: C_9  and  C_10
REMARK    8  A    between atoms: C_10  and  O_11
REMARK    9  A    between atoms: O_11  and  C_12
REMARK   10  A    between atoms: N_20  and  C_21
REMARK   11  A    between atoms: C_24  and  O_25
REMARK   12  A    between atoms: O_25  and  C_26
REMARK   13  A    between atoms: C_26  and  C_27
REMARK                            x       y       z     vdW  Elec       q    Type
REMARK                         _______ _______ _______ _____ _____    ______ ____
ROOT
ATOM      1  C   UNL     1      25.722   0.872  52.093  0.00  0.00    +0.121 A 
ATOM      2  C   UNL     1      26.204  -0.172  52.905  0.00  0.00    -0.018 A 
ATOM      3  C   UNL     1      25.346  -0.835  53.784  0.00  0.00    -0.032 A 
ATOM      4  C   UNL     1      24.003  -0.458  53.876  0.00  0.00    +0.076 A 
ATOM      5  N   UNL     1      23.173  -1.120  54.724  0.00  0.00    -0.235 NA
ATOM      6  C   UNL     1      21.867  -0.773  54.832  0.00  0.00    +0.119 A 
ATOM      7  N   UNL     1      21.371   0.255  54.098  0.00  0.00    -0.220 NA
ATOM      8  C   UNL     1      22.149   0.956  53.229  0.00  0.00    +0.134 A 
ATOM      9  N   UNL     1      21.588   2.081  52.531  0.00  0.00    -0.299 N 
ATOM     10  C   UNL     1      23.510   0.606  53.089  0.00  0.00    +0.044 A 
ATOM     11  C   UNL     1      24.377   1.252  52.187  0.00  0.00    -0.007 A 
ATOM     12  H   UNL     1      22.179   2.836  52.310  0.00  0.00    +0.000 HD
ENDROOT
BRANCH   9  13
ATOM     13  C   UNL     1      20.206   2.156  52.138  0.00  0.00    +0.033 A 
ATOM     14  C   UNL     1      19.545   3.392  52.020  0.00  0.00    -0.037 A 
ATOM     15  C   UNL     1      18.193   3.438  51.673  0.00  0.00    -0.018 A 
ATOM     16  C   UNL     1      17.475   2.258  51.445  0.00  0.00    +0.121 A 
ATOM     17  C   UNL     1      18.132   1.020  51.572  0.00  0.00    -0.018 A 
ATOM     18  C   UNL     1      19.483   0.973  51.926  0.00  0.00    -0.037 A 
BRANCH  16  19
ATOM     19  O   UNL     1      16.118   2.359  51.100  0.00  0.00    -0.487 OA
BRANCH  19  20
ATOM     20  C   UNL     1      15.085   1.548  51.652  0.00  0.00    +0.115 C 
BRANCH  20  21
ATOM     21  C   UNL     1      14.249   2.378  52.584  0.00  0.00    -0.010 A 
ATOM     22  C   UNL     1      13.145   1.804  53.235  0.00  0.00    -0.055 A 
ATOM     23  C   UNL     1      12.353   2.576  54.090  0.00  0.00    -0.061 A 
ATOM     24  C   UNL     1      12.654   3.924  54.299  0.00  0.00    -0.062 A 
ATOM     25  C   UNL     1      13.745   4.506  53.647  0.00  0.00    -0.061 A 
ATOM     26  C   UNL     1      14.540   3.739  52.789  0.00  0.00    -0.055 A 
ENDBRANCH  20  21
ENDBRANCH  19  20
ENDBRANCH  16  19
ENDBRANCH   9  13
BRANCH   1  27
ATOM     27  O   UNL     1      26.541   1.553  51.180  0.00  0.00    -0.492 OA
BRANCH  27  28
ATOM     28  C   UNL     1      26.544   2.967  50.996  0.00  0.00    +0.091 C 
BRANCH  28  29
ATOM     29  C   UNL     1      26.320   3.311  49.522  0.00  0.00    -0.006 C 
BRANCH  29  30
ATOM     30  C   UNL     1      26.923   4.667  49.094  0.00  0.00    -0.001 C 
BRANCH  30  31
ATOM     31  N   UNL     1      26.463   5.813  49.896  0.00  0.00    -0.314 N 
ATOM     32  H   UNL     1      26.665   5.626  50.878  0.00  0.00    +0.000 HD
ATOM     33  H   UNL     1      26.955   6.640  49.560  0.00  0.00    +0.000 HD
BRANCH  31  34
ATOM     34  C   UNL     1      25.023   6.064  49.753  0.00  0.00    +0.015 C 
BRANCH  34  35
ATOM     35  C   UNL     1      24.405   6.292  51.131  0.00  0.00    +0.078 C 
BRANCH  35  37
ATOM     36  C   UNL     1      21.509   6.239  50.896  0.00  0.00    +0.054 C 
ATOM     37  S   UNL     1      22.943   5.291  51.351  0.00  0.00    -0.033 S 
ATOM     38  O   UNL     1      22.823   4.871  52.789  0.00  0.00    -0.175 OA
ATOM     39  O   UNL     1      23.028   4.070  50.479  0.00  0.00    -0.175 OA
ENDBRANCH  35  37
ENDBRANCH  34  35
ENDBRANCH  31  34
ENDBRANCH  30  31
ENDBRANCH  29  30
ENDBRANCH  28  29
ENDBRANCH  27  28
ENDBRANCH   1  27
TORSDOF 12
ENDMDL
MODEL 2
REMARK VINA RESULT:    -7.934      2.887      9.370
REMARK INTER + INTRA:         -15.387
REMARK INTER:                 -12.586
REMARK INTRA:                  -2.801
REMARK UNBOUND:                -1.887
REMARK  Name = 
REMARK  13 active torsions:
REMARK  status: ('A' for Active; 'I' for Inactive)
REMARK    1  A    between atoms: C_1  and  S_2
REMARK    2  A    between atoms: S_2  and  C_5
REMARK    3  A    between atoms: C_5  and  C_6
REMARK    4  A    between atoms: C_6  and  N_7
REMARK    5  A    between atoms: N_7  and  C_8
REMARK    6  A    between atoms: C_8  and  C_9
REMARK    7  A    between atoms: C_9  and  C_10
REMARK    8  A    between atoms: C_10  and  O_11
REMARK    9  A    between atoms: O_11  and  C_12
REMARK   10  A    between atoms: N_20  and  C_21
REMARK   11  A    between atoms: C_24  and  O_25
REMARK   12  A    between atoms: O_25  and  C_26
REMARK   13  A    between atoms: C_26  and  C_27
REMARK                            x       y       z     vdW  Elec       q    Type
REMARK                         _______ _______ _______ _____ _____    ______ ____
ROOT
ATOM      1  C   UNL     1      20.713  -0.095  53.423  0.00  0.00    +0.121 A 
ATOM      2  C   UNL     1      21.266  -1.021  54.329  0.00  0.00    -0.018 A 
ATOM      3  C   UNL     1      22.650  -1.130  54.469  0.00  0.00    -0.032 A 
ATOM      4  C   UNL     1      23.501  -0.330  53.700  0.00  0.00    +0.076 A 
ATOM      5  N   UNL     1      24.847  -0.434  53.855  0.00  0.00    -0.235 NA
ATOM      6  C   UNL     1      25.694   0.329  53.121  0.00  0.00    +0.119 A 
ATOM      7  N   UNL     1      25.205   1.204  52.207  0.00  0.00    -0.220 NA
ATOM      8  C   UNL     1      23.867   1.357  52.006  0.00  0.00    +0.134 A 
ATOM      9  N   UNL     1      23.408   2.248  50.974  0.00  0.00    -0.299 N 
ATOM     10  C   UNL     1      22.965   0.583  52.767  0.00  0.00    +0.044 A 
ATOM     11  C   UNL     1      21.566   0.704  52.651  0.00  0.00    -0.007 A 
ATOM     12  H   UNL     1      22.570   2.029  50.507  0.00  0.00    +0.000 HD
ENDROOT
BRANCH   9  13
ATOM     13  C   UNL     1      24.112   3.443  50.592  0.00  0.00    +0.033 A 
ATOM     14  C   UNL     1      25.055   3.435  49.550  0.00  0.00    -0.037 A 
ATOM     15  C   UNL     1      25.753   4.600  49.221  0.00  0.00    -0.018 A 
ATOM     16  C   UNL     1      25.529   5.788  49.927  0.00  0.00    +0.121 A 
ATOM     17  C   UNL     1      24.592   5.796  50.977  0.00  0.00    -0.018 A 
ATOM     18  C   UNL     1      23.898   4.629  51.310  0.00  0.00    -0.037 A 
BRANCH  16  19
ATOM     19  O   UNL     1      26.256   6.930  49.558  0.00  0.00    -0.487 OA
BRANCH  19  20
ATOM     20  C   UNL     1      26.827   7.139  48.269  0.00  0.00    +0.115 C 
BRANCH  20  21
ATOM     21  C   UNL     1      28.323   7.057  48.371  0.00  0.00    -0.010 A 
ATOM     22  C   UNL     1      29.064   8.193  48.736  0.00  0.00    -0.055 A 
ATOM     23  C   UNL     1      30.459   8.128  48.817  0.00  0.00    -0.061 A 
ATOM     24  C   UNL     1      31.122   6.932  48.530  0.00  0.00    -0.062 A 
ATOM     25  C   UNL     1      30.393   5.799  48.157  0.00  0.00    -0.061 A 
ATOM     26  C   UNL     1      28.999   5.860  48.073  0.00  0.00    -0.055 A 
ENDBRANCH  20  21
ENDBRANCH  19  20
ENDBRANCH  16  19
ENDBRANCH   9  13
BRANCH   1  27
ATOM     27  O   UNL     1      19.330   0.065  53.263  0.00  0.00    -0.492 OA
BRANCH  27  28
ATOM     28  C   UNL     1      18.496  -0.813  52.511  0.00  0.00    +0.091 C 
BRANCH  28  29
ATOM     29  C   UNL     1      17.301  -0.049  51.937  0.00  0.00    -0.006 C 
BRANCH  29  30
ATOM     30  C   UNL     1      17.691   1.115  51.000  0.00  0.00    -0.001 C 
BRANCH  30  31
ATOM     31  N   UNL     1      18.351   2.243  51.680  0.00  0.00    -0.314 N 
ATOM     32  H   UNL     1      18.348   2.065  52.684  0.00  0.00    +0.000 HD
ATOM     33  H   UNL     1      19.298   2.312  51.311  0.00  0.00    +0.000 HD
BRANCH  31  34
ATOM     34  C   UNL     1      17.682   3.526  51.429  0.00  0.00    +0.015 C 
BRANCH  34  35
ATOM     35  C   UNL     1      18.354   4.232  50.253  0.00  0.00    +0.078 C 
BRANCH  35  37
ATOM     36  C   UNL     1      20.830   5.611  49.609  0.00  0.00    +0.054 C 
ATOM     37  S   UNL     1      20.132   4.182  50.407  0.00  0.00    -0.033 S 
ATOM     38  O   UNL     1      20.668   2.940  49.754  0.00  0.00    -0.175 OA
ATOM     39  O   UNL     1      20.517   4.189  51.860  0.00  0.00    -0.175 OA
ENDBRANCH  35  37
ENDBRANCH  34  35
ENDBRANCH  31  34
ENDBRANCH  30  31
ENDBRANCH  29  30
ENDBRANCH  28  29
ENDBRANCH  27  28
ENDBRANCH   1  27
TORSDOF 12
ENDMDL
MODEL 3
REMARK VINA RESULT:    -7.868      3.839      9.516
REMARK INTER + INTRA:         -15.275
REMARK INTER:                 -12.994
REMARK INTRA:                  -2.281
REMARK UNBOUND:                -1.887
REMARK  Name = 
REMARK  13 active torsions:
REMARK  status: ('A' for Active; 'I' for Inactive)
REMARK    1  A    between atoms: C_1  and  S_2
REMARK    2  A    between atoms: S_2  and  C_5
REMARK    3  A    between atoms: C_5  and  C_6
REMARK    4  A    between atoms: C_6  and  N_7
REMARK    5  A    between atoms: N_7  and  C_8
REMARK    6  A    between atoms: C_8  and  C_9
REMARK    7  A    between atoms: C_9  and  C_10
REMARK    8  A    between atoms: C_10  and  O_11
REMARK    9  A    between atoms: O_11  and  C_12
REMARK   10  A    between atoms: N_20  and  C_21
REMARK   11  A    between atoms: C_24  and  O_25
REMARK   12  A    between atoms: O_25  and  C_26
REMARK   13  A    between atoms: C_26  and  C_27
REMARK                            x       y       z     vdW  Elec       q    Type
REMARK                         _______ _______ _______ _____ _____    ______ ____
ROOT
ATOM      1  C   UNL     1      23.823  -0.512  53.704  0.00  0.00    +0.121 A 
ATOM      2  C   UNL     1      24.590  -0.940  54.804  0.00  0.00    -0.018 A 
ATOM      3  C   UNL     1      25.877  -0.438  55.005  0.00  0.00    -0.032 A 
ATOM      4  C   UNL     1      26.421   0.486  54.107  0.00  0.00    +0.076 A 
ATOM      5  N   UNL     1      27.668   0.981  54.319  0.00  0.00    -0.235 NA
ATOM      6  C   UNL     1      28.218   1.876  53.463  0.00  0.00    +0.119 A 
ATOM      7  N   UNL     1      27.529   2.285  52.368  0.00  0.00    -0.220 NA
ATOM      8  C   UNL     1      26.274   1.829  52.099  0.00  0.00    +0.134 A 
ATOM      9  N   UNL     1      25.620   2.242  50.887  0.00  0.00    -0.299 N 
ATOM     10  C   UNL     1      25.675   0.905  52.983  0.00  0.00    +0.044 A 
ATOM     11  C   UNL     1      24.368   0.411  52.803  0.00  0.00    -0.007 A 
ATOM     12  H   UNL     1      24.999   1.613  50.454  0.00  0.00    +0.000 HD
ENDROOT
BRANCH   9  13
ATOM     13  C   UNL     1      25.827   3.528  50.277  0.00  0.00    +0.033 A 
ATOM     14  C   UNL     1      26.848   3.734  49.334  0.00  0.00    -0.037 A 
ATOM     15  C   UNL     1      27.053   5.002  48.782  0.00  0.00    -0.018 A 
ATOM     16  C   UNL     1      26.251   6.083  49.164  0.00  0.00    +0.121 A 
ATOM     17  C   UNL     1      25.234   5.880  50.115  0.00  0.00    -0.018 A 
ATOM     18  C   UNL     1      25.033   4.614  50.672  0.00  0.00    -0.037 A 
BRANCH  16  19
ATOM     19  O   UNL     1      26.498   7.335  48.581  0.00  0.00    -0.487 OA
BRANCH  19  20
ATOM     20  C   UNL     1      27.473   7.574  47.570  0.00  0.00    +0.115 C 
BRANCH  20  21
ATOM     21  C   UNL     1      28.679   8.221  48.188  0.00  0.00    -0.010 A 
ATOM     22  C   UNL     1      29.840   7.465  48.420  0.00  0.00    -0.055 A 
ATOM     23  C   UNL     1      30.960   8.058  49.009  0.00  0.00    -0.061 A 
ATOM     24  C   UNL     1      30.929   9.406  49.376  0.00  0.00    -0.062 A 
ATOM     25  C   UNL     1      29.774  10.163  49.158  0.00  0.00    -0.061 A 
ATOM     26  C   UNL     1      28.651   9.575  48.570  0.00  0.00    -0.055 A 
ENDBRANCH  20  21
ENDBRANCH  19  20
ENDBRANCH  16  19
ENDBRANCH   9  13
BRANCH   1  27
ATOM     27  O   UNL     1      22.519  -0.973  53.473  0.00  0.00    -0.492 OA
BRANCH  27  28
ATOM     28  C   UNL     1      21.443  -0.852  54.402  0.00  0.00    +0.091 C 
BRANCH  28  29
ATOM     29  C   UNL     1      20.675   0.449  54.157  0.00  0.00    -0.006 C 
BRANCH  29  30
ATOM     30  C   UNL     1      20.318   0.699  52.676  0.00  0.00    -0.001 C 
BRANCH  30  31
ATOM     31  N   UNL     1      19.773   2.039  52.403  0.00  0.00    -0.314 N 
ATOM     32  H   UNL     1      19.322   2.028  51.488  0.00  0.00    +0.000 HD
ATOM     33  H   UNL     1      19.112   2.259  53.147  0.00  0.00    +0.000 HD
BRANCH  31  34
ATOM     34  C   UNL     1      20.805   3.083  52.403  0.00  0.00    +0.015 C 
BRANCH  34  35
ATOM     35  C   UNL     1      21.998   2.623  51.566  0.00  0.00    +0.078 C 
BRANCH  35  37
ATOM     36  C   UNL     1      21.440   4.579  49.490  0.00  0.00    +0.054 C 
ATOM     37  S   UNL     1      21.683   2.848  49.823  0.00  0.00    -0.033 S 
ATOM     38  O   UNL     1      20.448   2.090  49.425  0.00  0.00    -0.175 OA
ATOM     39  O   UNL     1      22.854   2.350  49.026  0.00  0.00    -0.175 OA
ENDBRANCH  35  37
ENDBRANCH  34  35
ENDBRANCH  31  34
ENDBRANCH  30  31
ENDBRANCH  29  30
ENDBRANCH  28  29
ENDBRANCH  27  28
ENDBRANCH   1  27
TORSDOF 12
ENDMDL
MODEL 4
REMARK VINA RESULT:    -7.734      3.752      9.568
REMARK INTER + INTRA:         -15.047
REMARK INTER:                 -12.884
REMARK INTRA:                  -2.162
REMARK UNBOUND:                -1.887
REMARK  Name = 
REMARK  13 active torsions:
REMARK  status: ('A' for Active; 'I' for Inactive)
REMARK    1  A    between atoms: C_1  and  S_2
REMARK    2  A    between atoms: S_2  and  C_5
REMARK    3  A    between atoms: C_5  and  C_6
REMARK    4  A    between atoms: C_6  and  N_7
REMARK    5  A    between atoms: N_7  and  C_8
REMARK    6  A    between atoms: C_8  and  C_9
REMARK    7  A    between atoms: C_9  and  C_10
REMARK    8  A    between atoms: C_10  and  O_11
REMARK    9  A    between atoms: O_11  and  C_12
REMARK   10  A    between atoms: N_20  and  C_21
REMARK   11  A    between atoms: C_24  and  O_25
REMARK   12  A    between atoms: O_25  and  C_26
REMARK   13  A    between atoms: C_26  and  C_27
REMARK                            x       y       z     vdW  Elec       q    Type
REMARK                         _______ _______ _______ _____ _____    ______ ____
ROOT
ATOM      1  C   UNL     1      22.750  -0.146  53.226  0.00  0.00    +0.121 A 
ATOM      2  C   UNL     1      23.394  -0.817  54.283  0.00  0.00    -0.018 A 
ATOM      3  C   UNL     1      24.753  -0.608  54.527  0.00  0.00    -0.032 A 
ATOM      4  C   UNL     1      25.489   0.260  53.715  0.00  0.00    +0.076 A 
ATOM      5  N   UNL     1      26.807   0.467  53.970  0.00  0.00    -0.235 NA
ATOM      6  C   UNL     1      27.544   1.302  53.196  0.00  0.00    +0.119 A 
ATOM      7  N   UNL     1      26.972   1.938  52.142  0.00  0.00    -0.220 NA
ATOM      8  C   UNL     1      25.656   1.774  51.835  0.00  0.00    +0.134 A 
ATOM      9  N   UNL     1      25.122   2.416  50.665  0.00  0.00    -0.299 N 
ATOM     10  C   UNL     1      24.865   0.919  52.633  0.00  0.00    +0.044 A 
ATOM     11  C   UNL     1      23.488   0.721  52.410  0.00  0.00    -0.007 A 
ATOM     12  H   UNL     1      24.393   1.968  50.177  0.00  0.00    +0.000 HD
ENDROOT
BRANCH   9  13
ATOM     13  C   UNL     1      25.597   3.681  50.171  0.00  0.00    +0.033 A 
ATOM     14  C   UNL     1      24.940   4.883  50.486  0.00  0.00    -0.037 A 
ATOM     15  C   UNL     1      25.399   6.095  49.964  0.00  0.00    -0.018 A 
ATOM     16  C   UNL     1      26.512   6.130  49.116  0.00  0.00    +0.121 A 
ATOM     17  C   UNL     1      27.166   4.926  48.792  0.00  0.00    -0.018 A 
ATOM     18  C   UNL     1      26.703   3.713  49.309  0.00  0.00    -0.037 A 
BRANCH  16  19
ATOM     19  O   UNL     1      26.933   7.372  48.618  0.00  0.00    -0.487 OA
BRANCH  19  20
ATOM     20  C   UNL     1      27.932   7.542  47.616  0.00  0.00    +0.115 C 
BRANCH  20  21
ATOM     21  C   UNL     1      29.263   7.760  48.276  0.00  0.00    -0.010 A 
ATOM     22  C   UNL     1      29.598   9.028  48.777  0.00  0.00    -0.055 A 
ATOM     23  C   UNL     1      30.842   9.242  49.377  0.00  0.00    -0.061 A 
ATOM     24  C   UNL     1      31.761   8.194  49.478  0.00  0.00    -0.062 A 
ATOM     25  C   UNL     1      31.439   6.931  48.973  0.00  0.00    -0.061 A 
ATOM     26  C   UNL     1      30.197   6.713  48.371  0.00  0.00    -0.055 A 
ENDBRANCH  20  21
ENDBRANCH  19  20
ENDBRANCH  16  19
ENDBRANCH   9  13
BRANCH   1  27
ATOM     27  O   UNL     1      21.384  -0.307  52.956  0.00  0.00    -0.492 OA
BRANCH  27  28
ATOM     28  C   UNL     1      20.477   0.765  52.706  0.00  0.00    +0.091 C 
BRANCH  28  29
ATOM     29  C   UNL     1      19.631   0.466  51.466  0.00  0.00    -0.006 C 
BRANCH  29  30
ATOM     30  C   UNL     1      20.345   0.770  50.131  0.00  0.00    -0.001 C 
BRANCH  30  31
ATOM     31  N   UNL     1      19.650   1.753  49.283  0.00  0.00    -0.314 N 
ATOM     32  H   UNL     1      19.279   1.272  48.464  0.00  0.00    +0.000 HD
ATOM     33  H   UNL     1      18.909   2.172  49.843  0.00  0.00    +0.000 HD
BRANCH  31  34
ATOM     34  C   UNL     1      20.532   2.836  48.831  0.00  0.00    +0.015 C 
BRANCH  34  35
ATOM     35  C   UNL     1      21.596   3.107  49.893  0.00  0.00    +0.078 C 
BRANCH  35  37
ATOM     36  C   UNL     1      21.204   5.936  50.429  0.00  0.00    +0.054 C 
ATOM     37  S   UNL     1      21.016   4.296  51.092  0.00  0.00    -0.033 S 
ATOM     38  O   UNL     1      21.818   4.180  52.357  0.00  0.00    -0.175 OA
ATOM     39  O   UNL     1      19.566   4.047  51.395  0.00  0.00    -0.175 OA
ENDBRANCH  35  37
ENDBRANCH  34  35
ENDBRANCH  31  34
ENDBRANCH  30  31
ENDBRANCH  29  30
ENDBRANCH  28  29
ENDBRANCH  27  28
ENDBRANCH   1  27
TORSDOF 12
ENDMDL
MODEL 5
REMARK VINA RESULT:    -7.678      1.377      1.851
REMARK INTER + INTRA:         -14.952
REMARK INTER:                 -12.717
REMARK INTRA:                  -2.234
REMARK UNBOUND:                -1.887
REMARK  Name = 
REMARK  13 active torsions:
REMARK  status: ('A' for Active; 'I' for Inactive)
REMARK    1  A    between atoms: C_1  and  S_2
REMARK    2  A    between atoms: S_2  and  C_5
REMARK    3  A    between atoms: C_5  and  C_6
REMARK    4  A    between atoms: C_6  and  N_7
REMARK    5  A    between atoms: N_7  and  C_8
REMARK    6  A    between atoms: C_8  and  C_9
REMARK    7  A    between atoms: C_9  and  C_10
REMARK    8  A    between atoms: C_10  and  O_11
REMARK    9  A    between atoms: O_11  and  C_12
REMARK   10  A    between atoms: N_20  and  C_21
REMARK   11  A    between atoms: C_24  and  O_25
REMARK   12  A    between atoms: O_25  and  C_26
REMARK   13  A    between atoms: C_26  and  C_27
REMARK                            x       y       z     vdW  Elec       q    Type
REMARK                         _______ _______ _______ _____ _____    ______ ____
ROOT
ATOM      1  C   UNL     1      26.420   1.815  52.130  0.00  0.00    +0.121 A 
ATOM      2  C   UNL     1      27.309   1.067  52.926  0.00  0.00    -0.018 A 
ATOM      3  C   UNL     1      26.822   0.118  53.826  0.00  0.00    -0.032 A 
ATOM      4  C   UNL     1      25.445  -0.090  53.954  0.00  0.00    +0.076 A 
ATOM      5  N   UNL     1      24.982  -1.026  54.822  0.00  0.00    -0.235 NA
ATOM      6  C   UNL     1      23.652  -1.246  54.966  0.00  0.00    +0.119 A 
ATOM      7  N   UNL     1      22.759  -0.519  54.248  0.00  0.00    -0.220 NA
ATOM      8  C   UNL     1      23.158   0.432  53.361  0.00  0.00    +0.134 A 
ATOM      9  N   UNL     1      22.167   1.221  52.681  0.00  0.00    -0.299 N 
ATOM     10  C   UNL     1      24.538   0.671  53.184  0.00  0.00    +0.044 A 
ATOM     11  C   UNL     1      25.041   1.609  52.260  0.00  0.00    -0.007 A 
ATOM     12  H   UNL     1      22.389   2.151  52.446  0.00  0.00    +0.000 HD
ENDROOT
BRANCH   9  13
ATOM     13  C   UNL     1      20.867   0.718  52.324  0.00  0.00    +0.033 A 
ATOM     14  C   UNL     1      20.310   0.962  51.057  0.00  0.00    -0.037 A 
ATOM     15  C   UNL     1      19.030   0.496  50.747  0.00  0.00    -0.018 A 
ATOM     16  C   UNL     1      18.281  -0.213  51.694  0.00  0.00    +0.121 A 
ATOM     17  C   UNL     1      18.833  -0.450  52.967  0.00  0.00    -0.018 A 
ATOM     18  C   UNL     1      20.111   0.022  53.279  0.00  0.00    -0.037 A 
BRANCH  16  19
ATOM     19  O   UNL     1      17.001  -0.659  51.333  0.00  0.00    -0.487 OA
BRANCH  19  20
ATOM     20  C   UNL     1      15.956  -0.942  52.260  0.00  0.00    +0.115 C 
BRANCH  20  21
ATOM     21  C   UNL     1      15.185   0.317  52.537  0.00  0.00    -0.010 A 
ATOM     22  C   UNL     1      14.011   0.265  53.306  0.00  0.00    -0.055 A 
ATOM     23  C   UNL     1      13.280   1.431  53.553  0.00  0.00    -0.061 A 
ATOM     24  C   UNL     1      13.712   2.654  53.033  0.00  0.00    -0.062 A 
ATOM     25  C   UNL     1      14.874   2.712  52.258  0.00  0.00    -0.061 A 
ATOM     26  C   UNL     1      15.608   1.549  52.007  0.00  0.00    -0.055 A 
ENDBRANCH  20  21
ENDBRANCH  19  20
ENDBRANCH  16  19
ENDBRANCH   9  13
BRANCH   1  27
ATOM     27  O   UNL     1      26.863   2.764  51.198  0.00  0.00    -0.492 OA
BRANCH  27  28
ATOM     28  C   UNL     1      26.385   2.865  49.859  0.00  0.00    +0.091 C 
BRANCH  28  29
ATOM     29  C   UNL     1      26.827   4.192  49.236  0.00  0.00    -0.006 C 
BRANCH  29  30
ATOM     30  C   UNL     1      25.896   5.380  49.562  0.00  0.00    -0.001 C 
BRANCH  30  31
ATOM     31  N   UNL     1      25.053   5.179  50.753  0.00  0.00    -0.314 N 
ATOM     32  H   UNL     1      24.427   4.393  50.580  0.00  0.00    +0.000 HD
ATOM     33  H   UNL     1      25.674   5.002  51.542  0.00  0.00    +0.000 HD
BRANCH  31  34
ATOM     34  C   UNL     1      24.244   6.360  51.081  0.00  0.00    +0.015 C 
BRANCH  34  35
ATOM     35  C   UNL     1      22.791   6.111  50.682  0.00  0.00    +0.078 C 
BRANCH  35  37
ATOM     36  C   UNL     1      20.455   4.488  51.279  0.00  0.00    +0.054 C 
ATOM     37  S   UNL     1      22.233   4.515  51.257  0.00  0.00    -0.033 S 
ATOM     38  O   UNL     1      22.749   4.263  52.645  0.00  0.00    -0.175 OA
ATOM     39  O   UNL     1      22.733   3.439  50.335  0.00  0.00    -0.175 OA
ENDBRANCH  35  37
ENDBRANCH  34  35
ENDBRANCH  31  34
ENDBRANCH  30  31
ENDBRANCH  29  30
ENDBRANCH  28  29
ENDBRANCH  27  28
ENDBRANCH   1  27
TORSDOF 12
ENDMDL
MODEL 6
REMARK VINA RESULT:    -7.462      2.126      3.116
REMARK INTER + INTRA:         -14.584
REMARK INTER:                 -12.373
REMARK INTRA:                  -2.211
REMARK UNBOUND:                -1.887
REMARK  Name = 
REMARK  13 active torsions:
REMARK  status: ('A' for Active; 'I' for Inactive)
REMARK    1  A    between atoms: C_1  and  S_2
REMARK    2  A    between atoms: S_2  and  C_5
REMARK    3  A    between atoms: C_5  and  C_6
REMARK    4  A    between atoms: C_6  and  N_7
REMARK    5  A    between atoms: N_7  and  C_8
REMARK    6  A    between atoms: C_8  and  C_9
REMARK    7  A    between atoms: C_9  and  C_10
REMARK    8  A    between atoms: C_10  and  O_11
REMARK    9  A    between atoms: O_11  and  C_12
REMARK   10  A    between atoms: N_20  and  C_21
REMARK   11  A    between atoms: C_24  and  O_25
REMARK   12  A    between atoms: O_25  and  C_26
REMARK   13  A    between atoms: C_26  and  C_27
REMARK                            x       y       z     vdW  Elec       q    Type
REMARK                         _______ _______ _______ _____ _____    ______ ____
ROOT
ATOM      1  C   UNL     1      26.314   2.121  51.660  0.00  0.00    +0.121 A 
ATOM      2  C   UNL     1      27.067   1.183  52.392  0.00  0.00    -0.018 A 
ATOM      3  C   UNL     1      26.427   0.243  53.202  0.00  0.00    -0.032 A 
ATOM      4  C   UNL     1      25.033   0.234  53.304  0.00  0.00    +0.076 A 
ATOM      5  N   UNL     1      24.419  -0.694  54.084  0.00  0.00    -0.235 NA
ATOM      6  C   UNL     1      23.069  -0.723  54.201  0.00  0.00    +0.119 A 
ATOM      7  N   UNL     1      22.307   0.189  53.544  0.00  0.00    -0.220 NA
ATOM      8  C   UNL     1      22.860   1.143  52.747  0.00  0.00    +0.134 A 
ATOM      9  N   UNL     1      22.010   2.126  52.133  0.00  0.00    -0.299 N 
ATOM     10  C   UNL     1      24.264   1.186  52.598  0.00  0.00    +0.044 A 
ATOM     11  C   UNL     1      24.917   2.114  51.764  0.00  0.00    -0.007 A 
ATOM     12  H   UNL     1      22.373   3.029  51.982  0.00  0.00    +0.000 HD
ENDROOT
BRANCH   9  13
ATOM     13  C   UNL     1      20.656   1.858  51.727  0.00  0.00    +0.033 A 
ATOM     14  C   UNL     1      19.612   2.749  52.027  0.00  0.00    -0.037 A 
ATOM     15  C   UNL     1      18.299   2.448  51.655  0.00  0.00    -0.018 A 
ATOM     16  C   UNL     1      18.004   1.255  50.986  0.00  0.00    +0.121 A 
ATOM     17  C   UNL     1      19.047   0.356  50.693  0.00  0.00    -0.018 A 
ATOM     18  C   UNL     1      20.359   0.654  51.071  0.00  0.00    -0.037 A 
BRANCH  16  19
ATOM     19  O   UNL     1      16.669   1.000  50.634  0.00  0.00    -0.487 OA
BRANCH  19  20
ATOM     20  C   UNL     1      15.854   0.002  51.242  0.00  0.00    +0.115 C 
BRANCH  20  21
ATOM     21  C   UNL     1      15.503  -1.041  50.221  0.00  0.00    -0.010 A 
ATOM     22  C   UNL     1      14.778  -2.181  50.603  0.00  0.00    -0.055 A 
ATOM     23  C   UNL     1      14.462  -3.164  49.660  0.00  0.00    -0.061 A 
ATOM     24  C   UNL     1      14.870  -3.018  48.332  0.00  0.00    -0.062 A 
ATOM     25  C   UNL     1      15.601  -1.891  47.945  0.00  0.00    -0.061 A 
ATOM     26  C   UNL     1      15.920  -0.906  48.885  0.00  0.00    -0.055 A 
ENDBRANCH  20  21
ENDBRANCH  19  20
ENDBRANCH  16  19
ENDBRANCH   9  13
BRANCH   1  27
ATOM     27  O   UNL     1      26.911   3.069  50.817  0.00  0.00    -0.492 OA
BRANCH  27  28
ATOM     28  C   UNL     1      26.485   3.348  49.485  0.00  0.00    +0.091 C 
BRANCH  28  29
ATOM     29  C   UNL     1      27.342   4.460  48.875  0.00  0.00    -0.006 C 
BRANCH  29  30
ATOM     30  C   UNL     1      26.706   5.864  48.966  0.00  0.00    -0.001 C 
BRANCH  30  31
ATOM     31  N   UNL     1      25.958   6.110  50.211  0.00  0.00    -0.314 N 
ATOM     32  H   UNL     1      25.515   5.239  50.502  0.00  0.00    +0.000 HD
ATOM     33  H   UNL     1      26.622   6.447  50.906  0.00  0.00    +0.000 HD
BRANCH  31  34
ATOM     34  C   UNL     1      24.919   7.135  50.055  0.00  0.00    +0.015 C 
BRANCH  34  35
ATOM     35  C   UNL     1      23.942   7.056  51.227  0.00  0.00    +0.078 C 
BRANCH  35  37
ATOM     36  C   UNL     1      21.220   6.204  50.667  0.00  0.00    +0.054 C 
ATOM     37  S   UNL     1      22.861   5.644  51.065  0.00  0.00    -0.033 S 
ATOM     38  O   UNL     1      22.823   4.879  52.357  0.00  0.00    -0.175 OA
ATOM     39  O   UNL     1      23.358   4.747  49.967  0.00  0.00    -0.175 OA
ENDBRANCH  35  37
ENDBRANCH  34  35
ENDBRANCH  31  34
ENDBRANCH  30  31
ENDBRANCH  29  30
ENDBRANCH  28  29
ENDBRANCH  27  28
ENDBRANCH   1  27
TORSDOF 12
ENDMDL
MODEL 7
REMARK VINA RESULT:    -7.351      2.913      9.936
REMARK INTER + INTRA:         -14.395
REMARK INTER:                 -12.905
REMARK INTRA:                  -1.491
REMARK UNBOUND:                -1.887
REMARK  Name = 
REMARK  13 active torsions:
REMARK  status: ('A' for Active; 'I' for Inactive)
REMARK    1  A    between atoms: C_1  and  S_2
REMARK    2  A    between atoms: S_2  and  C_5
REMARK    3  A    between atoms: C_5  and  C_6
REMARK    4  A    between atoms: C_6  and  N_7
REMARK    5  A    between atoms: N_7  and  C_8
REMARK    6  A    between atoms: C_8  and  C_9
REMARK    7  A    between atoms: C_9  and  C_10
REMARK    8  A    between atoms: C_10  and  O_11
REMARK    9  A    between atoms: O_11  and  C_12
REMARK   10  A    between atoms: N_20  and  C_21
REMARK   11  A    between atoms: C_24  and  O_25
REMARK   12  A    between atoms: O_25  and  C_26
REMARK   13  A    between atoms: C_26  and  C_27
REMARK                            x       y       z     vdW  Elec       q    Type
REMARK                         _______ _______ _______ _____ _____    ______ ____
ROOT
ATOM      1  C   UNL     1      20.580  -0.163  53.209  0.00  0.00    +0.121 A 
ATOM      2  C   UNL     1      21.059  -1.072  54.172  0.00  0.00    -0.018 A 
ATOM      3  C   UNL     1      22.428  -1.172  54.428  0.00  0.00    -0.032 A 
ATOM      4  C   UNL     1      23.337  -0.379  53.720  0.00  0.00    +0.076 A 
ATOM      5  N   UNL     1      24.665  -0.473  53.987  0.00  0.00    -0.235 NA
ATOM      6  C   UNL     1      25.567   0.283  53.314  0.00  0.00    +0.119 A 
ATOM      7  N   UNL     1      25.152   1.142  52.349  0.00  0.00    -0.220 NA
ATOM      8  C   UNL     1      23.835   1.285  52.035  0.00  0.00    +0.134 A 
ATOM      9  N   UNL     1      23.459   2.157  50.956  0.00  0.00    -0.299 N 
ATOM     10  C   UNL     1      22.875   0.518  52.731  0.00  0.00    +0.044 A 
ATOM     11  C   UNL     1      21.490   0.629  52.497  0.00  0.00    -0.007 A 
ATOM     12  H   UNL     1      22.663   1.927  50.424  0.00  0.00    +0.000 HD
ENDROOT
BRANCH   9  13
ATOM     13  C   UNL     1      24.187   3.350  50.614  0.00  0.00    +0.033 A 
ATOM     14  C   UNL     1      23.826   4.603  51.139  0.00  0.00    -0.037 A 
ATOM     15  C   UNL     1      24.524   5.753  50.764  0.00  0.00    -0.018 A 
ATOM     16  C   UNL     1      25.588   5.677  49.856  0.00  0.00    +0.121 A 
ATOM     17  C   UNL     1      25.945   4.425  49.322  0.00  0.00    -0.018 A 
ATOM     18  C   UNL     1      25.242   3.274  49.693  0.00  0.00    -0.037 A 
BRANCH  16  19
ATOM     19  O   UNL     1      26.257   6.861  49.511  0.00  0.00    -0.487 OA
BRANCH  19  20
ATOM     20  C   UNL     1      26.841   7.113  48.236  0.00  0.00    +0.115 C 
BRANCH  20  21
ATOM     21  C   UNL     1      28.336   7.040  48.353  0.00  0.00    -0.010 A 
ATOM     22  C   UNL     1      29.068   8.182  48.715  0.00  0.00    -0.055 A 
ATOM     23  C   UNL     1      30.462   8.125  48.810  0.00  0.00    -0.061 A 
ATOM     24  C   UNL     1      31.134   6.930  48.540  0.00  0.00    -0.062 A 
ATOM     25  C   UNL     1      30.414   5.791  48.169  0.00  0.00    -0.061 A 
ATOM     26  C   UNL     1      29.020   5.844  48.072  0.00  0.00    -0.055 A 
ENDBRANCH  20  21
ENDBRANCH  19  20
ENDBRANCH  16  19
ENDBRANCH   9  13
BRANCH   1  27
ATOM     27  O   UNL     1      19.214  -0.013  52.933  0.00  0.00    -0.492 OA
BRANCH  27  28
ATOM     28  C   UNL     1      18.265  -1.077  52.947  0.00  0.00    +0.091 C 
BRANCH  28  29
ATOM     29  C   UNL     1      17.222  -0.873  51.845  0.00  0.00    -0.006 C 
BRANCH  29  30
ATOM     30  C   UNL     1      17.640   0.151  50.767  0.00  0.00    -0.001 C 
BRANCH  30  31
ATOM     31  N   UNL     1      17.112   1.508  50.984  0.00  0.00    -0.314 N 
ATOM     32  H   UNL     1      17.851   2.085  51.385  0.00  0.00    +0.000 HD
ATOM     33  H   UNL     1      16.801   1.865  50.081  0.00  0.00    +0.000 HD
BRANCH  31  34
ATOM     34  C   UNL     1      15.958   1.530  51.891  0.00  0.00    +0.015 C 
BRANCH  34  35
ATOM     35  C   UNL     1      14.754   2.137  51.173  0.00  0.00    +0.078 C 
BRANCH  35  37
ATOM     36  C   UNL     1      13.338   4.164  52.701  0.00  0.00    +0.054 C 
ATOM     37  S   UNL     1      14.626   3.887  51.505  0.00  0.00    -0.033 S 
ATOM     38  O   UNL     1      14.293   4.624  50.240  0.00  0.00    -0.175 OA
ATOM     39  O   UNL     1      15.929   4.397  52.053  0.00  0.00    -0.175 OA
ENDBRANCH  35  37
ENDBRANCH  34  35
ENDBRANCH  31  34
ENDBRANCH  30  31
ENDBRANCH  29  30
ENDBRANCH  28  29
ENDBRANCH  27  28
ENDBRANCH   1  27
TORSDOF 12
ENDMDL
MODEL 8
REMARK VINA RESULT:    -7.349      2.536      2.842
REMARK INTER + INTRA:         -14.392
REMARK INTER:                 -13.443
REMARK INTRA:                  -0.949
REMARK UNBOUND:                -1.887
REMARK  Name = 
REMARK  13 active torsions:
REMARK  status: ('A' for Active; 'I' for Inactive)
REMARK    1  A    between atoms: C_1  and  S_2
REMARK    2  A    between atoms: S_2  and  C_5
REMARK    3  A    between atoms: C_5  and  C_6
REMARK    4  A    between atoms: C_6  and  N_7
REMARK    5  A    between atoms: N_7  and  C_8
REMARK    6  A    between atoms: C_8  and  C_9
REMARK    7  A    between atoms: C_9  and  C_10
REMARK    8  A    between atoms: C_10  and  O_11
REMARK    9  A    between atoms: O_11  and  C_12
REMARK   10  A    between atoms: N_20  and  C_21
REMARK   11  A    between atoms: C_24  and  O_25
REMARK   12  A    between atoms: O_25  and  C_26
REMARK   13  A    between atoms: C_26  and  C_27
REMARK                            x       y       z     vdW  Elec       q    Type
REMARK                         _______ _______ _______ _____ _____    ______ ____
ROOT
ATOM      1  C   UNL     1      25.999   1.574  51.631  0.00  0.00    +0.121 A 
ATOM      2  C   UNL     1      26.618   0.515  52.323  0.00  0.00    -0.018 A 
ATOM      3  C   UNL     1      25.870  -0.307  53.168  0.00  0.00    -0.032 A 
ATOM      4  C   UNL     1      24.502  -0.077  53.345  0.00  0.00    +0.076 A 
ATOM      5  N   UNL     1      23.781  -0.892  54.158  0.00  0.00    -0.235 NA
ATOM      6  C   UNL     1      22.454  -0.690  54.348  0.00  0.00    +0.119 A 
ATOM      7  N   UNL     1      21.827   0.344  53.732  0.00  0.00    -0.220 NA
ATOM      8  C   UNL     1      22.492   1.195  52.904  0.00  0.00    +0.134 A 
ATOM      9  N   UNL     1      21.791   2.314  52.335  0.00  0.00    -0.299 N 
ATOM     10  C   UNL     1      23.872   0.998  52.680  0.00  0.00    +0.044 A 
ATOM     11  C   UNL     1      24.629   1.806  51.810  0.00  0.00    -0.007 A 
ATOM     12  H   UNL     1      22.295   3.142  52.163  0.00  0.00    +0.000 HD
ENDROOT
BRANCH   9  13
ATOM     13  C   UNL     1      20.392   2.285  52.004  0.00  0.00    +0.033 A 
ATOM     14  C   UNL     1      19.624   3.461  51.967  0.00  0.00    -0.037 A 
ATOM     15  C   UNL     1      18.258   3.403  51.678  0.00  0.00    -0.018 A 
ATOM     16  C   UNL     1      17.634   2.175  51.429  0.00  0.00    +0.121 A 
ATOM     17  C   UNL     1      18.399   0.995  51.475  0.00  0.00    -0.018 A 
ATOM     18  C   UNL     1      19.764   1.052  51.770  0.00  0.00    -0.037 A 
BRANCH  16  19
ATOM     19  O   UNL     1      16.260   2.171  51.145  0.00  0.00    -0.487 OA
BRANCH  19  20
ATOM     20  C   UNL     1      15.287   1.438  51.885  0.00  0.00    +0.115 C 
BRANCH  20  21
ATOM     21  C   UNL     1      14.420   2.397  52.649  0.00  0.00    -0.010 A 
ATOM     22  C   UNL     1      13.103   2.039  52.981  0.00  0.00    -0.055 A 
ATOM     23  C   UNL     1      12.285   2.933  53.678  0.00  0.00    -0.061 A 
ATOM     24  C   UNL     1      12.773   4.191  54.044  0.00  0.00    -0.062 A 
ATOM     25  C   UNL     1      14.079   4.559  53.708  0.00  0.00    -0.061 A 
ATOM     26  C   UNL     1      14.901   3.668  53.010  0.00  0.00    -0.055 A 
ENDBRANCH  20  21
ENDBRANCH  19  20
ENDBRANCH  16  19
ENDBRANCH   9  13
BRANCH   1  27
ATOM     27  O   UNL     1      26.704   2.412  50.755  0.00  0.00    -0.492 OA
BRANCH  27  28
ATOM     28  C   UNL     1      26.185   2.916  49.526  0.00  0.00    +0.091 C 
BRANCH  28  29
ATOM     29  C   UNL     1      26.303   4.442  49.486  0.00  0.00    -0.006 C 
BRANCH  29  30
ATOM     30  C   UNL     1      27.564   4.956  48.758  0.00  0.00    -0.001 C 
BRANCH  30  31
ATOM     31  N   UNL     1      27.796   6.403  48.899  0.00  0.00    -0.314 N 
ATOM     32  H   UNL     1      27.819   6.634  49.893  0.00  0.00    +0.000 HD
ATOM     33  H   UNL     1      28.681   6.618  48.441  0.00  0.00    +0.000 HD
BRANCH  31  34
ATOM     34  C   UNL     1      26.754   7.210  48.254  0.00  0.00    +0.015 C 
BRANCH  34  35
ATOM     35  C   UNL     1      27.349   8.540  47.793  0.00  0.00    +0.078 C 
BRANCH  35  37
ATOM     36  C   UNL     1      28.368  11.083  48.762  0.00  0.00    +0.054 C 
ATOM     37  S   UNL     1      28.221   9.348  49.125  0.00  0.00    -0.033 S 
ATOM     38  O   UNL     1      29.593   8.755  49.271  0.00  0.00    -0.175 OA
ATOM     39  O   UNL     1      27.461   9.173  50.410  0.00  0.00    -0.175 OA
ENDBRANCH  35  37
ENDBRANCH  34  35
ENDBRANCH  31  34
ENDBRANCH  30  31
ENDBRANCH  29  30
ENDBRANCH  28  29
ENDBRANCH  27  28
ENDBRANCH   1  27
TORSDOF 12
ENDMDL
MODEL 9
REMARK VINA RESULT:    -7.162      4.040     10.679
REMARK INTER + INTRA:         -14.074
REMARK INTER:                 -12.956
REMARK INTRA:                  -1.118
REMARK UNBOUND:                -1.887
REMARK  Name = 
REMARK  13 active torsions:
REMARK  status: ('A' for Active; 'I' for Inactive)
REMARK    1  A    between atoms: C_1  and  S_2
REMARK    2  A    between atoms: S_2  and  C_5
REMARK    3  A    between atoms: C_5  and  C_6
REMARK    4  A    between atoms: C_6  and  N_7
REMARK    5  A    between atoms: N_7  and  C_8
REMARK    6  A    between atoms: C_8  and  C_9
REMARK    7  A    between atoms: C_9  and  C_10
REMARK    8  A    between atoms: C_10  and  O_11
REMARK    9  A    between atoms: O_11  and  C_12
REMARK   10  A    between atoms: N_20  and  C_21
REMARK   11  A    between atoms: C_24  and  O_25
REMARK   12  A    between atoms: O_25  and  C_26
REMARK   13  A    between atoms: C_26  and  C_27
REMARK                            x       y       z     vdW  Elec       q    Type
REMARK                         _______ _______ _______ _____ _____    ______ ____
ROOT
ATOM      1  C   UNL     1      22.260   0.944  51.573  0.00  0.00    +0.121 A 
ATOM      2  C   UNL     1      22.616   0.152  52.682  0.00  0.00    -0.018 A 
ATOM      3  C   UNL     1      23.908   0.215  53.208  0.00  0.00    -0.032 A 
ATOM      4  C   UNL     1      24.864   1.055  52.629  0.00  0.00    +0.076 A 
ATOM      5  N   UNL     1      26.114   1.120  53.158  0.00  0.00    -0.235 NA
ATOM      6  C   UNL     1      27.059   1.926  52.615  0.00  0.00    +0.119 A 
ATOM      7  N   UNL     1      26.770   2.676  51.521  0.00  0.00    -0.220 NA
ATOM      8  C   UNL     1      25.537   2.657  50.945  0.00  0.00    +0.134 A 
ATOM      9  N   UNL     1      25.309   3.417  49.747  0.00  0.00    -0.299 N 
ATOM     10  C   UNL     1      24.532   1.836  51.500  0.00  0.00    +0.044 A 
ATOM     11  C   UNL     1      23.218   1.784  50.992  0.00  0.00    -0.007 A 
ATOM     12  H   UNL     1      24.662   3.072  49.090  0.00  0.00    +0.000 HD
ENDROOT
BRANCH   9  13
ATOM     13  C   UNL     1      25.977   4.658  49.459  0.00  0.00    +0.033 A 
ATOM     14  C   UNL     1      25.393   5.896  49.778  0.00  0.00    -0.037 A 
ATOM     15  C   UNL     1      26.044   7.089  49.455  0.00  0.00    -0.018 A 
ATOM     16  C   UNL     1      27.283   7.070  48.803  0.00  0.00    +0.121 A 
ATOM     17  C   UNL     1      27.866   5.832  48.474  0.00  0.00    -0.018 A 
ATOM     18  C   UNL     1      27.211   4.638  48.791  0.00  0.00    -0.037 A 
BRANCH  16  19
ATOM     19  O   UNL     1      27.896   8.295  48.500  0.00  0.00    -0.487 OA
BRANCH  19  20
ATOM     20  C   UNL     1      29.281   8.570  48.688  0.00  0.00    +0.115 C 
BRANCH  20  21
ATOM     21  C   UNL     1      29.478  10.052  48.832  0.00  0.00    -0.010 A 
ATOM     22  C   UNL     1      28.384  10.921  48.690  0.00  0.00    -0.055 A 
ATOM     23  C   UNL     1      28.563  12.303  48.808  0.00  0.00    -0.061 A 
ATOM     24  C   UNL     1      29.834  12.826  49.063  0.00  0.00    -0.062 A 
ATOM     25  C   UNL     1      30.929  11.968  49.196  0.00  0.00    -0.061 A 
ATOM     26  C   UNL     1      30.755  10.586  49.078  0.00  0.00    -0.055 A 
ENDBRANCH  20  21
ENDBRANCH  19  20
ENDBRANCH  16  19
ENDBRANCH   9  13
BRANCH   1  27
ATOM     27  O   UNL     1      20.971   0.931  51.024  0.00  0.00    -0.492 OA
BRANCH  27  28
ATOM     28  C   UNL     1      19.773   1.142  51.769  0.00  0.00    +0.091 C 
BRANCH  28  29
ATOM     29  C   UNL     1      18.696   0.144  51.336  0.00  0.00    -0.006 C 
BRANCH  29  30
ATOM     30  C   UNL     1      17.305   0.778  51.115  0.00  0.00    -0.001 C 
BRANCH  30  31
ATOM     31  N   UNL     1      17.147   2.114  51.713  0.00  0.00    -0.314 N 
ATOM     32  H   UNL     1      16.742   2.009  52.643  0.00  0.00    +0.000 HD
ATOM     33  H   UNL     1      18.070   2.545  51.749  0.00  0.00    +0.000 HD
BRANCH  31  34
ATOM     34  C   UNL     1      16.278   2.992  50.920  0.00  0.00    +0.015 C 
BRANCH  34  35
ATOM     35  C   UNL     1      15.805   4.160  51.783  0.00  0.00    +0.078 C 
BRANCH  35  37
ATOM     36  C   UNL     1      12.909   3.946  51.675  0.00  0.00    +0.054 C 
ATOM     37  S   UNL     1      14.341   3.722  52.706  0.00  0.00    -0.033 S 
ATOM     38  O   UNL     1      14.219   4.601  53.919  0.00  0.00    -0.175 OA
ATOM     39  O   UNL     1      14.422   2.285  53.137  0.00  0.00    -0.175 OA
ENDBRANCH  35  37
ENDBRANCH  34  35
ENDBRANCH  31  34
ENDBRANCH  30  31
ENDBRANCH  29  30
ENDBRANCH  28  29
ENDBRANCH  27  28
ENDBRANCH   1  27
TORSDOF 12
ENDMDL
