MODEL 1
REMARK VINA RESULT:    -8.316      0.000      0.000
REMARK INTER + INTRA:         -13.437
REMARK INTER:                 -12.448
REMARK INTRA:                  -0.989
REMARK UNBOUND:                -0.989
REMARK  Name = 
REMARK  11 active torsions:
REMARK  status: ('A' for Active; 'I' for Inactive)
REMARK    1  A    between atoms: C_1  and  O_2
REMARK    2  A    between atoms: O_2  and  C_3
REMARK    3  A    between atoms: C_5  and  C_6
REMARK    4  A    between atoms: C_7  and  C_8
REMARK    5  A    between atoms: C_7  and  C_10
REMARK    6  A    between atoms: C_14  and  C_15
REMARK    7  A    between atoms: C_15  and  S_16
REMARK    8  A    between atoms: S_16  and  C_17
REMARK    9  A    between atoms: C_22  and  N_23
REMARK   10  A    between atoms: C_24  and  C_25
REMARK   11  A    between atoms: C_27  and  O_28
REMARK                            x       y       z     vdW  Elec       q    Type
REMARK                         _______ _______ _______ _____ _____    ______ ____
ROOT
ATOM      1  C   UNL     1      23.275   0.437  53.256  0.00  0.00    +0.162 A 
ATOM      2  C   UNL     1      24.338  -0.472  53.257  0.00  0.00    -0.009 A 
ATOM      3  C   UNL     1      25.581  -0.131  52.704  0.00  0.00    -0.020 A 
ATOM      4  C   UNL     1      25.742   1.129  52.115  0.00  0.00    -0.047 A 
ATOM      5  C   UNL     1      24.710   2.077  52.156  0.00  0.00    +0.008 A 
ATOM      6  C   UNL     1      23.474   1.742  52.745  0.00  0.00    +0.163 A 
ENDROOT
BRANCH   1   8
ATOM      7  C   UNL     1      21.904  -1.071  54.690  0.00  0.00    +0.079 C 
ATOM      8  O   UNL     1      22.043  -0.002  53.758  0.00  0.00    -0.491 OA
ENDBRANCH   1   8
BRANCH   3   9
ATOM      9  C   UNL     1      26.695  -1.106  52.634  0.00  0.00    -0.032 C 
ATOM     10  C   UNL     1      27.827  -1.031  53.363  0.00  0.00    +0.114 C 
BRANCH  10  11
ATOM     11  C   UNL     1      28.886  -2.061  53.234  0.00  0.00    +0.252 C 
ATOM     12  N   UNL     1      28.571  -3.441  53.028  0.00  0.00    -0.325 N 
ATOM     13  O   UNL     1      30.096  -1.721  53.335  0.00  0.00    -0.270 OA
ATOM     14  H   UNL     1      27.631  -3.724  52.946  0.00  0.00    +0.000 HD
ATOM     15  H   UNL     1      29.293  -4.107  52.966  0.00  0.00    +0.000 HD
ENDBRANCH  10  11
BRANCH  10  16
ATOM     16  C   UNL     1      28.095   0.109  54.211  0.00  0.00    +0.104 C 
ATOM     17  N   UNL     1      28.311   1.021  54.892  0.00  0.00    -0.191 NA
ENDBRANCH  10  16
ENDBRANCH   3   9
BRANCH   6  18
ATOM     18  O   UNL     1      22.482   2.721  52.837  0.00  0.00    -0.503 OA
ATOM     19  H   UNL     1      21.993   2.819  53.630  0.00  0.00    +0.000 HD
ENDBRANCH   6  18
BRANCH   5  20
ATOM     20  C   UNL     1      24.924   3.429  51.530  0.00  0.00    +0.027 C 
BRANCH  20  21
ATOM     21  S   UNL     1      24.314   3.401  49.812  0.00  0.00    -0.119 S 
BRANCH  21  22
ATOM     22  C   UNL     1      25.577   4.534  49.216  0.00  0.00    +0.029 A 
ATOM     23  C   UNL     1      26.886   4.060  49.061  0.00  0.00    -0.047 A 
ATOM     24  C   UNL     1      27.898   4.913  48.616  0.00  0.00    -0.061 A 
ATOM     25  C   UNL     1      27.607   6.245  48.322  0.00  0.00    -0.060 A 
ATOM     26  C   UNL     1      26.306   6.731  48.479  0.00  0.00    -0.039 A 
ATOM     27  C   UNL     1      25.280   5.887  48.941  0.00  0.00    +0.047 A 
BRANCH  27  28
ATOM     28  N   UNL     1      23.936   6.383  49.082  0.00  0.00    -0.285 N 
ATOM     29  C   UNL     1      23.444   7.017  50.272  0.00  0.00    +0.214 C 
ATOM     30  C   UNL     1      22.088   7.646  50.272  0.00  0.00    +0.012 C 
ATOM     31  O   UNL     1      24.111   6.984  51.341  0.00  0.00    -0.276 OA
ATOM     32  H   UNL     1      23.321   6.282  48.319  0.00  0.00    +0.000 HD
ENDBRANCH  27  28
ENDBRANCH  21  22
ENDBRANCH  20  21
ENDBRANCH   5  20
TORSDOF 9
ENDMDL
MODEL 2
REMARK VINA RESULT:    -7.759      1.508      2.674
REMARK INTER + INTRA:         -12.604
REMARK INTER:                 -11.775
REMARK INTRA:                  -0.829
REMARK UNBOUND:                -0.989
REMARK  Name = 
REMARK  11 active torsions:
REMARK  status: ('A' for Active; 'I' for Inactive)
REMARK    1  A    between atoms: C_1  and  O_2
REMARK    2  A    between atoms: O_2  and  C_3
REMARK    3  A    between atoms: C_5  and  C_6
REMARK    4  A    between atoms: C_7  and  C_8
REMARK    5  A    between atoms: C_7  and  C_10
REMARK    6  A    between atoms: C_14  and  C_15
REMARK    7  A    between atoms: C_15  and  S_16
REMARK    8  A    between atoms: S_16  and  C_17
REMARK    9  A    between atoms: C_22  and  N_23
REMARK   10  A    between atoms: C_24  and  C_25
REMARK   11  A    between atoms: C_27  and  O_28
REMARK                            x       y       z     vdW  Elec       q    Type
REMARK                         _______ _______ _______ _____ _____    ______ ____
ROOT
ATOM      1  C   UNL     1      23.029   0.398  53.546  0.00  0.00    +0.162 A 
ATOM      2  C   UNL     1      24.222  -0.319  53.682  0.00  0.00    -0.009 A 
ATOM      3  C   UNL     1      25.306  -0.087  52.824  0.00  0.00    -0.020 A 
ATOM      4  C   UNL     1      25.174   0.856  51.798  0.00  0.00    -0.047 A 
ATOM      5  C   UNL     1      24.009   1.629  51.680  0.00  0.00    +0.008 A 
ATOM      6  C   UNL     1      22.935   1.416  52.568  0.00  0.00    +0.163 A 
ENDROOT
BRANCH   1   8
ATOM      7  C   UNL     1      20.921  -0.842  54.027  0.00  0.00    +0.079 C 
ATOM      8  O   UNL     1      21.965   0.057  54.392  0.00  0.00    -0.491 OA
ENDBRANCH   1   8
BRANCH   3   9
ATOM      9  C   UNL     1      26.551  -0.887  52.910  0.00  0.00    -0.032 C 
ATOM     10  C   UNL     1      27.759  -0.392  53.248  0.00  0.00    +0.114 C 
BRANCH  10  11
ATOM     11  C   UNL     1      28.950  -1.271  53.319  0.00  0.00    +0.252 C 
ATOM     12  N   UNL     1      28.839  -2.695  53.242  0.00  0.00    -0.325 N 
ATOM     13  O   UNL     1      30.091  -0.758  53.477  0.00  0.00    -0.270 OA
ATOM     14  H   UNL     1      27.956  -3.114  53.118  0.00  0.00    +0.000 HD
ATOM     15  H   UNL     1      29.644  -3.257  53.311  0.00  0.00    +0.000 HD
ENDBRANCH  10  11
BRANCH  10  16
ATOM     16  C   UNL     1      27.956   1.027  53.448  0.00  0.00    +0.104 C 
ATOM     17  N   UNL     1      28.115   2.163  53.606  0.00  0.00    -0.191 NA
ENDBRANCH  10  16
ENDBRANCH   3   9
BRANCH   6  18
ATOM     18  O   UNL     1      21.812   2.241  52.478  0.00  0.00    -0.503 OA
ATOM     19  H   UNL     1      20.976   1.926  52.758  0.00  0.00    +0.000 HD
ENDBRANCH   6  18
BRANCH   5  20
ATOM     20  C   UNL     1      23.907   2.647  50.576  0.00  0.00    +0.027 C 
BRANCH  20  21
ATOM     21  S   UNL     1      25.433   3.645  50.533  0.00  0.00    -0.119 S 
BRANCH  21  22
ATOM     22  C   UNL     1      24.555   5.212  50.607  0.00  0.00    +0.029 A 
ATOM     23  C   UNL     1      23.213   5.212  51.010  0.00  0.00    -0.047 A 
ATOM     24  C   UNL     1      22.493   6.407  51.065  0.00  0.00    -0.061 A 
ATOM     25  C   UNL     1      23.110   7.610  50.719  0.00  0.00    -0.060 A 
ATOM     26  C   UNL     1      24.447   7.621  50.311  0.00  0.00    -0.039 A 
ATOM     27  C   UNL     1      25.180   6.423  50.235  0.00  0.00    +0.047 A 
BRANCH  27  28
ATOM     28  N   UNL     1      26.562   6.438  49.835  0.00  0.00    -0.285 N 
ATOM     29  C   UNL     1      27.010   6.871  48.542  0.00  0.00    +0.214 C 
ATOM     30  C   UNL     1      28.473   7.007  48.269  0.00  0.00    +0.012 C 
ATOM     31  O   UNL     1      26.186   7.067  47.608  0.00  0.00    -0.276 OA
ATOM     32  H   UNL     1      27.238   6.135  50.484  0.00  0.00    +0.000 HD
ENDBRANCH  27  28
ENDBRANCH  21  22
ENDBRANCH  20  21
ENDBRANCH   5  20
TORSDOF 9
ENDMDL
MODEL 3
REMARK VINA RESULT:    -7.702      1.692      2.518
REMARK INTER + INTRA:         -12.518
REMARK INTER:                 -11.127
REMARK INTRA:                  -1.391
REMARK UNBOUND:                -0.989
REMARK  Name = 
REMARK  11 active torsions:
REMARK  status: ('A' for Active; 'I' for Inactive)
REMARK    1  A    between atoms: C_1  and  O_2
REMARK    2  A    between atoms: O_2  and  C_3
REMARK    3  A    between atoms: C_5  and  C_6
REMARK    4  A    between atoms: C_7  and  C_8
REMARK    5  A    between atoms: C_7  and  C_10
REMARK    6  A    between atoms: C_14  and  C_15
REMARK    7  A    between atoms: C_15  and  S_16
REMARK    8  A    between atoms: S_16  and  C_17
REMARK    9  A    between atoms: C_22  and  N_23
REMARK   10  A    between atoms: C_24  and  C_25
REMARK   11  A    between atoms: C_27  and  O_28
REMARK                            x       y       z     vdW  Elec       q    Type
REMARK                         _______ _______ _______ _____ _____    ______ ____
ROOT
ATOM      1  C   UNL     1      23.270   0.425  53.305  0.00  0.00    +0.162 A 
ATOM      2  C   UNL     1      24.340  -0.474  53.261  0.00  0.00    -0.009 A 
ATOM      3  C   UNL     1      25.557  -0.118  52.661  0.00  0.00    -0.020 A 
ATOM      4  C   UNL     1      25.684   1.145  52.072  0.00  0.00    -0.047 A 
ATOM      5  C   UNL     1      24.645   2.084  52.157  0.00  0.00    +0.008 A 
ATOM      6  C   UNL     1      23.436   1.734  52.793  0.00  0.00    +0.163 A 
ENDROOT
BRANCH   1   8
ATOM      7  C   UNL     1      20.916  -0.359  53.075  0.00  0.00    +0.079 C 
ATOM      8  O   UNL     1      22.063  -0.028  53.853  0.00  0.00    -0.491 OA
ENDBRANCH   1   8
BRANCH   3   9
ATOM      9  C   UNL     1      26.677  -1.082  52.543  0.00  0.00    -0.032 C 
ATOM     10  C   UNL     1      27.784  -1.071  53.312  0.00  0.00    +0.114 C 
BRANCH  10  11
ATOM     11  C   UNL     1      28.851  -2.084  53.129  0.00  0.00    +0.252 C 
ATOM     12  N   UNL     1      28.558  -3.483  53.081  0.00  0.00    -0.325 N 
ATOM     13  O   UNL     1      30.052  -1.710  53.040  0.00  0.00    -0.270 OA
ATOM     14  H   UNL     1      27.625  -3.793  53.149  0.00  0.00    +0.000 HD
ATOM     15  H   UNL     1      29.287  -4.136  52.979  0.00  0.00    +0.000 HD
ENDBRANCH  10  11
BRANCH  10  16
ATOM     16  C   UNL     1      28.020  -0.009  54.265  0.00  0.00    +0.104 C 
ATOM     17  N   UNL     1      28.211   0.841  55.029  0.00  0.00    -0.191 NA
ENDBRANCH  10  16
ENDBRANCH   3   9
BRANCH   6  18
ATOM     18  O   UNL     1      22.440   2.703  52.928  0.00  0.00    -0.503 OA
ATOM     19  H   UNL     1      21.556   2.501  52.695  0.00  0.00    +0.000 HD
ENDBRANCH   6  18
BRANCH   5  20
ATOM     20  C   UNL     1      24.822   3.440  51.530  0.00  0.00    +0.027 C 
BRANCH  20  21
ATOM     21  S   UNL     1      25.767   3.269  49.980  0.00  0.00    -0.119 S 
BRANCH  21  22
ATOM     22  C   UNL     1      24.753   4.455  49.087  0.00  0.00    +0.029 A 
ATOM     23  C   UNL     1      25.220   5.768  48.946  0.00  0.00    -0.047 A 
ATOM     24  C   UNL     1      24.454   6.721  48.273  0.00  0.00    -0.061 A 
ATOM     25  C   UNL     1      23.217   6.368  47.735  0.00  0.00    -0.060 A 
ATOM     26  C   UNL     1      22.737   5.063  47.874  0.00  0.00    -0.039 A 
ATOM     27  C   UNL     1      23.491   4.096  48.564  0.00  0.00    +0.047 A 
BRANCH  27  28
ATOM     28  N   UNL     1      23.007   2.746  48.688  0.00  0.00    -0.285 N 
ATOM     29  C   UNL     1      21.877   2.379  49.493  0.00  0.00    +0.214 C 
ATOM     30  C   UNL     1      21.345   0.983  49.436  0.00  0.00    +0.012 C 
ATOM     31  O   UNL     1      21.373   3.200  50.307  0.00  0.00    -0.276 OA
ATOM     32  H   UNL     1      23.476   2.036  48.192  0.00  0.00    +0.000 HD
ENDBRANCH  27  28
ENDBRANCH  21  22
ENDBRANCH  20  21
ENDBRANCH   5  20
TORSDOF 9
ENDMDL
MODEL 4
REMARK VINA RESULT:    -7.698      2.633      4.456
REMARK INTER + INTRA:         -12.512
REMARK INTER:                 -11.713
REMARK INTRA:                  -0.799
REMARK UNBOUND:                -0.989
REMARK  Name = 
REMARK  11 active torsions:
REMARK  status: ('A' for Active; 'I' for Inactive)
REMARK    1  A    between atoms: C_1  and  O_2
REMARK    2  A    between atoms: O_2  and  C_3
REMARK    3  A    between atoms: C_5  and  C_6
REMARK    4  A    between atoms: C_7  and  C_8
REMARK    5  A    between atoms: C_7  and  C_10
REMARK    6  A    between atoms: C_14  and  C_15
REMARK    7  A    between atoms: C_15  and  S_16
REMARK    8  A    between atoms: S_16  and  C_17
REMARK    9  A    between atoms: C_22  and  N_23
REMARK   10  A    between atoms: C_24  and  C_25
REMARK   11  A    between atoms: C_27  and  O_28
REMARK                            x       y       z     vdW  Elec       q    Type
REMARK                         _______ _______ _______ _____ _____    ______ ____
ROOT
ATOM      1  C   UNL     1      26.434   0.670  53.011  0.00  0.00    +0.162 A 
ATOM      2  C   UNL     1      25.274   0.024  53.450  0.00  0.00    -0.009 A 
ATOM      3  C   UNL     1      24.013   0.614  53.286  0.00  0.00    -0.020 A 
ATOM      4  C   UNL     1      23.924   1.882  52.701  0.00  0.00    -0.047 A 
ATOM      5  C   UNL     1      25.067   2.522  52.199  0.00  0.00    +0.008 A 
ATOM      6  C   UNL     1      26.329   1.909  52.335  0.00  0.00    +0.163 A 
ENDROOT
BRANCH   1   8
ATOM      7  C   UNL     1      28.331   0.131  54.535  0.00  0.00    +0.079 C 
ATOM      8  O   UNL     1      27.663   0.053  53.278  0.00  0.00    -0.491 OA
ENDBRANCH   1   8
BRANCH   3   9
ATOM      9  C   UNL     1      22.781  -0.025  53.808  0.00  0.00    -0.032 C 
ATOM     10  C   UNL     1      21.688  -0.301  53.070  0.00  0.00    +0.114 C 
BRANCH  10  11
ATOM     11  C   UNL     1      20.502  -0.953  53.677  0.00  0.00    +0.252 C 
ATOM     12  N   UNL     1      20.624  -1.858  54.778  0.00  0.00    -0.325 N 
ATOM     13  O   UNL     1      19.358  -0.729  53.197  0.00  0.00    -0.270 OA
ATOM     14  H   UNL     1      21.511  -2.045  55.165  0.00  0.00    +0.000 HD
ATOM     15  H   UNL     1      19.823  -2.294  55.149  0.00  0.00    +0.000 HD
ENDBRANCH  10  11
BRANCH  10  16
ATOM     16  C   UNL     1      21.589   0.127  51.692  0.00  0.00    +0.104 C 
ATOM     17  N   UNL     1      21.511   0.469  50.588  0.00  0.00    -0.191 NA
ENDBRANCH  10  16
ENDBRANCH   3   9
BRANCH   6  18
ATOM     18  O   UNL     1      27.445   2.529  51.770  0.00  0.00    -0.503 OA
ATOM     19  H   UNL     1      28.301   2.181  51.921  0.00  0.00    +0.000 HD
ENDBRANCH   6  18
BRANCH   5  20
ATOM     20  C   UNL     1      24.933   3.878  51.559  0.00  0.00    +0.027 C 
BRANCH  20  21
ATOM     21  S   UNL     1      24.390   3.678  49.830  0.00  0.00    -0.119 S 
BRANCH  21  22
ATOM     22  C   UNL     1      25.596   4.847  49.188  0.00  0.00    +0.029 A 
ATOM     23  C   UNL     1      26.923   4.426  49.031  0.00  0.00    -0.047 A 
ATOM     24  C   UNL     1      27.891   5.309  48.550  0.00  0.00    -0.061 A 
ATOM     25  C   UNL     1      27.539   6.618  48.221  0.00  0.00    -0.060 A 
ATOM     26  C   UNL     1      26.220   7.051  48.379  0.00  0.00    -0.039 A 
ATOM     27  C   UNL     1      25.237   6.177  48.878  0.00  0.00    +0.047 A 
BRANCH  27  28
ATOM     28  N   UNL     1      23.874   6.617  49.020  0.00  0.00    -0.285 N 
ATOM     29  C   UNL     1      23.385   7.329  50.166  0.00  0.00    +0.214 C 
ATOM     30  C   UNL     1      21.999   7.890  50.157  0.00  0.00    +0.012 C 
ATOM     31  O   UNL     1      24.083   7.424  51.211  0.00  0.00    -0.276 OA
ATOM     32  H   UNL     1      23.243   6.420  48.290  0.00  0.00    +0.000 HD
ENDBRANCH  27  28
ENDBRANCH  21  22
ENDBRANCH  20  21
ENDBRANCH   5  20
TORSDOF 9
ENDMDL
MODEL 5
REMARK VINA RESULT:    -7.626      3.041      7.096
REMARK INTER + INTRA:         -12.405
REMARK INTER:                 -11.539
REMARK INTRA:                  -0.867
REMARK UNBOUND:                -0.989
REMARK  Name = 
REMARK  11 active torsions:
REMARK  status: ('A' for Active; 'I' for Inactive)
REMARK    1  A    between atoms: C_1  and  O_2
REMARK    2  A    between atoms: O_2  and  C_3
REMARK    3  A    between atoms: C_5  and  C_6
REMARK    4  A    between atoms: C_7  and  C_8
REMARK    5  A    between atoms: C_7  and  C_10
REMARK    6  A    between atoms: C_14  and  C_15
REMARK    7  A    between atoms: C_15  and  S_16
REMARK    8  A    between atoms: S_16  and  C_17
REMARK    9  A    between atoms: C_22  and  N_23
REMARK   10  A    between atoms: C_24  and  C_25
REMARK   11  A    between atoms: C_27  and  O_28
REMARK                            x       y       z     vdW  Elec       q    Type
REMARK                         _______ _______ _______ _____ _____    ______ ____
ROOT
ATOM      1  C   UNL     1      24.643   3.216  50.097  0.00  0.00    +0.162 A 
ATOM      2  C   UNL     1      25.702   3.103  51.003  0.00  0.00    -0.009 A 
ATOM      3  C   UNL     1      25.613   2.252  52.115  0.00  0.00    -0.020 A 
ATOM      4  C   UNL     1      24.432   1.533  52.331  0.00  0.00    -0.047 A 
ATOM      5  C   UNL     1      23.381   1.585  51.403  0.00  0.00    +0.008 A 
ATOM      6  C   UNL     1      23.489   2.414  50.268  0.00  0.00    +0.163 A 
ENDROOT
BRANCH   1   8
ATOM      7  C   UNL     1      24.217   5.453  49.084  0.00  0.00    +0.079 C 
ATOM      8  O   UNL     1      24.775   4.142  49.054  0.00  0.00    -0.491 OA
ENDBRANCH   1   8
BRANCH   3   9
ATOM      9  C   UNL     1      26.698   2.174  53.122  0.00  0.00    -0.032 C 
ATOM     10  C   UNL     1      27.450   1.081  53.356  0.00  0.00    +0.114 C 
BRANCH  10  11
ATOM     11  C   UNL     1      28.523   1.097  54.380  0.00  0.00    +0.252 C 
ATOM     12  N   UNL     1      29.315   2.264  54.619  0.00  0.00    -0.325 N 
ATOM     13  O   UNL     1      28.765   0.051  55.041  0.00  0.00    -0.270 OA
ATOM     14  H   UNL     1      29.140   3.091  54.111  0.00  0.00    +0.000 HD
ATOM     15  H   UNL     1      30.035   2.242  55.290  0.00  0.00    +0.000 HD
ENDBRANCH  10  11
BRANCH  10  16
ATOM     16  C   UNL     1      27.168  -0.176  52.698  0.00  0.00    +0.104 C 
ATOM     17  N   UNL     1      26.941  -1.181  52.169  0.00  0.00    -0.191 NA
ENDBRANCH  10  16
ENDBRANCH   3   9
BRANCH   6  18
ATOM     18  O   UNL     1      22.462   2.400  49.323  0.00  0.00    -0.503 OA
ATOM     19  H   UNL     1      21.966   3.178  49.158  0.00  0.00    +0.000 HD
ENDBRANCH   6  18
BRANCH   5  20
ATOM     20  C   UNL     1      22.133   0.784  51.657  0.00  0.00    +0.027 C 
BRANCH  20  21
ATOM     21  S   UNL     1      20.924   1.816  52.551  0.00  0.00    -0.119 S 
BRANCH  21  22
ATOM     22  C   UNL     1      19.676   0.522  52.606  0.00  0.00    +0.029 A 
ATOM     23  C   UNL     1      18.658   0.529  51.643  0.00  0.00    -0.047 A 
ATOM     24  C   UNL     1      17.663  -0.449  51.662  0.00  0.00    -0.061 A 
ATOM     25  C   UNL     1      17.679  -1.441  52.642  0.00  0.00    -0.060 A 
ATOM     26  C   UNL     1      18.685  -1.455  53.611  0.00  0.00    -0.039 A 
ATOM     27  C   UNL     1      19.686  -0.466  53.614  0.00  0.00    +0.047 A 
BRANCH  27  28
ATOM     28  N   UNL     1      20.735  -0.493  54.599  0.00  0.00    -0.285 N 
ATOM     29  C   UNL     1      21.907  -1.315  54.489  0.00  0.00    +0.214 C 
ATOM     30  C   UNL     1      23.019  -1.159  55.476  0.00  0.00    +0.012 C 
ATOM     31  O   UNL     1      21.978  -2.220  53.614  0.00  0.00    -0.276 OA
ATOM     32  H   UNL     1      20.644   0.084  55.392  0.00  0.00    +0.000 HD
ENDBRANCH  27  28
ENDBRANCH  21  22
ENDBRANCH  20  21
ENDBRANCH   5  20
TORSDOF 9
ENDMDL
MODEL 6
REMARK VINA RESULT:    -7.399      3.666      7.463
REMARK INTER + INTRA:         -12.065
REMARK INTER:                 -10.772
REMARK INTRA:                  -1.293
REMARK UNBOUND:                -0.989
REMARK  Name = 
REMARK  11 active torsions:
REMARK  status: ('A' for Active; 'I' for Inactive)
REMARK    1  A    between atoms: C_1  and  O_2
REMARK    2  A    between atoms: O_2  and  C_3
REMARK    3  A    between atoms: C_5  and  C_6
REMARK    4  A    between atoms: C_7  and  C_8
REMARK    5  A    between atoms: C_7  and  C_10
REMARK    6  A    between atoms: C_14  and  C_15
REMARK    7  A    between atoms: C_15  and  S_16
REMARK    8  A    between atoms: S_16  and  C_17
REMARK    9  A    between atoms: C_22  and  N_23
REMARK   10  A    between atoms: C_24  and  C_25
REMARK   11  A    between atoms: C_27  and  O_28
REMARK                            x       y       z     vdW  Elec       q    Type
REMARK                         _______ _______ _______ _____ _____    ______ ____
ROOT
ATOM      1  C   UNL     1      22.686   2.569  48.799  0.00  0.00    +0.162 A 
ATOM      2  C   UNL     1      21.735   1.733  49.392  0.00  0.00    -0.009 A 
ATOM      3  C   UNL     1      21.902   1.268  50.704  0.00  0.00    -0.020 A 
ATOM      4  C   UNL     1      23.055   1.624  51.413  0.00  0.00    -0.047 A 
ATOM      5  C   UNL     1      23.992   2.509  50.860  0.00  0.00    +0.008 A 
ATOM      6  C   UNL     1      23.802   3.003  49.553  0.00  0.00    +0.163 A 
ENDROOT
BRANCH   1   8
ATOM      7  C   UNL     1      21.693   4.040  47.049  0.00  0.00    +0.079 C 
ATOM      8  O   UNL     1      22.488   2.932  47.460  0.00  0.00    -0.491 OA
ENDBRANCH   1   8
BRANCH   3   9
ATOM      9  C   UNL     1      20.939   0.325  51.323  0.00  0.00    -0.032 C 
ATOM     10  C   UNL     1      19.709   0.661  51.759  0.00  0.00    +0.114 C 
BRANCH  10  11
ATOM     11  C   UNL     1      18.808  -0.353  52.357  0.00  0.00    +0.252 C 
ATOM     12  N   UNL     1      19.075  -0.934  53.636  0.00  0.00    -0.325 N 
ATOM     13  O   UNL     1      17.792  -0.736  51.715  0.00  0.00    -0.270 OA
ATOM     14  H   UNL     1      19.864  -0.647  54.152  0.00  0.00    +0.000 HD
ATOM     15  H   UNL     1      18.472  -1.621  54.002  0.00  0.00    +0.000 HD
ENDBRANCH  10  11
BRANCH  10  16
ATOM     16  C   UNL     1      19.266   2.039  51.760  0.00  0.00    +0.104 C 
ATOM     17  N   UNL     1      18.912   3.141  51.762  0.00  0.00    -0.191 NA
ENDBRANCH  10  16
ENDBRANCH   3   9
BRANCH   6  18
ATOM     18  O   UNL     1      24.709   3.935  49.046  0.00  0.00    -0.503 OA
ATOM     19  H   UNL     1      24.469   4.475  48.320  0.00  0.00    +0.000 HD
ENDBRANCH   6  18
BRANCH   5  20
ATOM     20  C   UNL     1      25.212   2.885  51.657  0.00  0.00    +0.027 C 
BRANCH  20  21
ATOM     21  S   UNL     1      24.964   2.410  53.400  0.00  0.00    -0.119 S 
BRANCH  21  22
ATOM     22  C   UNL     1      26.273   1.178  53.377  0.00  0.00    +0.029 A 
ATOM     23  C   UNL     1      27.605   1.613  53.403  0.00  0.00    -0.047 A 
ATOM     24  C   UNL     1      28.650   0.687  53.371  0.00  0.00    -0.061 A 
ATOM     25  C   UNL     1      28.371  -0.679  53.315  0.00  0.00    -0.060 A 
ATOM     26  C   UNL     1      27.046  -1.123  53.282  0.00  0.00    -0.039 A 
ATOM     27  C   UNL     1      25.983  -0.202  53.298  0.00  0.00    +0.047 A 
BRANCH  27  28
ATOM     28  N   UNL     1      24.619  -0.661  53.286  0.00  0.00    -0.285 N 
ATOM     29  C   UNL     1      23.890  -1.014  54.471  0.00  0.00    +0.214 C 
ATOM     30  C   UNL     1      22.431  -1.325  54.381  0.00  0.00    +0.012 C 
ATOM     31  O   UNL     1      24.482  -1.139  55.577  0.00  0.00    -0.276 OA
ATOM     32  H   UNL     1      24.161  -0.737  52.418  0.00  0.00    +0.000 HD
ENDBRANCH  27  28
ENDBRANCH  21  22
ENDBRANCH  20  21
ENDBRANCH   5  20
TORSDOF 9
ENDMDL
MODEL 7
REMARK VINA RESULT:    -7.353      3.251      6.387
REMARK INTER + INTRA:         -11.996
REMARK INTER:                 -10.460
REMARK INTRA:                  -1.536
REMARK UNBOUND:                -0.989
REMARK  Name = 
REMARK  11 active torsions:
REMARK  status: ('A' for Active; 'I' for Inactive)
REMARK    1  A    between atoms: C_1  and  O_2
REMARK    2  A    between atoms: O_2  and  C_3
REMARK    3  A    between atoms: C_5  and  C_6
REMARK    4  A    between atoms: C_7  and  C_8
REMARK    5  A    between atoms: C_7  and  C_10
REMARK    6  A    between atoms: C_14  and  C_15
REMARK    7  A    between atoms: C_15  and  S_16
REMARK    8  A    between atoms: S_16  and  C_17
REMARK    9  A    between atoms: C_22  and  N_23
REMARK   10  A    between atoms: C_24  and  C_25
REMARK   11  A    between atoms: C_27  and  O_28
REMARK                            x       y       z     vdW  Elec       q    Type
REMARK                         _______ _______ _______ _____ _____    ______ ____
ROOT
ATOM      1  C   UNL     1      20.723  -0.534  53.316  0.00  0.00    +0.162 A 
ATOM      2  C   UNL     1      20.611   0.044  52.048  0.00  0.00    -0.009 A 
ATOM      3  C   UNL     1      21.741   0.524  51.371  0.00  0.00    -0.020 A 
ATOM      4  C   UNL     1      22.992   0.450  51.993  0.00  0.00    -0.047 A 
ATOM      5  C   UNL     1      23.137  -0.179  53.239  0.00  0.00    +0.008 A 
ATOM      6  C   UNL     1      22.003  -0.692  53.900  0.00  0.00    +0.163 A 
ENDROOT
BRANCH   1   8
ATOM      7  C   UNL     1      18.313  -1.169  53.283  0.00  0.00    +0.079 C 
ATOM      8  O   UNL     1      19.542  -0.921  53.962  0.00  0.00    -0.491 OA
ENDBRANCH   1   8
BRANCH   3   9
ATOM      9  C   UNL     1      21.630   1.202  50.057  0.00  0.00    -0.032 C 
ATOM     10  C   UNL     1      21.499   2.533  49.888  0.00  0.00    +0.114 C 
BRANCH  10  11
ATOM     11  C   UNL     1      21.405   3.125  48.533  0.00  0.00    +0.252 C 
ATOM     12  N   UNL     1      20.585   4.266  48.266  0.00  0.00    -0.325 N 
ATOM     13  O   UNL     1      22.043   2.598  47.580  0.00  0.00    -0.270 OA
ATOM     14  H   UNL     1      20.080   4.691  48.998  0.00  0.00    +0.000 HD
ATOM     15  H   UNL     1      20.524   4.627  47.353  0.00  0.00    +0.000 HD
ENDBRANCH  10  11
BRANCH  10  16
ATOM     16  C   UNL     1      21.336   3.417  51.022  0.00  0.00    +0.104 C 
ATOM     17  N   UNL     1      21.206   4.125  51.929  0.00  0.00    -0.191 NA
ENDBRANCH  10  16
ENDBRANCH   3   9
BRANCH   6  18
ATOM     18  O   UNL     1      22.177  -1.374  55.106  0.00  0.00    -0.503 OA
ATOM     19  H   UNL     1      22.951  -1.881  55.250  0.00  0.00    +0.000 HD
ENDBRANCH   6  18
BRANCH   5  20
ATOM     20  C   UNL     1      24.500  -0.258  53.871  0.00  0.00    +0.027 C 
BRANCH  20  21
ATOM     21  S   UNL     1      25.712  -0.812  52.627  0.00  0.00    -0.119 S 
BRANCH  21  22
ATOM     22  C   UNL     1      27.013   0.271  53.233  0.00  0.00    +0.029 A 
ATOM     23  C   UNL     1      27.697  -0.089  54.401  0.00  0.00    -0.047 A 
ATOM     24  C   UNL     1      28.703   0.733  54.912  0.00  0.00    -0.061 A 
ATOM     25  C   UNL     1      29.033   1.920  54.258  0.00  0.00    -0.060 A 
ATOM     26  C   UNL     1      28.353   2.293  53.095  0.00  0.00    -0.039 A 
ATOM     27  C   UNL     1      27.326   1.482  52.578  0.00  0.00    +0.047 A 
BRANCH  27  28
ATOM     28  N   UNL     1      26.642   1.856  51.368  0.00  0.00    -0.285 N 
ATOM     29  C   UNL     1      25.539   2.773  51.331  0.00  0.00    +0.214 C 
ATOM     30  C   UNL     1      24.994   3.228  50.016  0.00  0.00    +0.012 C 
ATOM     31  O   UNL     1      24.974   3.143  52.396  0.00  0.00    -0.276 OA
ATOM     32  H   UNL     1      26.947   1.460  50.519  0.00  0.00    +0.000 HD
ENDBRANCH  27  28
ENDBRANCH  21  22
ENDBRANCH  20  21
ENDBRANCH   5  20
TORSDOF 9
ENDMDL
MODEL 8
REMARK VINA RESULT:    -7.251      2.498      8.446
REMARK INTER + INTRA:         -11.844
REMARK INTER:                 -10.777
REMARK INTRA:                  -1.067
REMARK UNBOUND:                -0.989
REMARK  Name = 
REMARK  11 active torsions:
REMARK  status: ('A' for Active; 'I' for Inactive)
REMARK    1  A    between atoms: C_1  and  O_2
REMARK    2  A    between atoms: O_2  and  C_3
REMARK    3  A    between atoms: C_5  and  C_6
REMARK    4  A    between atoms: C_7  and  C_8
REMARK    5  A    between atoms: C_7  and  C_10
REMARK    6  A    between atoms: C_14  and  C_15
REMARK    7  A    between atoms: C_15  and  S_16
REMARK    8  A    between atoms: S_16  and  C_17
REMARK    9  A    between atoms: C_22  and  N_23
REMARK   10  A    between atoms: C_24  and  C_25
REMARK   11  A    between atoms: C_27  and  O_28
REMARK                            x       y       z     vdW  Elec       q    Type
REMARK                         _______ _______ _______ _____ _____    ______ ____
ROOT
ATOM      1  C   UNL     1      26.036   5.961  48.763  0.00  0.00    +0.162 A 
ATOM      2  C   UNL     1      24.643   6.082  48.772  0.00  0.00    -0.009 A 
ATOM      3  C   UNL     1      23.830   5.025  49.205  0.00  0.00    -0.020 A 
ATOM      4  C   UNL     1      24.427   3.822  49.601  0.00  0.00    -0.047 A 
ATOM      5  C   UNL     1      25.823   3.699  49.656  0.00  0.00    +0.008 A 
ATOM      6  C   UNL     1      26.638   4.777  49.254  0.00  0.00    +0.163 A 
ENDROOT
BRANCH   1   8
ATOM      7  C   UNL     1      26.936   8.280  48.912  0.00  0.00    +0.079 C 
ATOM      8  O   UNL     1      26.779   7.031  48.246  0.00  0.00    -0.491 OA
ENDBRANCH   1   8
BRANCH   3   9
ATOM      9  C   UNL     1      22.351   5.111  49.156  0.00  0.00    -0.032 C 
ATOM     10  C   UNL     1      21.549   5.177  50.237  0.00  0.00    +0.114 C 
BRANCH  10  11
ATOM     11  C   UNL     1      20.077   5.272  50.092  0.00  0.00    +0.252 C 
ATOM     12  N   UNL     1      19.456   6.391  49.451  0.00  0.00    -0.325 N 
ATOM     13  O   UNL     1      19.347   4.360  50.566  0.00  0.00    -0.270 OA
ATOM     14  H   UNL     1      20.011   7.113  49.075  0.00  0.00    +0.000 HD
ATOM     15  H   UNL     1      18.475   6.439  49.385  0.00  0.00    +0.000 HD
ENDBRANCH  10  11
BRANCH  10  16
ATOM     16  C   UNL     1      22.086   5.047  51.574  0.00  0.00    +0.104 C 
ATOM     17  N   UNL     1      22.517   4.945  52.644  0.00  0.00    -0.191 NA
ENDBRANCH  10  16
ENDBRANCH   3   9
BRANCH   6  18
ATOM     18  O   UNL     1      28.023   4.660  49.380  0.00  0.00    -0.503 OA
ATOM     19  H   UNL     1      28.581   5.349  49.079  0.00  0.00    +0.000 HD
ENDBRANCH   6  18
BRANCH   5  20
ATOM     20  C   UNL     1      26.432   2.398  50.105  0.00  0.00    +0.027 C 
BRANCH  20  21
ATOM     21  S   UNL     1      27.001   2.561  51.829  0.00  0.00    -0.119 S 
BRANCH  21  22
ATOM     22  C   UNL     1      25.773   1.416  52.472  0.00  0.00    +0.029 A 
ATOM     23  C   UNL     1      24.444   1.847  52.579  0.00  0.00    -0.047 A 
ATOM     24  C   UNL     1      23.464   0.992  53.087  0.00  0.00    -0.061 A 
ATOM     25  C   UNL     1      23.806  -0.299  53.491  0.00  0.00    -0.060 A 
ATOM     26  C   UNL     1      25.129  -0.737  53.394  0.00  0.00    -0.039 A 
ATOM     27  C   UNL     1      26.130   0.118  52.898  0.00  0.00    +0.047 A 
BRANCH  27  28
ATOM     28  N   UNL     1      27.489  -0.341  52.779  0.00  0.00    -0.285 N 
ATOM     29  C   UNL     1      28.453  -0.252  53.838  0.00  0.00    +0.214 C 
ATOM     30  C   UNL     1      29.791  -0.900  53.682  0.00  0.00    +0.012 C 
ATOM     31  O   UNL     1      28.214   0.432  54.870  0.00  0.00    -0.276 OA
ATOM     32  H   UNL     1      27.772  -0.740  51.924  0.00  0.00    +0.000 HD
ENDBRANCH  27  28
ENDBRANCH  21  22
ENDBRANCH  20  21
ENDBRANCH   5  20
TORSDOF 9
ENDMDL
MODEL 9
REMARK VINA RESULT:    -7.132      2.469      8.233
REMARK INTER + INTRA:         -11.665
REMARK INTER:                 -10.818
REMARK INTRA:                  -0.848
REMARK UNBOUND:                -0.989
REMARK  Name = 
REMARK  11 active torsions:
REMARK  status: ('A' for Active; 'I' for Inactive)
REMARK    1  A    between atoms: C_1  and  O_2
REMARK    2  A    between atoms: O_2  and  C_3
REMARK    3  A    between atoms: C_5  and  C_6
REMARK    4  A    between atoms: C_7  and  C_8
REMARK    5  A    between atoms: C_7  and  C_10
REMARK    6  A    between atoms: C_14  and  C_15
REMARK    7  A    between atoms: C_15  and  S_16
REMARK    8  A    between atoms: S_16  and  C_17
REMARK    9  A    between atoms: C_22  and  N_23
REMARK   10  A    between atoms: C_24  and  C_25
REMARK   11  A    between atoms: C_27  and  O_28
REMARK                            x       y       z     vdW  Elec       q    Type
REMARK                         _______ _______ _______ _____ _____    ______ ____
ROOT
ATOM      1  C   UNL     1      21.389   6.400  50.410  0.00  0.00    +0.162 A 
ATOM      2  C   UNL     1      22.396   7.352  50.232  0.00  0.00    -0.009 A 
ATOM      3  C   UNL     1      23.670   7.170  50.791  0.00  0.00    -0.020 A 
ATOM      4  C   UNL     1      23.918   6.030  51.564  0.00  0.00    -0.047 A 
ATOM      5  C   UNL     1      22.941   5.033  51.706  0.00  0.00    +0.008 A 
ATOM      6  C   UNL     1      21.674   5.204  51.113  0.00  0.00    +0.163 A 
ENDROOT
BRANCH   1   8
ATOM      7  C   UNL     1      19.882   6.988  48.514  0.00  0.00    +0.079 C 
ATOM      8  O   UNL     1      20.121   6.687  49.886  0.00  0.00    -0.491 OA
ENDBRANCH   1   8
BRANCH   3   9
ATOM      9  C   UNL     1      24.727   8.202  50.670  0.00  0.00    -0.032 C 
ATOM     10  C   UNL     1      25.859   8.061  49.954  0.00  0.00    +0.114 C 
BRANCH  10  11
ATOM     11  C   UNL     1      26.859   9.153  49.882  0.00  0.00    +0.252 C 
ATOM     12  N   UNL     1      27.593   9.577  51.034  0.00  0.00    -0.325 N 
ATOM     13  O   UNL     1      27.051   9.747  48.785  0.00  0.00    -0.270 OA
ATOM     14  H   UNL     1      27.455   9.125  51.899  0.00  0.00    +0.000 HD
ATOM     15  H   UNL     1      28.236  10.318  50.964  0.00  0.00    +0.000 HD
ENDBRANCH  10  11
BRANCH  10  16
ATOM     16  C   UNL     1      26.191   6.803  49.321  0.00  0.00    +0.104 C 
ATOM     17  N   UNL     1      26.455   5.796  48.813  0.00  0.00    -0.191 NA
ENDBRANCH  10  16
ENDBRANCH   3   9
BRANCH   6  18
ATOM     18  O   UNL     1      20.740   4.172  51.208  0.00  0.00    -0.503 OA
ATOM     19  H   UNL     1      20.310   4.003  52.023  0.00  0.00    +0.000 HD
ENDBRANCH   6  18
BRANCH   5  20
ATOM     20  C   UNL     1      23.248   3.811  52.529  0.00  0.00    +0.027 C 
BRANCH  20  21
ATOM     21  S   UNL     1      24.297   2.678  51.560  0.00  0.00    -0.119 S 
BRANCH  21  22
ATOM     22  C   UNL     1      23.574   1.197  52.278  0.00  0.00    +0.029 A 
ATOM     23  C   UNL     1      22.271   0.839  51.908  0.00  0.00    -0.047 A 
ATOM     24  C   UNL     1      21.669  -0.296  52.456  0.00  0.00    -0.061 A 
ATOM     25  C   UNL     1      22.366  -1.079  53.377  0.00  0.00    -0.060 A 
ATOM     26  C   UNL     1      23.663  -0.727  53.758  0.00  0.00    -0.039 A 
ATOM     27  C   UNL     1      24.277   0.421  53.226  0.00  0.00    +0.047 A 
BRANCH  27  28
ATOM     28  N   UNL     1      25.621   0.771  53.602  0.00  0.00    -0.285 N 
ATOM     29  C   UNL     1      26.788   0.287  52.920  0.00  0.00    +0.214 C 
ATOM     30  C   UNL     1      28.135   0.829  53.276  0.00  0.00    +0.012 C 
ATOM     31  O   UNL     1      26.699  -0.644  52.075  0.00  0.00    -0.276 OA
ATOM     32  H   UNL     1      25.748   1.375  54.370  0.00  0.00    +0.000 HD
ENDBRANCH  27  28
ENDBRANCH  21  22
ENDBRANCH  20  21
ENDBRANCH   5  20
TORSDOF 9
ENDMDL
