MODEL 1
REMARK VINA RESULT:    -8.457      0.000      0.000
REMARK INTER + INTRA:         -12.205
REMARK INTER:                 -11.423
REMARK INTRA:                  -0.782
REMARK UNBOUND:                -0.782
REMARK  Name = 
REMARK  7 active torsions:
REMARK  status: ('A' for Active; 'I' for Inactive)
REMARK    1  A    between atoms: C_1  and  C_2
REMARK    2  A    between atoms: C_2  and  O_3
REMARK    3  A    between atoms: O_3  and  C_4
REMARK    4  A    between atoms: C_4  and  C_6
REMARK    5  A    between atoms: C_7  and  C_8
REMARK    6  A    between atoms: N_10  and  C_11
REMARK    7  A    between atoms: N_19  and  C_20
REMARK                            x       y       z     vdW  Elec       q    Type
REMARK                         _______ _______ _______ _____ _____    ______ ____
ROOT
ATOM      1  C   UNL     1      23.772  -0.539  53.611  0.00  0.00    +0.034 A 
ATOM      2  C   UNL     1      24.512  -0.942  54.737  0.00  0.00    -0.038 A 
ATOM      3  C   UNL     1      25.789  -0.426  54.966  0.00  0.00    -0.034 A 
ATOM      4  C   UNL     1      26.343   0.503  54.079  0.00  0.00    +0.076 A 
ATOM      5  N   UNL     1      27.576   1.015  54.323  0.00  0.00    -0.235 NA
ATOM      6  C   UNL     1      28.132   1.926  53.487  0.00  0.00    +0.119 A 
ATOM      7  N   UNL     1      27.460   2.335  52.382  0.00  0.00    -0.220 NA
ATOM      8  C   UNL     1      26.219   1.863  52.082  0.00  0.00    +0.134 A 
ATOM      9  N   UNL     1      25.578   2.291  50.868  0.00  0.00    -0.299 N 
ATOM     10  C   UNL     1      25.615   0.919  52.942  0.00  0.00    +0.042 A 
ATOM     11  C   UNL     1      24.321   0.406  52.729  0.00  0.00    -0.028 A 
ATOM     12  H   UNL     1      24.979   1.659  50.408  0.00  0.00    +0.000 HD
ENDROOT
BRANCH   9  13
ATOM     13  C   UNL     1      25.769   3.594  50.290  0.00  0.00    +0.033 A 
ATOM     14  C   UNL     1      26.780   3.832  49.340  0.00  0.00    -0.040 A 
ATOM     15  C   UNL     1      26.962   5.112  48.809  0.00  0.00    -0.059 A 
ATOM     16  C   UNL     1      26.147   6.167  49.227  0.00  0.00    -0.048 A 
ATOM     17  C   UNL     1      25.153   5.946  50.185  0.00  0.00    +0.020 A 
ATOM     18 BR   UNL     1      24.049   7.391  50.767  0.00  0.00    -0.050 Br
ATOM     19  C   UNL     1      24.969   4.665  50.719  0.00  0.00    -0.027 A 
ENDBRANCH   9  13
BRANCH   1  22
ATOM     20  C   UNL     1      21.277  -0.525  54.065  0.00  0.00    +0.241 C 
ATOM     21  O   UNL     1      21.401   0.038  55.186  0.00  0.00    -0.270 OA
ATOM     22  N   UNL     1      22.438  -1.027  53.381  0.00  0.00    -0.282 N 
ATOM     23  H   UNL     1      22.313  -1.746  52.720  0.00  0.00    +0.000 HD
BRANCH  20  25
ATOM     24  C   UNL     1      19.520  -0.135  52.369  0.00  0.00    +0.027 C 
ATOM     25  C   UNL     1      19.920  -0.701  53.514  0.00  0.00    +0.007 C 
BRANCH  24  26
ATOM     26  C   UNL     1      18.154  -0.310  51.849  0.00  0.00    +0.332 C 
ATOM     27  O   UNL     1      17.936  -0.115  50.623  0.00  0.00    -0.246 OA
BRANCH  26  28
ATOM     28  O   UNL     1      17.114  -0.698  52.703  0.00  0.00    -0.462 OA
BRANCH  28  30
ATOM     29  C   UNL     1      17.120  -3.041  53.328  0.00  0.00    -0.031 C 
ATOM     30  C   UNL     1      16.406  -1.928  52.572  0.00  0.00    +0.090 C 
ENDBRANCH  28  30
ENDBRANCH  26  28
ENDBRANCH  24  26
ENDBRANCH  20  25
ENDBRANCH   1  22
TORSDOF 6
ENDMDL
MODEL 2
REMARK VINA RESULT:    -8.036      0.968      1.642
REMARK INTER + INTRA:         -11.637
REMARK INTER:                 -10.987
REMARK INTRA:                  -0.650
REMARK UNBOUND:                -0.782
REMARK  Name = 
REMARK  7 active torsions:
REMARK  status: ('A' for Active; 'I' for Inactive)
REMARK    1  A    between atoms: C_1  and  C_2
REMARK    2  A    between atoms: C_2  and  O_3
REMARK    3  A    between atoms: O_3  and  C_4
REMARK    4  A    between atoms: C_4  and  C_6
REMARK    5  A    between atoms: C_7  and  C_8
REMARK    6  A    between atoms: N_10  and  C_11
REMARK    7  A    between atoms: N_19  and  C_20
REMARK                            x       y       z     vdW  Elec       q    Type
REMARK                         _______ _______ _______ _____ _____    ______ ____
ROOT
ATOM      1  C   UNL     1      23.674  -0.477  53.505  0.00  0.00    +0.034 A 
ATOM      2  C   UNL     1      24.407  -0.906  54.626  0.00  0.00    -0.038 A 
ATOM      3  C   UNL     1      25.697  -0.422  54.855  0.00  0.00    -0.034 A 
ATOM      4  C   UNL     1      26.270   0.499  53.974  0.00  0.00    +0.076 A 
ATOM      5  N   UNL     1      27.516   0.979  54.219  0.00  0.00    -0.235 NA
ATOM      6  C   UNL     1      28.092   1.883  53.388  0.00  0.00    +0.119 A 
ATOM      7  N   UNL     1      27.427   2.317  52.288  0.00  0.00    -0.220 NA
ATOM      8  C   UNL     1      26.174   1.877  51.987  0.00  0.00    +0.134 A 
ATOM      9  N   UNL     1      25.541   2.328  50.778  0.00  0.00    -0.299 N 
ATOM     10  C   UNL     1      25.550   0.940  52.842  0.00  0.00    +0.042 A 
ATOM     11  C   UNL     1      24.244   0.460  52.628  0.00  0.00    -0.028 A 
ATOM     12  H   UNL     1      24.926   1.714  50.315  0.00  0.00    +0.000 HD
ENDROOT
BRANCH   9  13
ATOM     13  C   UNL     1      25.761   3.631  50.209  0.00  0.00    +0.033 A 
ATOM     14  C   UNL     1      26.790   3.857  49.275  0.00  0.00    -0.040 A 
ATOM     15  C   UNL     1      27.002   5.136  48.753  0.00  0.00    -0.059 A 
ATOM     16  C   UNL     1      26.198   6.202  49.164  0.00  0.00    -0.048 A 
ATOM     17  C   UNL     1      25.186   5.992  50.105  0.00  0.00    +0.020 A 
ATOM     18 BR   UNL     1      24.096   7.453  50.677  0.00  0.00    -0.050 Br
ATOM     19  C   UNL     1      24.973   4.713  50.631  0.00  0.00    -0.027 A 
ENDBRANCH   9  13
BRANCH   1  22
ATOM     20  C   UNL     1      21.188  -0.449  54.008  0.00  0.00    +0.241 C 
ATOM     21  O   UNL     1      21.343   0.050  55.155  0.00  0.00    -0.270 OA
ATOM     22  N   UNL     1      22.328  -0.932  53.275  0.00  0.00    -0.282 N 
ATOM     23  H   UNL     1      22.180  -1.612  52.579  0.00  0.00    +0.000 HD
BRANCH  20  25
ATOM     24  C   UNL     1      19.412   0.044  52.359  0.00  0.00    +0.027 C 
ATOM     25  C   UNL     1      19.819  -0.574  53.474  0.00  0.00    +0.007 C 
BRANCH  24  26
ATOM     26  C   UNL     1      18.035  -0.081  51.857  0.00  0.00    +0.332 C 
ATOM     27  O   UNL     1      17.416  -1.166  52.030  0.00  0.00    -0.246 OA
BRANCH  26  28
ATOM     28  O   UNL     1      17.416   0.993  51.204  0.00  0.00    -0.462 OA
BRANCH  28  30
ATOM     29  C   UNL     1      16.595   3.274  51.149  0.00  0.00    -0.031 C 
ATOM     30  C   UNL     1      17.781   2.355  51.412  0.00  0.00    +0.090 C 
ENDBRANCH  28  30
ENDBRANCH  26  28
ENDBRANCH  24  26
ENDBRANCH  20  25
ENDBRANCH   1  22
TORSDOF 6
ENDMDL
MODEL 3
REMARK VINA RESULT:    -7.793      4.278      7.116
REMARK INTER + INTRA:         -11.308
REMARK INTER:                 -10.526
REMARK INTRA:                  -0.782
REMARK UNBOUND:                -0.782
REMARK  Name = 
REMARK  7 active torsions:
REMARK  status: ('A' for Active; 'I' for Inactive)
REMARK    1  A    between atoms: C_1  and  C_2
REMARK    2  A    between atoms: C_2  and  O_3
REMARK    3  A    between atoms: O_3  and  C_4
REMARK    4  A    between atoms: C_4  and  C_6
REMARK    5  A    between atoms: C_7  and  C_8
REMARK    6  A    between atoms: N_10  and  C_11
REMARK    7  A    between atoms: N_19  and  C_20
REMARK                            x       y       z     vdW  Elec       q    Type
REMARK                         _______ _______ _______ _____ _____    ______ ____
ROOT
ATOM      1  C   UNL     1      23.180   4.126  52.277  0.00  0.00    +0.034 A 
ATOM      2  C   UNL     1      21.799   4.345  52.126  0.00  0.00    -0.038 A 
ATOM      3  C   UNL     1      21.331   5.464  51.435  0.00  0.00    -0.034 A 
ATOM      4  C   UNL     1      22.233   6.377  50.881  0.00  0.00    +0.076 A 
ATOM      5  N   UNL     1      21.769   7.450  50.192  0.00  0.00    -0.235 NA
ATOM      6  C   UNL     1      22.621   8.345  49.634  0.00  0.00    +0.119 A 
ATOM      7  N   UNL     1      23.961   8.181  49.764  0.00  0.00    -0.220 NA
ATOM      8  C   UNL     1      24.492   7.125  50.439  0.00  0.00    +0.134 A 
ATOM      9  N   UNL     1      25.919   7.033  50.592  0.00  0.00    -0.299 N 
ATOM     10  C   UNL     1      23.624   6.176  51.024  0.00  0.00    +0.042 A 
ATOM     11  C   UNL     1      24.087   5.034  51.707  0.00  0.00    -0.028 A 
ATOM     12  H   UNL     1      26.275   6.619  51.412  0.00  0.00    +0.000 HD
ENDROOT
BRANCH   9  13
ATOM     13  C   UNL     1      26.852   7.517  49.610  0.00  0.00    +0.033 A 
ATOM     14  C   UNL     1      27.305   6.693  48.563  0.00  0.00    -0.040 A 
ATOM     15  C   UNL     1      28.230   7.177  47.634  0.00  0.00    -0.059 A 
ATOM     16  C   UNL     1      28.720   8.481  47.745  0.00  0.00    -0.048 A 
ATOM     17  C   UNL     1      28.291   9.301  48.793  0.00  0.00    +0.020 A 
ATOM     18 BR   UNL     1      28.970  11.079  48.953  0.00  0.00    -0.050 Br
ATOM     19  C   UNL     1      27.365   8.819  49.726  0.00  0.00    -0.027 A 
ENDBRANCH   9  13
BRANCH   1  22
ATOM     20  C   UNL     1      24.151   1.783  52.262  0.00  0.00    +0.241 C 
ATOM     21  O   UNL     1      23.752   1.537  51.092  0.00  0.00    -0.270 OA
ATOM     22  N   UNL     1      23.681   2.956  52.949  0.00  0.00    -0.282 N 
ATOM     23  H   UNL     1      23.702   2.958  53.933  0.00  0.00    +0.000 HD
BRANCH  20  25
ATOM     24  C   UNL     1      25.984   0.123  52.250  0.00  0.00    +0.027 C 
ATOM     25  C   UNL     1      25.052   0.815  52.916  0.00  0.00    +0.007 C 
BRANCH  24  26
ATOM     26  C   UNL     1      26.858  -0.851  52.922  0.00  0.00    +0.332 C 
ATOM     27  O   UNL     1      26.876  -2.043  52.512  0.00  0.00    -0.246 OA
BRANCH  26  28
ATOM     28  O   UNL     1      27.667  -0.457  53.995  0.00  0.00    -0.462 OA
BRANCH  28  30
ATOM     29  C   UNL     1      30.034  -0.735  53.545  0.00  0.00    -0.031 C 
ATOM     30  C   UNL     1      28.900   0.240  53.837  0.00  0.00    +0.090 C 
ENDBRANCH  28  30
ENDBRANCH  26  28
ENDBRANCH  24  26
ENDBRANCH  20  25
ENDBRANCH   1  22
TORSDOF 6
ENDMDL
MODEL 4
REMARK VINA RESULT:    -7.784      2.982      4.929
REMARK INTER + INTRA:         -11.296
REMARK INTER:                 -10.551
REMARK INTRA:                  -0.745
REMARK UNBOUND:                -0.782
REMARK  Name = 
REMARK  7 active torsions:
REMARK  status: ('A' for Active; 'I' for Inactive)
REMARK    1  A    between atoms: C_1  and  C_2
REMARK    2  A    between atoms: C_2  and  O_3
REMARK    3  A    between atoms: O_3  and  C_4
REMARK    4  A    between atoms: C_4  and  C_6
REMARK    5  A    between atoms: C_7  and  C_8
REMARK    6  A    between atoms: N_10  and  C_11
REMARK    7  A    between atoms: N_19  and  C_20
REMARK                            x       y       z     vdW  Elec       q    Type
REMARK                         _______ _______ _______ _____ _____    ______ ____
ROOT
ATOM      1  C   UNL     1      21.880   1.294  50.666  0.00  0.00    +0.034 A 
ATOM      2  C   UNL     1      21.701   1.993  49.458  0.00  0.00    -0.038 A 
ATOM      3  C   UNL     1      22.723   2.795  48.947  0.00  0.00    -0.034 A 
ATOM      4  C   UNL     1      23.938   2.908  49.629  0.00  0.00    +0.076 A 
ATOM      5  N   UNL     1      24.933   3.673  49.113  0.00  0.00    -0.235 NA
ATOM      6  C   UNL     1      26.126   3.790  49.747  0.00  0.00    +0.119 A 
ATOM      7  N   UNL     1      26.339   3.144  50.920  0.00  0.00    -0.220 NA
ATOM      8  C   UNL     1      25.385   2.358  51.490  0.00  0.00    +0.134 A 
ATOM      9  N   UNL     1      25.648   1.743  52.763  0.00  0.00    -0.299 N 
ATOM     10  C   UNL     1      24.136   2.215  50.845  0.00  0.00    +0.042 A 
ATOM     11  C   UNL     1      23.106   1.394  51.343  0.00  0.00    -0.028 A 
ATOM     12  H   UNL     1      24.893   1.606  53.381  0.00  0.00    +0.000 HD
ENDROOT
BRANCH   9  13
ATOM     13  C   UNL     1      26.957   1.318  53.180  0.00  0.00    +0.033 A 
ATOM     14  C   UNL     1      27.895   2.234  53.692  0.00  0.00    -0.040 A 
ATOM     15  C   UNL     1      29.169   1.804  54.069  0.00  0.00    -0.059 A 
ATOM     16  C   UNL     1      29.525   0.460  53.930  0.00  0.00    -0.048 A 
ATOM     17  C   UNL     1      28.608  -0.455  53.404  0.00  0.00    +0.020 A 
ATOM     18 BR   UNL     1      29.099  -2.289  53.200  0.00  0.00    -0.050 Br
ATOM     19  C   UNL     1      27.331  -0.026  53.024  0.00  0.00    -0.027 A 
ENDBRANCH   9  13
BRANCH   1  22
ATOM     20  C   UNL     1      19.728   0.896  51.947  0.00  0.00    +0.241 C 
ATOM     21  O   UNL     1      19.799   1.991  52.568  0.00  0.00    -0.270 OA
ATOM     22  N   UNL     1      20.855   0.428  51.185  0.00  0.00    -0.282 N 
ATOM     23  H   UNL     1      20.929  -0.538  51.011  0.00  0.00    +0.000 HD
BRANCH  20  25
ATOM     24  C   UNL     1      18.401  -0.975  52.872  0.00  0.00    +0.027 C 
ATOM     25  C   UNL     1      18.496   0.095  52.074  0.00  0.00    +0.007 C 
BRANCH  24  26
ATOM     26  C   UNL     1      17.166  -1.770  52.966  0.00  0.00    +0.332 C 
ATOM     27  O   UNL     1      17.227  -2.945  53.419  0.00  0.00    -0.246 OA
BRANCH  26  28
ATOM     28  O   UNL     1      15.939  -1.224  52.568  0.00  0.00    -0.462 OA
BRANCH  28  30
ATOM     29  C   UNL     1      15.451  -1.179  50.193  0.00  0.00    -0.031 C 
ATOM     30  C   UNL     1      15.121  -1.792  51.548  0.00  0.00    +0.090 C 
ENDBRANCH  28  30
ENDBRANCH  26  28
ENDBRANCH  24  26
ENDBRANCH  20  25
ENDBRANCH   1  22
TORSDOF 6
ENDMDL
MODEL 5
REMARK VINA RESULT:    -7.659      4.402      8.537
REMARK INTER + INTRA:         -11.127
REMARK INTER:                 -10.861
REMARK INTRA:                  -0.266
REMARK UNBOUND:                -0.782
REMARK  Name = 
REMARK  7 active torsions:
REMARK  status: ('A' for Active; 'I' for Inactive)
REMARK    1  A    between atoms: C_1  and  C_2
REMARK    2  A    between atoms: C_2  and  O_3
REMARK    3  A    between atoms: O_3  and  C_4
REMARK    4  A    between atoms: C_4  and  C_6
REMARK    5  A    between atoms: C_7  and  C_8
REMARK    6  A    between atoms: N_10  and  C_11
REMARK    7  A    between atoms: N_19  and  C_20
REMARK                            x       y       z     vdW  Elec       q    Type
REMARK                         _______ _______ _______ _____ _____    ______ ____
ROOT
ATOM      1  C   UNL     1      26.304   2.296  51.739  0.00  0.00    +0.034 A 
ATOM      2  C   UNL     1      27.034   1.308  52.426  0.00  0.00    -0.038 A 
ATOM      3  C   UNL     1      26.374   0.332  53.173  0.00  0.00    -0.034 A 
ATOM      4  C   UNL     1      24.978   0.322  53.243  0.00  0.00    +0.076 A 
ATOM      5  N   UNL     1      24.345  -0.645  53.954  0.00  0.00    -0.235 NA
ATOM      6  C   UNL     1      22.992  -0.686  54.029  0.00  0.00    +0.119 A 
ATOM      7  N   UNL     1      22.247   0.253  53.393  0.00  0.00    -0.220 NA
ATOM      8  C   UNL     1      22.819   1.247  52.660  0.00  0.00    +0.134 A 
ATOM      9  N   UNL     1      21.981   2.246  52.055  0.00  0.00    -0.299 N 
ATOM     10  C   UNL     1      24.227   1.306  52.562  0.00  0.00    +0.042 A 
ATOM     11  C   UNL     1      24.901   2.277  51.796  0.00  0.00    -0.028 A 
ATOM     12  H   UNL     1      22.335   3.160  51.962  0.00  0.00    +0.000 HD
ENDROOT
BRANCH   9  13
ATOM     13  C   UNL     1      20.649   1.979  51.580  0.00  0.00    +0.033 A 
ATOM     14  C   UNL     1      20.362   0.832  50.817  0.00  0.00    -0.040 A 
ATOM     15  C   UNL     1      19.066   0.604  50.345  0.00  0.00    -0.059 A 
ATOM     16  C   UNL     1      18.049   1.522  50.619  0.00  0.00    -0.048 A 
ATOM     17  C   UNL     1      18.329   2.675  51.359  0.00  0.00    +0.020 A 
ATOM     18 BR   UNL     1      16.941   3.936  51.722  0.00  0.00    -0.050 Br
ATOM     19  C   UNL     1      19.626   2.906  51.832  0.00  0.00    -0.027 A 
ENDBRANCH   9  13
BRANCH   1  22
ATOM     20  C   UNL     1      26.382   3.869  49.751  0.00  0.00    +0.241 C 
ATOM     21  O   UNL     1      25.479   3.251  49.124  0.00  0.00    -0.270 OA
ATOM     22  N   UNL     1      26.965   3.284  50.929  0.00  0.00    -0.282 N 
ATOM     23  H   UNL     1      27.867   3.576  51.195  0.00  0.00    +0.000 HD
BRANCH  20  25
ATOM     24  C   UNL     1      27.978   5.282  48.499  0.00  0.00    +0.027 C 
ATOM     25  C   UNL     1      26.855   5.159  49.215  0.00  0.00    +0.007 C 
BRANCH  24  26
ATOM     26  C   UNL     1      28.439   6.584  47.991  0.00  0.00    +0.332 C 
ATOM     27  O   UNL     1      29.510   6.639  47.328  0.00  0.00    -0.246 OA
BRANCH  26  28
ATOM     28  O   UNL     1      27.693   7.745  48.233  0.00  0.00    -0.462 OA
BRANCH  28  30
ATOM     29  C   UNL     1      27.182   9.061  50.205  0.00  0.00    -0.031 C 
ATOM     30  C   UNL     1      28.151   8.816  49.055  0.00  0.00    +0.090 C 
ENDBRANCH  28  30
ENDBRANCH  26  28
ENDBRANCH  24  26
ENDBRANCH  20  25
ENDBRANCH   1  22
TORSDOF 6
ENDMDL
MODEL 6
REMARK VINA RESULT:    -7.290      4.464      8.012
REMARK INTER + INTRA:         -10.628
REMARK INTER:                  -9.918
REMARK INTRA:                  -0.711
REMARK UNBOUND:                -0.782
REMARK  Name = 
REMARK  7 active torsions:
REMARK  status: ('A' for Active; 'I' for Inactive)
REMARK    1  A    between atoms: C_1  and  C_2
REMARK    2  A    between atoms: C_2  and  O_3
REMARK    3  A    between atoms: O_3  and  C_4
REMARK    4  A    between atoms: C_4  and  C_6
REMARK    5  A    between atoms: C_7  and  C_8
REMARK    6  A    between atoms: N_10  and  C_11
REMARK    7  A    between atoms: N_19  and  C_20
REMARK                            x       y       z     vdW  Elec       q    Type
REMARK                         _______ _______ _______ _____ _____    ______ ____
ROOT
ATOM      1  C   UNL     1      22.221   3.052  50.734  0.00  0.00    +0.034 A 
ATOM      2  C   UNL     1      20.994   2.700  51.325  0.00  0.00    -0.038 A 
ATOM      3  C   UNL     1      20.941   1.712  52.311  0.00  0.00    -0.034 A 
ATOM      4  C   UNL     1      22.110   1.066  52.723  0.00  0.00    +0.076 A 
ATOM      5  N   UNL     1      22.051   0.123  53.697  0.00  0.00    -0.235 NA
ATOM      6  C   UNL     1      23.171  -0.511  54.125  0.00  0.00    +0.119 A 
ATOM      7  N   UNL     1      24.374  -0.213  53.575  0.00  0.00    -0.220 NA
ATOM      8  C   UNL     1      24.503   0.726  52.597  0.00  0.00    +0.134 A 
ATOM      9  N   UNL     1      25.795   0.959  52.012  0.00  0.00    -0.299 N 
ATOM     10  C   UNL     1      23.352   1.404  52.139  0.00  0.00    +0.042 A 
ATOM     11  C   UNL     1      23.397   2.414  51.159  0.00  0.00    -0.028 A 
ATOM     12  H   UNL     1      25.839   1.223  51.064  0.00  0.00    +0.000 HD
ENDROOT
BRANCH   9  13
ATOM     13  C   UNL     1      27.029   0.827  52.741  0.00  0.00    +0.033 A 
ATOM     14  C   UNL     1      27.617   1.929  53.390  0.00  0.00    -0.040 A 
ATOM     15  C   UNL     1      28.827   1.782  54.072  0.00  0.00    -0.059 A 
ATOM     16  C   UNL     1      29.468   0.541  54.105  0.00  0.00    -0.048 A 
ATOM     17  C   UNL     1      28.902  -0.555  53.448  0.00  0.00    +0.020 A 
ATOM     18 BR   UNL     1      29.784  -2.248  53.481  0.00  0.00    -0.050 Br
ATOM     19  C   UNL     1      27.690  -0.411  52.762  0.00  0.00    -0.027 A 
ENDBRANCH   9  13
BRANCH   1  22
ATOM     20  C   UNL     1      22.884   5.387  50.000  0.00  0.00    +0.241 C 
ATOM     21  O   UNL     1      22.954   5.826  51.179  0.00  0.00    -0.270 OA
ATOM     22  N   UNL     1      22.300   4.097  49.748  0.00  0.00    -0.282 N 
ATOM     23  H   UNL     1      21.934   3.920  48.851  0.00  0.00    +0.000 HD
BRANCH  20  25
ATOM     24  C   UNL     1      24.642   6.583  48.738  0.00  0.00    +0.027 C 
ATOM     25  C   UNL     1      23.357   6.248  48.899  0.00  0.00    +0.007 C 
BRANCH  24  26
ATOM     26  C   UNL     1      25.087   7.460  47.643  0.00  0.00    +0.332 C 
ATOM     27  O   UNL     1      24.222   8.004  46.904  0.00  0.00    -0.246 OA
BRANCH  26  28
ATOM     28  O   UNL     1      26.452   7.694  47.429  0.00  0.00    -0.462 OA
BRANCH  28  30
ATOM     29  C   UNL     1      28.055   6.083  48.276  0.00  0.00    -0.031 C 
ATOM     30  C   UNL     1      27.451   7.474  48.422  0.00  0.00    +0.090 C 
ENDBRANCH  28  30
ENDBRANCH  26  28
ENDBRANCH  24  26
ENDBRANCH  20  25
ENDBRANCH   1  22
TORSDOF 6
ENDMDL
MODEL 7
REMARK VINA RESULT:    -7.261      2.175      2.770
REMARK INTER + INTRA:         -10.590
REMARK INTER:                 -10.064
REMARK INTRA:                  -0.526
REMARK UNBOUND:                -0.782
REMARK  Name = 
REMARK  7 active torsions:
REMARK  status: ('A' for Active; 'I' for Inactive)
REMARK    1  A    between atoms: C_1  and  C_2
REMARK    2  A    between atoms: C_2  and  O_3
REMARK    3  A    between atoms: O_3  and  C_4
REMARK    4  A    between atoms: C_4  and  C_6
REMARK    5  A    between atoms: C_7  and  C_8
REMARK    6  A    between atoms: N_10  and  C_11
REMARK    7  A    between atoms: N_19  and  C_20
REMARK                            x       y       z     vdW  Elec       q    Type
REMARK                         _______ _______ _______ _____ _____    ______ ____
ROOT
ATOM      1  C   UNL     1      22.489   0.341  52.390  0.00  0.00    +0.034 A 
ATOM      2  C   UNL     1      23.036  -0.344  53.490  0.00  0.00    -0.038 A 
ATOM      3  C   UNL     1      24.377  -0.169  53.836  0.00  0.00    -0.034 A 
ATOM      4  C   UNL     1      25.189   0.694  53.094  0.00  0.00    +0.076 A 
ATOM      5  N   UNL     1      26.486   0.873  53.452  0.00  0.00    -0.235 NA
ATOM      6  C   UNL     1      27.293   1.713  52.758  0.00  0.00    +0.119 A 
ATOM      7  N   UNL     1      26.812   2.385  51.682  0.00  0.00    -0.220 NA
ATOM      8  C   UNL     1      25.520   2.252  51.273  0.00  0.00    +0.134 A 
ATOM      9  N   UNL     1      25.082   2.946  50.092  0.00  0.00    -0.299 N 
ATOM     10  C   UNL     1      24.658   1.389  51.985  0.00  0.00    +0.042 A 
ATOM     11  C   UNL     1      23.300   1.219  51.654  0.00  0.00    -0.028 A 
ATOM     12  H   UNL     1      24.389   2.526  49.533  0.00  0.00    +0.000 HD
ENDROOT
BRANCH   9  13
ATOM     13  C   UNL     1      25.605   4.223  49.686  0.00  0.00    +0.033 A 
ATOM     14  C   UNL     1      24.816   5.388  49.740  0.00  0.00    -0.040 A 
ATOM     15  C   UNL     1      25.337   6.613  49.318  0.00  0.00    -0.059 A 
ATOM     16  C   UNL     1      26.644   6.689  48.828  0.00  0.00    -0.048 A 
ATOM     17  C   UNL     1      27.429   5.535  48.752  0.00  0.00    +0.020 A 
ATOM     18 BR   UNL     1      29.210   5.635  48.069  0.00  0.00    -0.050 Br
ATOM     19  C   UNL     1      26.909   4.305  49.173  0.00  0.00    -0.027 A 
ENDBRANCH   9  13
BRANCH   1  22
ATOM     20  C   UNL     1      20.150   1.285  52.122  0.00  0.00    +0.241 C 
ATOM     21  O   UNL     1      20.367   2.259  52.892  0.00  0.00    -0.270 OA
ATOM     22  N   UNL     1      21.098   0.207  52.045  0.00  0.00    -0.282 N 
ATOM     23  H   UNL     1      20.778  -0.673  51.740  0.00  0.00    +0.000 HD
BRANCH  20  25
ATOM     24  C   UNL     1      18.113   0.171  51.271  0.00  0.00    +0.027 C 
ATOM     25  C   UNL     1      18.888   1.259  51.359  0.00  0.00    +0.007 C 
BRANCH  24  26
ATOM     26  C   UNL     1      16.867   0.164  50.489  0.00  0.00    +0.332 C 
ATOM     27  O   UNL     1      16.802  -0.543  49.447  0.00  0.00    -0.246 OA
BRANCH  26  28
ATOM     28  O   UNL     1      15.765   0.925  50.901  0.00  0.00    -0.462 OA
BRANCH  28  30
ATOM     29  C   UNL     1      15.318   3.205  50.204  0.00  0.00    -0.031 C 
ATOM     30  C   UNL     1      14.990   1.729  50.015  0.00  0.00    +0.090 C 
ENDBRANCH  28  30
ENDBRANCH  26  28
ENDBRANCH  24  26
ENDBRANCH  20  25
ENDBRANCH   1  22
TORSDOF 6
ENDMDL
MODEL 8
REMARK VINA RESULT:    -7.200      5.930     10.693
REMARK INTER + INTRA:         -10.508
REMARK INTER:                  -9.729
REMARK INTRA:                  -0.778
REMARK UNBOUND:                -0.782
REMARK  Name = 
REMARK  7 active torsions:
REMARK  status: ('A' for Active; 'I' for Inactive)
REMARK    1  A    between atoms: C_1  and  C_2
REMARK    2  A    between atoms: C_2  and  O_3
REMARK    3  A    between atoms: O_3  and  C_4
REMARK    4  A    between atoms: C_4  and  C_6
REMARK    5  A    between atoms: C_7  and  C_8
REMARK    6  A    between atoms: N_10  and  C_11
REMARK    7  A    between atoms: N_19  and  C_20
REMARK                            x       y       z     vdW  Elec       q    Type
REMARK                         _______ _______ _______ _____ _____    ______ ____
ROOT
ATOM      1  C   UNL     1      25.145   6.748  49.472  0.00  0.00    +0.034 A 
ATOM      2  C   UNL     1      23.859   7.246  49.751  0.00  0.00    -0.038 A 
ATOM      3  C   UNL     1      22.958   6.494  50.506  0.00  0.00    -0.034 A 
ATOM      4  C   UNL     1      23.327   5.238  50.997  0.00  0.00    +0.076 A 
ATOM      5  N   UNL     1      22.451   4.524  51.749  0.00  0.00    -0.235 NA
ATOM      6  C   UNL     1      22.787   3.309  52.249  0.00  0.00    +0.119 A 
ATOM      7  N   UNL     1      24.012   2.784  51.995  0.00  0.00    -0.220 NA
ATOM      8  C   UNL     1      24.937   3.449  51.251  0.00  0.00    +0.134 A 
ATOM      9  N   UNL     1      26.198   2.818  50.968  0.00  0.00    -0.299 N 
ATOM     10  C   UNL     1      24.613   4.720  50.726  0.00  0.00    +0.042 A 
ATOM     11  C   UNL     1      25.522   5.494  49.978  0.00  0.00    -0.028 A 
ATOM     12  H   UNL     1      26.639   3.019  50.111  0.00  0.00    +0.000 HD
ENDROOT
BRANCH   9  13
ATOM     13  C   UNL     1      26.847   1.907  51.872  0.00  0.00    +0.033 A 
ATOM     14  C   UNL     1      27.755   2.365  52.845  0.00  0.00    -0.040 A 
ATOM     15  C   UNL     1      28.391   1.459  53.698  0.00  0.00    -0.059 A 
ATOM     16  C   UNL     1      28.138   0.090  53.582  0.00  0.00    -0.048 A 
ATOM     17  C   UNL     1      27.252  -0.377  52.606  0.00  0.00    +0.020 A 
ATOM     18 BR   UNL     1      26.917  -2.249  52.439  0.00  0.00    -0.050 Br
ATOM     19  C   UNL     1      26.614   0.528  51.750  0.00  0.00    -0.027 A 
ENDBRANCH   9  13
BRANCH   1  22
ATOM     20  C   UNL     1      27.126   8.327  49.348  0.00  0.00    +0.241 C 
ATOM     21  O   UNL     1      26.977   8.737  50.531  0.00  0.00    -0.270 OA
ATOM     22  N   UNL     1      26.102   7.527  48.732  0.00  0.00    -0.282 N 
ATOM     23  H   UNL     1      26.052   7.513  47.748  0.00  0.00    +0.000 HD
BRANCH  20  25
ATOM     24  C   UNL     1      29.484   9.060  49.216  0.00  0.00    +0.027 C 
ATOM     25  C   UNL     1      28.336   8.735  48.610  0.00  0.00    +0.007 C 
BRANCH  24  26
ATOM     26  C   UNL     1      30.672   9.483  48.457  0.00  0.00    +0.332 C 
ATOM     27  O   UNL     1      31.615   8.663  48.289  0.00  0.00    -0.246 OA
BRANCH  26  28
ATOM     28  O   UNL     1      30.751  10.775  47.922  0.00  0.00    -0.462 OA
BRANCH  28  30
ATOM     29  C   UNL     1      29.789  12.752  48.947  0.00  0.00    -0.031 C 
ATOM     30  C   UNL     1      31.049  11.932  48.699  0.00  0.00    +0.090 C 
ENDBRANCH  28  30
ENDBRANCH  26  28
ENDBRANCH  24  26
ENDBRANCH  20  25
ENDBRANCH   1  22
TORSDOF 6
ENDMDL
MODEL 9
REMARK VINA RESULT:    -7.167      4.150      9.099
REMARK INTER + INTRA:         -10.463
REMARK INTER:                 -10.319
REMARK INTRA:                  -0.144
REMARK UNBOUND:                -0.782
REMARK  Name = 
REMARK  7 active torsions:
REMARK  status: ('A' for Active; 'I' for Inactive)
REMARK    1  A    between atoms: C_1  and  C_2
REMARK    2  A    between atoms: C_2  and  O_3
REMARK    3  A    between atoms: O_3  and  C_4
REMARK    4  A    between atoms: C_4  and  C_6
REMARK    5  A    between atoms: C_7  and  C_8
REMARK    6  A    between atoms: N_10  and  C_11
REMARK    7  A    between atoms: N_19  and  C_20
REMARK                            x       y       z     vdW  Elec       q    Type
REMARK                         _______ _______ _______ _____ _____    ______ ____
ROOT
ATOM      1  C   UNL     1      24.009   1.828  51.609  0.00  0.00    +0.034 A 
ATOM      2  C   UNL     1      25.058   1.217  52.321  0.00  0.00    -0.038 A 
ATOM      3  C   UNL     1      24.786   0.241  53.281  0.00  0.00    -0.034 A 
ATOM      4  C   UNL     1      23.467  -0.143  53.541  0.00  0.00    +0.076 A 
ATOM      5  N   UNL     1      23.215  -1.109  54.461  0.00  0.00    -0.235 NA
ATOM      6  C   UNL     1      21.947  -1.509  54.725  0.00  0.00    +0.119 A 
ATOM      7  N   UNL     1      20.903  -0.940  54.071  0.00  0.00    -0.220 NA
ATOM      8  C   UNL     1      21.088   0.031  53.135  0.00  0.00    +0.134 A 
ATOM      9  N   UNL     1      19.941   0.638  52.516  0.00  0.00    -0.299 N 
ATOM     10  C   UNL     1      22.400   0.460  52.838  0.00  0.00    +0.042 A 
ATOM     11  C   UNL     1      22.686   1.431  51.859  0.00  0.00    -0.028 A 
ATOM     12  H   UNL     1      19.999   1.584  52.248  0.00  0.00    +0.000 HD
ENDROOT
BRANCH   9  13
ATOM     13  C   UNL     1      18.711  -0.066  52.268  0.00  0.00    +0.033 A 
ATOM     14  C   UNL     1      18.192  -0.982  53.203  0.00  0.00    -0.040 A 
ATOM     15  C   UNL     1      17.008  -1.673  52.931  0.00  0.00    -0.059 A 
ATOM     16  C   UNL     1      16.336  -1.465  51.724  0.00  0.00    -0.048 A 
ATOM     17  C   UNL     1      16.853  -0.572  50.781  0.00  0.00    +0.020 A 
ATOM     18 BR   UNL     1      15.943  -0.299  49.125  0.00  0.00    -0.050 Br
ATOM     19  C   UNL     1      18.040   0.120  51.050  0.00  0.00    -0.027 A 
ENDBRANCH   9  13
BRANCH   1  22
ATOM     20  C   UNL     1      24.391   4.215  50.841  0.00  0.00    +0.241 C 
ATOM     21  O   UNL     1      23.848   4.716  51.862  0.00  0.00    -0.270 OA
ATOM     22  N   UNL     1      24.273   2.804  50.585  0.00  0.00    -0.282 N 
ATOM     23  H   UNL     1      24.377   2.490  49.658  0.00  0.00    +0.000 HD
BRANCH  20  25
ATOM     24  C   UNL     1      26.340   4.897  49.480  0.00  0.00    +0.027 C 
ATOM     25  C   UNL     1      25.089   5.113  49.902  0.00  0.00    +0.007 C 
BRANCH  24  26
ATOM     26  C   UNL     1      27.021   5.818  48.558  0.00  0.00    +0.332 C 
ATOM     27  O   UNL     1      26.356   6.738  48.009  0.00  0.00    -0.246 OA
BRANCH  26  28
ATOM     28  O   UNL     1      28.391   5.682  48.300  0.00  0.00    -0.462 OA
BRANCH  28  30
ATOM     29  C   UNL     1      29.883   7.581  48.523  0.00  0.00    -0.031 C 
ATOM     30  C   UNL     1      29.154   6.641  47.572  0.00  0.00    +0.090 C 
ENDBRANCH  28  30
ENDBRANCH  26  28
ENDBRANCH  24  26
ENDBRANCH  20  25
ENDBRANCH   1  22
TORSDOF 6
ENDMDL
