MODEL 1
REMARK VINA RESULT:    -5.991      0.000      0.000
REMARK INTER + INTRA:          -7.865
REMARK INTER:                  -7.567
REMARK INTRA:                  -0.298
REMARK UNBOUND:                -0.298
REMARK  Name = 
REMARK  6 active torsions:
REMARK  status: ('A' for Active; 'I' for Inactive)
REMARK    1  A    between atoms: C_1  and  O_2
REMARK    2  A    between atoms: O_2  and  C_3
REMARK    3  A    between atoms: C_5  and  C_6
REMARK    4  A    between atoms: C_7  and  C_8
REMARK    5  A    between atoms: C_7  and  C_10
REMARK    6  A    between atoms: C_15  and  O_16
REMARK                            x       y       z     vdW  Elec       q    Type
REMARK                         _______ _______ _______ _____ _____    ______ ____
ROOT
ATOM      1  C   UNL     1      22.723  -0.343  53.591  0.00  0.00    +0.162 A 
ATOM      2  C   UNL     1      24.056   0.098  53.479  0.00  0.00    -0.009 A 
ATOM      3  C   UNL     1      25.006  -0.241  54.460  0.00  0.00    -0.020 A 
ATOM      4  C   UNL     1      24.626  -1.068  55.525  0.00  0.00    -0.051 A 
ATOM      5  C   UNL     1      23.307  -1.510  55.640  0.00  0.00    -0.016 A 
ATOM      6  C   UNL     1      22.354  -1.146  54.679  0.00  0.00    +0.158 A 
ENDROOT
BRANCH   1   8
ATOM      7  C   UNL     1      21.031   1.224  52.619  0.00  0.00    +0.079 C 
ATOM      8  O   UNL     1      21.743  -0.009  52.643  0.00  0.00    -0.491 OA
ENDBRANCH   1   8
BRANCH   3   9
ATOM      9  C   UNL     1      26.422   0.186  54.352  0.00  0.00    -0.030 C 
ATOM     10  C   UNL     1      27.360  -0.441  53.613  0.00  0.00    +0.136 C 
BRANCH  10  11
ATOM     11  C   UNL     1      28.752   0.059  53.574  0.00  0.00    +0.347 C 
ATOM     12  O   UNL     1      28.995   1.295  53.593  0.00  0.00    -0.244 OA
ATOM     13  O   UNL     1      29.811  -0.844  53.519  0.00  0.00    -0.477 OA
ENDBRANCH  10  11
BRANCH  10  14
ATOM     14  C   UNL     1      27.029  -1.577  52.782  0.00  0.00    +0.106 C 
ATOM     15  N   UNL     1      26.766  -2.488  52.118  0.00  0.00    -0.191 NA
ENDBRANCH  10  14
ENDBRANCH   3   9
BRANCH   6  16
ATOM     16  O   UNL     1      21.036  -1.584  54.797  0.00  0.00    -0.503 OA
ATOM     17  H   UNL     1      20.380  -1.009  55.139  0.00  0.00    +0.000 HD
ENDBRANCH   6  16
TORSDOF 5
ENDMDL
MODEL 2
REMARK VINA RESULT:    -5.824      1.764      5.966
REMARK INTER + INTRA:          -7.654
REMARK INTER:                  -7.330
REMARK INTRA:                  -0.324
REMARK UNBOUND:                -0.298
REMARK  Name = 
REMARK  6 active torsions:
REMARK  status: ('A' for Active; 'I' for Inactive)
REMARK    1  A    between atoms: C_1  and  O_2
REMARK    2  A    between atoms: O_2  and  C_3
REMARK    3  A    between atoms: C_5  and  C_6
REMARK    4  A    between atoms: C_7  and  C_8
REMARK    5  A    between atoms: C_7  and  C_10
REMARK    6  A    between atoms: C_15  and  O_16
REMARK                            x       y       z     vdW  Elec       q    Type
REMARK                         _______ _______ _______ _____ _____    ______ ____
ROOT
ATOM      1  C   UNL     1      28.019   0.046  54.235  0.00  0.00    +0.162 A 
ATOM      2  C   UNL     1      26.634   0.201  54.448  0.00  0.00    -0.009 A 
ATOM      3  C   UNL     1      25.710  -0.604  53.757  0.00  0.00    -0.020 A 
ATOM      4  C   UNL     1      26.183  -1.601  52.893  0.00  0.00    -0.051 A 
ATOM      5  C   UNL     1      27.552  -1.761  52.681  0.00  0.00    -0.016 A 
ATOM      6  C   UNL     1      28.471  -0.937  53.346  0.00  0.00    +0.158 A 
ENDROOT
BRANCH   1   8
ATOM      7  C   UNL     1      29.465   2.082  54.393  0.00  0.00    +0.079 C 
ATOM      8  O   UNL     1      28.969   0.844  54.891  0.00  0.00    -0.491 OA
ENDBRANCH   1   8
BRANCH   3   9
ATOM      9  C   UNL     1      24.250  -0.482  53.982  0.00  0.00    -0.030 C 
ATOM     10  C   UNL     1      23.438   0.368  53.320  0.00  0.00    +0.136 C 
BRANCH  10  11
ATOM     11  C   UNL     1      21.990   0.421  53.622  0.00  0.00    +0.347 C 
ATOM     12  O   UNL     1      21.191   1.019  52.852  0.00  0.00    -0.244 OA
ATOM     13  O   UNL     1      21.498  -0.199  54.768  0.00  0.00    -0.477 OA
ENDBRANCH  10  11
BRANCH  10  14
ATOM     14  C   UNL     1      23.934   1.203  52.249  0.00  0.00    +0.106 C 
ATOM     15  N   UNL     1      24.331   1.874  51.393  0.00  0.00    -0.191 NA
ENDBRANCH  10  14
ENDBRANCH   3   9
BRANCH   6  16
ATOM     16  O   UNL     1      29.839  -1.094  53.130  0.00  0.00    -0.503 OA
ATOM     17  H   UNL     1      30.192  -1.945  52.956  0.00  0.00    +0.000 HD
ENDBRANCH   6  16
TORSDOF 5
ENDMDL
MODEL 3
REMARK VINA RESULT:    -5.807      1.936      2.906
REMARK INTER + INTRA:          -7.632
REMARK INTER:                  -7.668
REMARK INTRA:                   0.036
REMARK UNBOUND:                -0.298
REMARK  Name = 
REMARK  6 active torsions:
REMARK  status: ('A' for Active; 'I' for Inactive)
REMARK    1  A    between atoms: C_1  and  O_2
REMARK    2  A    between atoms: O_2  and  C_3
REMARK    3  A    between atoms: C_5  and  C_6
REMARK    4  A    between atoms: C_7  and  C_8
REMARK    5  A    between atoms: C_7  and  C_10
REMARK    6  A    between atoms: C_15  and  O_16
REMARK                            x       y       z     vdW  Elec       q    Type
REMARK                         _______ _______ _______ _____ _____    ______ ____
ROOT
ATOM      1  C   UNL     1      23.256   0.104  53.616  0.00  0.00    +0.162 A 
ATOM      2  C   UNL     1      24.483  -0.578  53.746  0.00  0.00    -0.009 A 
ATOM      3  C   UNL     1      25.573  -0.252  52.919  0.00  0.00    -0.020 A 
ATOM      4  C   UNL     1      25.445   0.796  51.997  0.00  0.00    -0.051 A 
ATOM      5  C   UNL     1      24.234   1.476  51.866  0.00  0.00    -0.016 A 
ATOM      6  C   UNL     1      23.138   1.130  52.669  0.00  0.00    +0.158 A 
ENDROOT
BRANCH   1   8
ATOM      7  C   UNL     1      21.456  -1.454  54.386  0.00  0.00    +0.079 C 
ATOM      8  O   UNL     1      22.141  -0.206  54.409  0.00  0.00    -0.491 OA
ENDBRANCH   1   8
BRANCH   3   9
ATOM      9  C   UNL     1      26.882  -0.934  53.054  0.00  0.00    -0.030 C 
ATOM     10  C   UNL     1      28.052  -0.310  53.302  0.00  0.00    +0.136 C 
BRANCH  10  11
ATOM     11  C   UNL     1      29.312  -1.079  53.414  0.00  0.00    +0.347 C 
ATOM     12  O   UNL     1      30.406  -0.497  53.643  0.00  0.00    -0.244 OA
ATOM     13  O   UNL     1      29.293  -2.464  53.268  0.00  0.00    -0.477 OA
ENDBRANCH  10  11
BRANCH  10  14
ATOM     14  C   UNL     1      28.111   1.116  53.535  0.00  0.00    +0.106 C 
ATOM     15  N   UNL     1      28.161   2.257  53.723  0.00  0.00    -0.191 NA
ENDBRANCH  10  14
ENDBRANCH   3   9
BRANCH   6  16
ATOM     16  O   UNL     1      21.928   1.807  52.533  0.00  0.00    -0.503 OA
ATOM     17  H   UNL     1      21.710   2.221  51.721  0.00  0.00    +0.000 HD
ENDBRANCH   6  16
TORSDOF 5
ENDMDL
MODEL 4
REMARK VINA RESULT:    -5.712      1.688      6.065
REMARK INTER + INTRA:          -7.512
REMARK INTER:                  -7.257
REMARK INTRA:                  -0.255
REMARK UNBOUND:                -0.298
REMARK  Name = 
REMARK  6 active torsions:
REMARK  status: ('A' for Active; 'I' for Inactive)
REMARK    1  A    between atoms: C_1  and  O_2
REMARK    2  A    between atoms: O_2  and  C_3
REMARK    3  A    between atoms: C_5  and  C_6
REMARK    4  A    between atoms: C_7  and  C_8
REMARK    5  A    between atoms: C_7  and  C_10
REMARK    6  A    between atoms: C_15  and  O_16
REMARK                            x       y       z     vdW  Elec       q    Type
REMARK                         _______ _______ _______ _____ _____    ______ ____
ROOT
ATOM      1  C   UNL     1      28.169  -0.183  53.285  0.00  0.00    +0.162 A 
ATOM      2  C   UNL     1      26.824  -0.489  52.999  0.00  0.00    -0.009 A 
ATOM      3  C   UNL     1      25.834   0.508  53.067  0.00  0.00    -0.020 A 
ATOM      4  C   UNL     1      26.207   1.825  53.371  0.00  0.00    -0.051 A 
ATOM      5  C   UNL     1      27.538   2.133  53.652  0.00  0.00    -0.016 A 
ATOM      6  C   UNL     1      28.519   1.133  53.615  0.00  0.00    +0.158 A 
ENDROOT
BRANCH   1   8
ATOM      7  C   UNL     1      28.951  -2.560  53.254  0.00  0.00    +0.079 C 
ATOM      8  O   UNL     1      29.181  -1.155  53.247  0.00  0.00    -0.491 OA
ENDBRANCH   1   8
BRANCH   3   9
ATOM      9  C   UNL     1      24.416   0.220  52.744  0.00  0.00    -0.030 C 
ATOM     10  C   UNL     1      23.574  -0.478  53.533  0.00  0.00    +0.136 C 
BRANCH  10  11
ATOM     11  C   UNL     1      22.174  -0.720  53.119  0.00  0.00    +0.347 C 
ATOM     12  O   UNL     1      21.714  -0.205  52.064  0.00  0.00    -0.244 OA
ATOM     13  O   UNL     1      21.350  -1.527  53.899  0.00  0.00    -0.477 OA
ENDBRANCH  10  11
BRANCH  10  14
ATOM     14  C   UNL     1      23.982  -0.956  54.835  0.00  0.00    +0.106 C 
ATOM     15  N   UNL     1      24.311  -1.336  55.878  0.00  0.00    -0.191 NA
ENDBRANCH  10  14
ENDBRANCH   3   9
BRANCH   6  16
ATOM     16  O   UNL     1      29.848   1.443  53.901  0.00  0.00    -0.503 OA
ATOM     17  H   UNL     1      30.123   2.337  53.941  0.00  0.00    +0.000 HD
ENDBRANCH   6  16
TORSDOF 5
ENDMDL
MODEL 5
REMARK VINA RESULT:    -5.578      2.279      2.719
REMARK INTER + INTRA:          -7.344
REMARK INTER:                  -7.156
REMARK INTRA:                  -0.188
REMARK UNBOUND:                -0.298
REMARK  Name = 
REMARK  6 active torsions:
REMARK  status: ('A' for Active; 'I' for Inactive)
REMARK    1  A    between atoms: C_1  and  O_2
REMARK    2  A    between atoms: O_2  and  C_3
REMARK    3  A    between atoms: C_5  and  C_6
REMARK    4  A    between atoms: C_7  and  C_8
REMARK    5  A    between atoms: C_7  and  C_10
REMARK    6  A    between atoms: C_15  and  O_16
REMARK                            x       y       z     vdW  Elec       q    Type
REMARK                         _______ _______ _______ _____ _____    ______ ____
ROOT
ATOM      1  C   UNL     1      21.089  -0.075  52.558  0.00  0.00    +0.162 A 
ATOM      2  C   UNL     1      22.476   0.049  52.339  0.00  0.00    -0.009 A 
ATOM      3  C   UNL     1      23.394  -0.354  53.325  0.00  0.00    -0.020 A 
ATOM      4  C   UNL     1      22.917  -0.931  54.510  0.00  0.00    -0.051 A 
ATOM      5  C   UNL     1      21.546  -1.058  54.731  0.00  0.00    -0.016 A 
ATOM      6  C   UNL     1      20.630  -0.627  53.761  0.00  0.00    +0.158 A 
ENDROOT
BRANCH   1   8
ATOM      7  C   UNL     1      20.465   0.889  50.334  0.00  0.00    +0.079 C 
ATOM      8  O   UNL     1      20.143   0.335  51.605  0.00  0.00    -0.491 OA
ENDBRANCH   1   8
BRANCH   3   9
ATOM      9  C   UNL     1      24.858  -0.261  53.110  0.00  0.00    -0.030 C 
ATOM     10  C   UNL     1      25.548   0.893  53.002  0.00  0.00    +0.136 C 
BRANCH  10  11
ATOM     11  C   UNL     1      27.011   0.882  52.781  0.00  0.00    +0.347 C 
ATOM     12  O   UNL     1      27.650   1.958  52.628  0.00  0.00    -0.244 OA
ATOM     13  O   UNL     1      27.697  -0.329  52.742  0.00  0.00    -0.477 OA
ENDBRANCH  10  11
BRANCH  10  14
ATOM     14  C   UNL     1      24.902   2.176  53.167  0.00  0.00    +0.106 C 
ATOM     15  N   UNL     1      24.383   3.203  53.296  0.00  0.00    -0.191 NA
ENDBRANCH  10  14
ENDBRANCH   3   9
BRANCH   6  16
ATOM     16  O   UNL     1      19.261  -0.751  53.985  0.00  0.00    -0.503 OA
ATOM     17  H   UNL     1      18.860  -0.298  54.701  0.00  0.00    +0.000 HD
ENDBRANCH   6  16
TORSDOF 5
ENDMDL
MODEL 6
REMARK VINA RESULT:    -5.507      3.110      5.808
REMARK INTER + INTRA:          -7.253
REMARK INTER:                  -7.187
REMARK INTRA:                  -0.066
REMARK UNBOUND:                -0.298
REMARK  Name = 
REMARK  6 active torsions:
REMARK  status: ('A' for Active; 'I' for Inactive)
REMARK    1  A    between atoms: C_1  and  O_2
REMARK    2  A    between atoms: O_2  and  C_3
REMARK    3  A    between atoms: C_5  and  C_6
REMARK    4  A    between atoms: C_7  and  C_8
REMARK    5  A    between atoms: C_7  and  C_10
REMARK    6  A    between atoms: C_15  and  O_16
REMARK                            x       y       z     vdW  Elec       q    Type
REMARK                         _______ _______ _______ _____ _____    ______ ____
ROOT
ATOM      1  C   UNL     1      24.974   3.059  51.772  0.00  0.00    +0.162 A 
ATOM      2  C   UNL     1      24.163   2.187  52.525  0.00  0.00    -0.009 A 
ATOM      3  C   UNL     1      24.602   0.885  52.829  0.00  0.00    -0.020 A 
ATOM      4  C   UNL     1      25.880   0.481  52.420  0.00  0.00    -0.051 A 
ATOM      5  C   UNL     1      26.688   1.341  51.676  0.00  0.00    -0.016 A 
ATOM      6  C   UNL     1      26.238   2.626  51.347  0.00  0.00    +0.158 A 
ENDROOT
BRANCH   1   8
ATOM      7  C   UNL     1      23.232   4.844  51.574  0.00  0.00    +0.079 C 
ATOM      8  O   UNL     1      24.562   4.357  51.432  0.00  0.00    -0.491 OA
ENDBRANCH   1   8
BRANCH   3   9
ATOM      9  C   UNL     1      23.781  -0.042  53.644  0.00  0.00    -0.030 C 
ATOM     10  C   UNL     1      22.533  -0.444  53.328  0.00  0.00    +0.136 C 
BRANCH  10  11
ATOM     11  C   UNL     1      21.790  -1.370  54.211  0.00  0.00    +0.347 C 
ATOM     12  O   UNL     1      22.374  -1.981  55.145  0.00  0.00    -0.244 OA
ATOM     13  O   UNL     1      20.425  -1.570  54.014  0.00  0.00    -0.477 OA
ENDBRANCH  10  11
BRANCH  10  14
ATOM     14  C   UNL     1      21.903  -0.044  52.089  0.00  0.00    +0.106 C 
ATOM     15  N   UNL     1      21.400   0.278  51.097  0.00  0.00    -0.191 NA
ENDBRANCH  10  14
ENDBRANCH   3   9
BRANCH   6  16
ATOM     16  O   UNL     1      27.044   3.483  50.600  0.00  0.00    -0.503 OA
ATOM     17  H   UNL     1      27.635   3.133  49.962  0.00  0.00    +0.000 HD
ENDBRANCH   6  16
TORSDOF 5
ENDMDL
MODEL 7
REMARK VINA RESULT:    -5.482      3.679      5.922
REMARK INTER + INTRA:          -7.222
REMARK INTER:                  -6.892
REMARK INTRA:                  -0.330
REMARK UNBOUND:                -0.298
REMARK  Name = 
REMARK  6 active torsions:
REMARK  status: ('A' for Active; 'I' for Inactive)
REMARK    1  A    between atoms: C_1  and  O_2
REMARK    2  A    between atoms: O_2  and  C_3
REMARK    3  A    between atoms: C_5  and  C_6
REMARK    4  A    between atoms: C_7  and  C_8
REMARK    5  A    between atoms: C_7  and  C_10
REMARK    6  A    between atoms: C_15  and  O_16
REMARK                            x       y       z     vdW  Elec       q    Type
REMARK                         _______ _______ _______ _____ _____    ______ ____
ROOT
ATOM      1  C   UNL     1      26.786   0.703  53.917  0.00  0.00    +0.162 A 
ATOM      2  C   UNL     1      26.114   1.931  53.748  0.00  0.00    -0.009 A 
ATOM      3  C   UNL     1      24.844   1.973  53.146  0.00  0.00    -0.020 A 
ATOM      4  C   UNL     1      24.227   0.774  52.762  0.00  0.00    -0.051 A 
ATOM      5  C   UNL     1      24.887  -0.444  52.930  0.00  0.00    -0.016 A 
ATOM      6  C   UNL     1      26.166  -0.482  53.501  0.00  0.00    +0.158 A 
ENDROOT
BRANCH   1   8
ATOM      7  C   UNL     1      29.283   0.806  53.785  0.00  0.00    +0.079 C 
ATOM      8  O   UNL     1      28.063   0.624  54.496  0.00  0.00    -0.491 OA
ENDBRANCH   1   8
BRANCH   3   9
ATOM      9  C   UNL     1      24.103   3.246  52.982  0.00  0.00    -0.030 C 
ATOM     10  C   UNL     1      24.195   4.058  51.908  0.00  0.00    +0.136 C 
BRANCH  10  11
ATOM     11  C   UNL     1      23.418   5.315  51.840  0.00  0.00    +0.347 C 
ATOM     12  O   UNL     1      22.181   5.324  52.079  0.00  0.00    -0.244 OA
ATOM     13  O   UNL     1      24.057   6.508  51.512  0.00  0.00    -0.477 OA
ENDBRANCH  10  11
BRANCH  10  14
ATOM     14  C   UNL     1      24.999   3.700  50.761  0.00  0.00    +0.106 C 
ATOM     15  N   UNL     1      25.643   3.416  49.842  0.00  0.00    -0.191 NA
ENDBRANCH  10  14
ENDBRANCH   3   9
BRANCH   6  16
ATOM     16  O   UNL     1      26.826  -1.699  53.663  0.00  0.00    -0.503 OA
ATOM     17  H   UNL     1      26.335  -2.480  53.827  0.00  0.00    +0.000 HD
ENDBRANCH   6  16
TORSDOF 5
ENDMDL
MODEL 8
REMARK VINA RESULT:    -5.456      1.850      2.550
REMARK INTER + INTRA:          -7.190
REMARK INTER:                  -6.948
REMARK INTRA:                  -0.242
REMARK UNBOUND:                -0.298
REMARK  Name = 
REMARK  6 active torsions:
REMARK  status: ('A' for Active; 'I' for Inactive)
REMARK    1  A    between atoms: C_1  and  O_2
REMARK    2  A    between atoms: O_2  and  C_3
REMARK    3  A    between atoms: C_5  and  C_6
REMARK    4  A    between atoms: C_7  and  C_8
REMARK    5  A    between atoms: C_7  and  C_10
REMARK    6  A    between atoms: C_15  and  O_16
REMARK                            x       y       z     vdW  Elec       q    Type
REMARK                         _______ _______ _______ _____ _____    ______ ____
ROOT
ATOM      1  C   UNL     1      22.827   1.246  51.212  0.00  0.00    +0.162 A 
ATOM      2  C   UNL     1      24.086   1.549  51.770  0.00  0.00    -0.009 A 
ATOM      3  C   UNL     1      24.463   1.014  53.015  0.00  0.00    -0.020 A 
ATOM      4  C   UNL     1      23.595   0.132  53.673  0.00  0.00    -0.051 A 
ATOM      5  C   UNL     1      22.349  -0.172  53.125  0.00  0.00    -0.016 A 
ATOM      6  C   UNL     1      21.960   0.386  51.899  0.00  0.00    +0.158 A 
ENDROOT
BRANCH   1   8
ATOM      7  C   UNL     1      22.965   2.935  49.371  0.00  0.00    +0.079 C 
ATOM      8  O   UNL     1      22.407   1.777  49.982  0.00  0.00    -0.491 OA
ENDBRANCH   1   8
BRANCH   3   9
ATOM      9  C   UNL     1      25.792   1.293  53.610  0.00  0.00    -0.030 C 
ATOM     10  C   UNL     1      26.836   0.439  53.594  0.00  0.00    +0.136 C 
BRANCH  10  11
ATOM     11  C   UNL     1      28.125   0.807  54.223  0.00  0.00    +0.347 C 
ATOM     12  O   UNL     1      28.686   0.035  55.045  0.00  0.00    -0.244 OA
ATOM     13  O   UNL     1      28.730   2.020  53.903  0.00  0.00    -0.477 OA
ENDBRANCH  10  11
BRANCH  10  14
ATOM     14  C   UNL     1      26.761  -0.830  52.907  0.00  0.00    +0.106 C 
ATOM     15  N   UNL     1      26.701  -1.849  52.359  0.00  0.00    -0.191 NA
ENDBRANCH  10  14
ENDBRANCH   3   9
BRANCH   6  16
ATOM     16  O   UNL     1      20.714   0.084  51.355  0.00  0.00    -0.503 OA
ATOM     17  H   UNL     1      20.124   0.774  51.122  0.00  0.00    +0.000 HD
ENDBRANCH   6  16
TORSDOF 5
ENDMDL
MODEL 9
REMARK VINA RESULT:    -5.384      3.598      4.448
REMARK INTER + INTRA:          -7.098
REMARK INTER:                  -6.841
REMARK INTRA:                  -0.257
REMARK UNBOUND:                -0.298
REMARK  Name = 
REMARK  6 active torsions:
REMARK  status: ('A' for Active; 'I' for Inactive)
REMARK    1  A    between atoms: C_1  and  O_2
REMARK    2  A    between atoms: O_2  and  C_3
REMARK    3  A    between atoms: C_5  and  C_6
REMARK    4  A    between atoms: C_7  and  C_8
REMARK    5  A    between atoms: C_7  and  C_10
REMARK    6  A    between atoms: C_15  and  O_16
REMARK                            x       y       z     vdW  Elec       q    Type
REMARK                         _______ _______ _______ _____ _____    ______ ____
ROOT
ATOM      1  C   UNL     1      24.168  -0.616  54.082  0.00  0.00    +0.162 A 
ATOM      2  C   UNL     1      24.391   0.125  52.904  0.00  0.00    -0.009 A 
ATOM      3  C   UNL     1      25.605   0.808  52.710  0.00  0.00    -0.020 A 
ATOM      4  C   UNL     1      26.614   0.701  53.676  0.00  0.00    -0.051 A 
ATOM      5  C   UNL     1      26.399  -0.034  54.842  0.00  0.00    -0.016 A 
ATOM      6  C   UNL     1      25.177  -0.689  55.050  0.00  0.00    +0.158 A 
ENDROOT
BRANCH   1   8
ATOM      7  C   UNL     1      21.751  -0.668  54.728  0.00  0.00    +0.079 C 
ATOM      8  O   UNL     1      22.962  -1.295  54.320  0.00  0.00    -0.491 OA
ENDBRANCH   1   8
BRANCH   3   9
ATOM      9  C   UNL     1      25.878   1.572  51.468  0.00  0.00    -0.030 C 
ATOM     10  C   UNL     1      25.314   2.756  51.155  0.00  0.00    +0.136 C 
BRANCH  10  11
ATOM     11  C   UNL     1      25.646   3.440  49.885  0.00  0.00    +0.347 C 
ATOM     12  O   UNL     1      26.835   3.493  49.471  0.00  0.00    -0.244 OA
ATOM     13  O   UNL     1      24.635   4.032  49.132  0.00  0.00    -0.477 OA
ENDBRANCH  10  11
BRANCH  10  14
ATOM     14  C   UNL     1      24.423   3.433  52.070  0.00  0.00    +0.106 C 
ATOM     15  N   UNL     1      23.711   3.977  52.803  0.00  0.00    -0.191 NA
ENDBRANCH  10  14
ENDBRANCH   3   9
BRANCH   6  16
ATOM     16  O   UNL     1      24.962  -1.418  56.218  0.00  0.00    -0.503 OA
ATOM     17  H   UNL     1      25.607  -1.417  56.898  0.00  0.00    +0.000 HD
ENDBRANCH   6  16
TORSDOF 5
ENDMDL
