MODEL 1
REMARK VINA RESULT:    -8.784      0.000      0.000
REMARK INTER + INTRA:         -12.610
REMARK INTER:                 -11.866
REMARK INTRA:                  -0.745
REMARK UNBOUND:                -0.745
REMARK  Name = 
REMARK  8 active torsions:
REMARK  status: ('A' for Active; 'I' for Inactive)
REMARK    1  A    between atoms: C_1  and  O_2
REMARK    2  A    between atoms: O_2  and  C_3
REMARK    3  A    between atoms: C_6  and  N_7
REMARK    4  A    between atoms: N_7  and  C_8
REMARK    5  A    between atoms: C_21  and  O_22
REMARK    6  A    between atoms: O_22  and  C_23
REMARK    7  A    between atoms: C_23  and  C_24
REMARK    8  A    between atoms: N_28  and  C_29
REMARK                            x       y       z     vdW  Elec       q    Type
REMARK                         _______ _______ _______ _____ _____    ______ ____
ROOT
ATOM      1  C   UNL     1      22.017   0.280  52.766  0.00  0.00    +0.162 A 
ATOM      2  C   UNL     1      23.271   0.922  52.797  0.00  0.00    -0.004 A 
ATOM      3  C   UNL     1      23.690   1.726  51.723  0.00  0.00    +0.044 A 
ATOM      4  C   UNL     1      24.936   2.390  51.699  0.00  0.00    +0.134 A 
ATOM      5  N   UNL     1      25.278   3.122  50.603  0.00  0.00    -0.220 NA
ATOM      6  C   UNL     1      24.453   3.228  49.530  0.00  0.00    +0.119 A 
ATOM      7  N   UNL     1      23.249   2.607  49.535  0.00  0.00    -0.235 NA
ATOM      8  C   UNL     1      22.848   1.863  50.598  0.00  0.00    +0.080 A 
ATOM      9  C   UNL     1      21.603   1.229  50.569  0.00  0.00    +0.010 A 
ATOM     10  C   UNL     1      21.181   0.434  51.650  0.00  0.00    +0.164 A 
ENDROOT
BRANCH   1  12
ATOM     11  C   UNL     1      22.400  -1.061  54.847  0.00  0.00    +0.079 C 
ATOM     12  O   UNL     1      21.566  -0.527  53.824  0.00  0.00    -0.491 OA
ENDBRANCH   1  12
BRANCH   4  13
ATOM     13  N   UNL     1      25.826   2.362  52.828  0.00  0.00    -0.297 N 
ATOM     14  H   UNL     1      25.740   3.068  53.510  0.00  0.00    +0.000 HD
BRANCH  13  15
ATOM     15  C   UNL     1      26.836   1.354  53.010  0.00  0.00    +0.068 A 
ATOM     16  C   UNL     1      26.575   0.003  52.711  0.00  0.00    -0.036 A 
ATOM     17  C   UNL     1      27.559  -0.969  52.914  0.00  0.00    -0.041 A 
ATOM     18  C   UNL     1      28.808  -0.608  53.426  0.00  0.00    +0.044 A 
ATOM     19 CL   UNL     1      30.041  -1.829  53.681  0.00  0.00    -0.083 Cl
ATOM     20  C   UNL     1      29.071   0.730  53.742  0.00  0.00    -0.006 A 
ATOM     21  C   UNL     1      28.090   1.705  53.543  0.00  0.00    +0.146 A 
ATOM     22  F   UNL     1      28.367   2.997  53.854  0.00  0.00    -0.203 F 
ENDBRANCH  13  15
ENDBRANCH   4  13
BRANCH  10  23
ATOM     23  O   UNL     1      19.937  -0.221  51.661  0.00  0.00    -0.488 OA
BRANCH  23  24
ATOM     24  C   UNL     1      18.689   0.362  52.039  0.00  0.00    +0.094 C 
BRANCH  24  25
ATOM     25  C   UNL     1      17.811  -0.646  52.806  0.00  0.00    +0.006 C 
ATOM     26  C   UNL     1      18.635  -1.885  53.195  0.00  0.00    -0.045 C 
ATOM     27  C   UNL     1      17.751  -2.930  53.881  0.00  0.00    -0.040 C 
ATOM     28  C   UNL     1      16.537  -3.262  53.008  0.00  0.00    -0.001 C 
ATOM     29  N   UNL     1      15.763  -2.039  52.720  0.00  0.00    -0.305 N 
ATOM     30  C   UNL     1      14.559  -2.378  51.947  0.00  0.00    -0.013 C 
ATOM     31  C   UNL     1      16.588  -1.069  51.969  0.00  0.00    +0.005 C 
ATOM     32  H   UNL     1      15.486  -1.612  53.604  0.00  0.00    +0.000 HD
ENDBRANCH  24  25
ENDBRANCH  23  24
ENDBRANCH  10  23
TORSDOF 6
ENDMDL
MODEL 2
REMARK VINA RESULT:    -8.682      0.938      1.071
REMARK INTER + INTRA:         -12.472
REMARK INTER:                 -11.653
REMARK INTRA:                  -0.819
REMARK UNBOUND:                -0.745
REMARK  Name = 
REMARK  8 active torsions:
REMARK  status: ('A' for Active; 'I' for Inactive)
REMARK    1  A    between atoms: C_1  and  O_2
REMARK    2  A    between atoms: O_2  and  C_3
REMARK    3  A    between atoms: C_6  and  N_7
REMARK    4  A    between atoms: N_7  and  C_8
REMARK    5  A    between atoms: C_21  and  O_22
REMARK    6  A    between atoms: O_22  and  C_23
REMARK    7  A    between atoms: C_23  and  C_24
REMARK    8  A    between atoms: N_28  and  C_29
REMARK                            x       y       z     vdW  Elec       q    Type
REMARK                         _______ _______ _______ _____ _____    ______ ____
ROOT
ATOM      1  C   UNL     1      22.243   0.540  52.295  0.00  0.00    +0.162 A 
ATOM      2  C   UNL     1      23.506   1.137  52.478  0.00  0.00    -0.004 A 
ATOM      3  C   UNL     1      24.032   2.010  51.510  0.00  0.00    +0.044 A 
ATOM      4  C   UNL     1      25.292   2.634  51.640  0.00  0.00    +0.134 A 
ATOM      5  N   UNL     1      25.741   3.440  50.638  0.00  0.00    -0.220 NA
ATOM      6  C   UNL     1      25.009   3.658  49.516  0.00  0.00    +0.119 A 
ATOM      7  N   UNL     1      23.793   3.078  49.375  0.00  0.00    -0.235 NA
ATOM      8  C   UNL     1      23.288   2.264  50.337  0.00  0.00    +0.080 A 
ATOM      9  C   UNL     1      22.033   1.675  50.158  0.00  0.00    +0.010 A 
ATOM     10  C   UNL     1      21.505   0.810  51.134  0.00  0.00    +0.164 A 
ENDROOT
BRANCH   1  12
ATOM     11  C   UNL     1      21.209   0.059  54.525  0.00  0.00    +0.079 C 
ATOM     12  O   UNL     1      21.688  -0.334  53.244  0.00  0.00    -0.491 OA
ENDBRANCH   1  12
BRANCH   4  13
ATOM     13  N   UNL     1      26.087   2.487  52.829  0.00  0.00    -0.297 N 
ATOM     14  H   UNL     1      25.959   3.133  53.562  0.00  0.00    +0.000 HD
BRANCH  13  15
ATOM     15  C   UNL     1      27.060   1.441  53.002  0.00  0.00    +0.068 A 
ATOM     16  C   UNL     1      26.723   0.093  52.779  0.00  0.00    -0.036 A 
ATOM     17  C   UNL     1      27.673  -0.915  52.973  0.00  0.00    -0.041 A 
ATOM     18  C   UNL     1      28.963  -0.591  53.401  0.00  0.00    +0.044 A 
ATOM     19 CL   UNL     1      30.153  -1.857  53.644  0.00  0.00    -0.083 Cl
ATOM     20  C   UNL     1      29.302   0.745  53.641  0.00  0.00    -0.006 A 
ATOM     21  C   UNL     1      28.356   1.756  53.451  0.00  0.00    +0.146 A 
ATOM     22  F   UNL     1      28.707   3.046  53.687  0.00  0.00    -0.203 F 
ENDBRANCH  13  15
ENDBRANCH   4  13
BRANCH  10  23
ATOM     23  O   UNL     1      20.247   0.196  50.992  0.00  0.00    -0.488 OA
BRANCH  23  24
ATOM     24  C   UNL     1      19.049   0.838  50.555  0.00  0.00    +0.094 C 
BRANCH  24  25
ATOM     25  C   UNL     1      17.827   0.343  51.353  0.00  0.00    +0.006 C 
ATOM     26  C   UNL     1      18.256  -0.713  52.386  0.00  0.00    -0.045 C 
ATOM     27  C   UNL     1      17.038  -1.275  53.124  0.00  0.00    -0.040 C 
ATOM     28  C   UNL     1      15.999  -1.794  52.126  0.00  0.00    -0.001 C 
ATOM     29  N   UNL     1      15.592  -0.717  51.202  0.00  0.00    -0.305 N 
ATOM     30  C   UNL     1      14.539  -1.202  50.298  0.00  0.00    -0.013 C 
ATOM     31  C   UNL     1      16.751  -0.243  50.417  0.00  0.00    +0.005 C 
ATOM     32  H   UNL     1      15.231   0.064  51.751  0.00  0.00    +0.000 HD
ENDBRANCH  24  25
ENDBRANCH  23  24
ENDBRANCH  10  23
TORSDOF 6
ENDMDL
MODEL 3
REMARK VINA RESULT:    -8.639      2.085      3.454
REMARK INTER + INTRA:         -12.413
REMARK INTER:                 -11.516
REMARK INTRA:                  -0.898
REMARK UNBOUND:                -0.745
REMARK  Name = 
REMARK  8 active torsions:
REMARK  status: ('A' for Active; 'I' for Inactive)
REMARK    1  A    between atoms: C_1  and  O_2
REMARK    2  A    between atoms: O_2  and  C_3
REMARK    3  A    between atoms: C_6  and  N_7
REMARK    4  A    between atoms: N_7  and  C_8
REMARK    5  A    between atoms: C_21  and  O_22
REMARK    6  A    between atoms: O_22  and  C_23
REMARK    7  A    between atoms: C_23  and  C_24
REMARK    8  A    between atoms: N_28  and  C_29
REMARK                            x       y       z     vdW  Elec       q    Type
REMARK                         _______ _______ _______ _____ _____    ______ ____
ROOT
ATOM      1  C   UNL     1      20.442   0.760  51.132  0.00  0.00    +0.162 A 
ATOM      2  C   UNL     1      21.753   0.752  51.649  0.00  0.00    -0.004 A 
ATOM      3  C   UNL     1      22.057   0.029  52.816  0.00  0.00    +0.044 A 
ATOM      4  C   UNL     1      23.352  -0.012  53.379  0.00  0.00    +0.134 A 
ATOM      5  N   UNL     1      23.553  -0.709  54.532  0.00  0.00    -0.220 NA
ATOM      6  C   UNL     1      22.541  -1.364  55.155  0.00  0.00    +0.119 A 
ATOM      7  N   UNL     1      21.292  -1.346  54.627  0.00  0.00    -0.235 NA
ATOM      8  C   UNL     1      21.026  -0.670  53.479  0.00  0.00    +0.080 A 
ATOM      9  C   UNL     1      19.727  -0.665  52.964  0.00  0.00    +0.010 A 
ATOM     10  C   UNL     1      19.427   0.050  51.790  0.00  0.00    +0.164 A 
ENDROOT
BRANCH   1  12
ATOM     11  C   UNL     1      20.901   1.515  48.788  0.00  0.00    +0.079 C 
ATOM     12  O   UNL     1      20.105   1.469  49.968  0.00  0.00    -0.491 OA
ENDBRANCH   1  12
BRANCH   4  13
ATOM     13  N   UNL     1      24.475   0.613  52.735  0.00  0.00    -0.297 N 
ATOM     14  H   UNL     1      24.301   1.329  52.080  0.00  0.00    +0.000 HD
BRANCH  13  15
ATOM     15  C   UNL     1      25.841   0.247  53.001  0.00  0.00    +0.068 A 
ATOM     16  C   UNL     1      26.381  -0.952  52.499  0.00  0.00    -0.036 A 
ATOM     17  C   UNL     1      27.704  -1.305  52.783  0.00  0.00    -0.041 A 
ATOM     18  C   UNL     1      28.497  -0.475  53.580  0.00  0.00    +0.044 A 
ATOM     19 CL   UNL     1      30.155  -0.921  53.937  0.00  0.00    -0.083 Cl
ATOM     20  C   UNL     1      27.963   0.710  54.098  0.00  0.00    -0.006 A 
ATOM     21  C   UNL     1      26.641   1.067  53.817  0.00  0.00    +0.146 A 
ATOM     22  F   UNL     1      26.144   2.223  54.328  0.00  0.00    -0.203 F 
ENDBRANCH  13  15
ENDBRANCH   4  13
BRANCH  10  23
ATOM     23  O   UNL     1      18.134   0.082  51.239  0.00  0.00    -0.488 OA
BRANCH  23  24
ATOM     24  C   UNL     1      17.013   0.780  51.781  0.00  0.00    +0.094 C 
BRANCH  24  25
ATOM     25  C   UNL     1      16.052  -0.183  52.505  0.00  0.00    +0.006 C 
ATOM     26  C   UNL     1      15.690  -1.365  51.589  0.00  0.00    -0.045 C 
ATOM     27  C   UNL     1      14.668  -2.281  52.268  0.00  0.00    -0.040 C 
ATOM     28  C   UNL     1      13.448  -1.478  52.727  0.00  0.00    -0.001 C 
ATOM     29  N   UNL     1      13.862  -0.398  53.644  0.00  0.00    -0.305 N 
ATOM     30  C   UNL     1      12.678   0.320  54.141  0.00  0.00    -0.013 C 
ATOM     31  C   UNL     1      14.770   0.544  52.958  0.00  0.00    +0.005 C 
ATOM     32  H   UNL     1      14.359  -0.812  54.432  0.00  0.00    +0.000 HD
ENDBRANCH  24  25
ENDBRANCH  23  24
ENDBRANCH  10  23
TORSDOF 6
ENDMDL
MODEL 4
REMARK VINA RESULT:    -8.363      2.716      4.048
REMARK INTER + INTRA:         -12.042
REMARK INTER:                 -11.232
REMARK INTRA:                  -0.810
REMARK UNBOUND:                -0.745
REMARK  Name = 
REMARK  8 active torsions:
REMARK  status: ('A' for Active; 'I' for Inactive)
REMARK    1  A    between atoms: C_1  and  O_2
REMARK    2  A    between atoms: O_2  and  C_3
REMARK    3  A    between atoms: C_6  and  N_7
REMARK    4  A    between atoms: N_7  and  C_8
REMARK    5  A    between atoms: C_21  and  O_22
REMARK    6  A    between atoms: O_22  and  C_23
REMARK    7  A    between atoms: C_23  and  C_24
REMARK    8  A    between atoms: N_28  and  C_29
REMARK                            x       y       z     vdW  Elec       q    Type
REMARK                         _______ _______ _______ _____ _____    ______ ____
ROOT
ATOM      1  C   UNL     1      20.504   1.184  51.061  0.00  0.00    +0.162 A 
ATOM      2  C   UNL     1      21.808   1.069  51.585  0.00  0.00    -0.004 A 
ATOM      3  C   UNL     1      22.062   0.244  52.694  0.00  0.00    +0.044 A 
ATOM      4  C   UNL     1      23.346   0.092  53.262  0.00  0.00    +0.134 A 
ATOM      5  N   UNL     1      23.499  -0.701  54.358  0.00  0.00    -0.220 NA
ATOM      6  C   UNL     1      22.448  -1.348  54.922  0.00  0.00    +0.119 A 
ATOM      7  N   UNL     1      21.208  -1.225  54.389  0.00  0.00    -0.235 NA
ATOM      8  C   UNL     1      20.989  -0.450  53.295  0.00  0.00    +0.080 A 
ATOM      9  C   UNL     1      19.698  -0.338  52.773  0.00  0.00    +0.010 A 
ATOM     10  C   UNL     1      19.448   0.479  51.656  0.00  0.00    +0.164 A 
ENDROOT
BRANCH   1  12
ATOM     11  C   UNL     1      20.799   1.843  48.663  0.00  0.00    +0.079 C 
ATOM     12  O   UNL     1      20.216   1.997  49.953  0.00  0.00    -0.491 OA
ENDBRANCH   1  12
BRANCH   4  13
ATOM     13  N   UNL     1      24.507   0.706  52.675  0.00  0.00    -0.297 N 
ATOM     14  H   UNL     1      24.375   1.460  52.055  0.00  0.00    +0.000 HD
BRANCH  13  15
ATOM     15  C   UNL     1      25.851   0.274  52.951  0.00  0.00    +0.068 A 
ATOM     16  C   UNL     1      26.316  -0.979  52.508  0.00  0.00    -0.036 A 
ATOM     17  C   UNL     1      27.618  -1.395  52.802  0.00  0.00    -0.041 A 
ATOM     18  C   UNL     1      28.466  -0.572  53.548  0.00  0.00    +0.044 A 
ATOM     19 CL   UNL     1      30.099  -1.096  53.917  0.00  0.00    -0.083 Cl
ATOM     20  C   UNL     1      28.008   0.667  54.007  0.00  0.00    -0.006 A 
ATOM     21  C   UNL     1      26.706   1.087  53.718  0.00  0.00    +0.146 A 
ATOM     22  F   UNL     1      26.283   2.295  54.170  0.00  0.00    -0.203 F 
ENDBRANCH  13  15
ENDBRANCH   4  13
BRANCH  10  23
ATOM     23  O   UNL     1      18.164   0.620  51.100  0.00  0.00    -0.488 OA
BRANCH  23  24
ATOM     24  C   UNL     1      16.932   0.316  51.755  0.00  0.00    +0.094 C 
BRANCH  24  25
ATOM     25  C   UNL     1      15.935   1.485  51.641  0.00  0.00    +0.006 C 
ATOM     26  C   UNL     1      16.673   2.830  51.750  0.00  0.00    -0.045 C 
ATOM     27  C   UNL     1      15.681   3.996  51.725  0.00  0.00    -0.040 C 
ATOM     28  C   UNL     1      14.605   3.809  52.799  0.00  0.00    -0.001 C 
ATOM     29  N   UNL     1      13.902   2.527  52.601  0.00  0.00    -0.305 N 
ATOM     30  C   UNL     1      12.820   2.390  53.588  0.00  0.00    -0.013 C 
ATOM     31  C   UNL     1      14.843   1.394  52.726  0.00  0.00    +0.005 C 
ATOM     32  H   UNL     1      13.503   2.515  51.662  0.00  0.00    +0.000 HD
ENDBRANCH  24  25
ENDBRANCH  23  24
ENDBRANCH  10  23
TORSDOF 6
ENDMDL
MODEL 5
REMARK VINA RESULT:    -7.942      4.320      8.909
REMARK INTER + INTRA:         -11.472
REMARK INTER:                 -10.481
REMARK INTRA:                  -0.991
REMARK UNBOUND:                -0.745
REMARK  Name = 
REMARK  8 active torsions:
REMARK  status: ('A' for Active; 'I' for Inactive)
REMARK    1  A    between atoms: C_1  and  O_2
REMARK    2  A    between atoms: O_2  and  C_3
REMARK    3  A    between atoms: C_6  and  N_7
REMARK    4  A    between atoms: N_7  and  C_8
REMARK    5  A    between atoms: C_21  and  O_22
REMARK    6  A    between atoms: O_22  and  C_23
REMARK    7  A    between atoms: C_23  and  C_24
REMARK    8  A    between atoms: N_28  and  C_29
REMARK                            x       y       z     vdW  Elec       q    Type
REMARK                         _______ _______ _______ _____ _____    ______ ____
ROOT
ATOM      1  C   UNL     1      22.652   0.162  53.433  0.00  0.00    +0.162 A 
ATOM      2  C   UNL     1      21.543   0.974  53.124  0.00  0.00    -0.004 A 
ATOM      3  C   UNL     1      21.726   2.249  52.560  0.00  0.00    +0.044 A 
ATOM      4  C   UNL     1      20.652   3.106  52.232  0.00  0.00    +0.134 A 
ATOM      5  N   UNL     1      20.920   4.340  51.720  0.00  0.00    -0.220 NA
ATOM      6  C   UNL     1      22.191   4.768  51.520  0.00  0.00    +0.119 A 
ATOM      7  N   UNL     1      23.237   3.959  51.818  0.00  0.00    -0.235 NA
ATOM      8  C   UNL     1      23.038   2.717  52.330  0.00  0.00    +0.080 A 
ATOM      9  C   UNL     1      24.137   1.909  52.634  0.00  0.00    +0.010 A 
ATOM     10  C   UNL     1      23.951   0.629  53.187  0.00  0.00    +0.164 A 
ENDROOT
BRANCH   1  12
ATOM     11  C   UNL     1      21.267  -1.679  54.418  0.00  0.00    +0.079 C 
ATOM     12  O   UNL     1      22.504  -1.118  53.994  0.00  0.00    -0.491 OA
ENDBRANCH   1  12
BRANCH   4  13
ATOM     13  N   UNL     1      19.284   2.686  52.368  0.00  0.00    -0.297 N 
ATOM     14  H   UNL     1      18.927   2.540  53.274  0.00  0.00    +0.000 HD
BRANCH  13  15
ATOM     15  C   UNL     1      18.410   2.471  51.246  0.00  0.00    +0.068 A 
ATOM     16  C   UNL     1      17.614   3.515  50.735  0.00  0.00    -0.036 A 
ATOM     17  C   UNL     1      16.753   3.285  49.658  0.00  0.00    -0.041 A 
ATOM     18  C   UNL     1      16.669   2.013  49.085  0.00  0.00    +0.044 A 
ATOM     19 CL   UNL     1      15.587   1.727  47.734  0.00  0.00    -0.083 Cl
ATOM     20  C   UNL     1      17.443   0.966  49.597  0.00  0.00    -0.006 A 
ATOM     21  C   UNL     1      18.304   1.190  50.675  0.00  0.00    +0.146 A 
ATOM     22  F   UNL     1      19.048   0.160  51.154  0.00  0.00    -0.203 F 
ENDBRANCH  13  15
ENDBRANCH   4  13
BRANCH  10  23
ATOM     23  O   UNL     1      25.029  -0.215  53.508  0.00  0.00    -0.488 OA
BRANCH  23  24
ATOM     24  C   UNL     1      25.780  -1.000  52.581  0.00  0.00    +0.094 C 
BRANCH  24  25
ATOM     25  C   UNL     1      27.266  -0.593  52.581  0.00  0.00    +0.006 C 
ATOM     26  C   UNL     1      28.120  -1.690  53.240  0.00  0.00    -0.045 C 
ATOM     27  C   UNL     1      29.587  -1.258  53.323  0.00  0.00    -0.040 C 
ATOM     28  C   UNL     1      29.707   0.100  54.019  0.00  0.00    -0.001 C 
ATOM     29  N   UNL     1      28.909   1.115  53.305  0.00  0.00    -0.305 N 
ATOM     30  C   UNL     1      29.091   2.432  53.933  0.00  0.00    -0.013 C 
ATOM     31  C   UNL     1      27.477   0.748  53.312  0.00  0.00    +0.005 C 
ATOM     32  H   UNL     1      29.228   1.158  52.336  0.00  0.00    +0.000 HD
ENDBRANCH  24  25
ENDBRANCH  23  24
ENDBRANCH  10  23
TORSDOF 6
ENDMDL
MODEL 6
REMARK VINA RESULT:    -7.929      2.028      2.671
REMARK INTER + INTRA:         -11.455
REMARK INTER:                 -10.422
REMARK INTRA:                  -1.033
REMARK UNBOUND:                -0.745
REMARK  Name = 
REMARK  8 active torsions:
REMARK  status: ('A' for Active; 'I' for Inactive)
REMARK    1  A    between atoms: C_1  and  O_2
REMARK    2  A    between atoms: O_2  and  C_3
REMARK    3  A    between atoms: C_6  and  N_7
REMARK    4  A    between atoms: N_7  and  C_8
REMARK    5  A    between atoms: C_21  and  O_22
REMARK    6  A    between atoms: O_22  and  C_23
REMARK    7  A    between atoms: C_23  and  C_24
REMARK    8  A    between atoms: N_28  and  C_29
REMARK                            x       y       z     vdW  Elec       q    Type
REMARK                         _______ _______ _______ _____ _____    ______ ____
ROOT
ATOM      1  C   UNL     1      21.971   1.901  51.652  0.00  0.00    +0.162 A 
ATOM      2  C   UNL     1      23.322   2.039  52.030  0.00  0.00    -0.004 A 
ATOM      3  C   UNL     1      24.235   2.699  51.189  0.00  0.00    +0.044 A 
ATOM      4  C   UNL     1      25.599   2.865  51.516  0.00  0.00    +0.134 A 
ATOM      5  N   UNL     1      26.424   3.487  50.628  0.00  0.00    -0.220 NA
ATOM      6  C   UNL     1      25.969   3.950  49.437  0.00  0.00    +0.119 A 
ATOM      7  N   UNL     1      24.662   3.811  49.107  0.00  0.00    -0.235 NA
ATOM      8  C   UNL     1      23.788   3.201  49.948  0.00  0.00    +0.080 A 
ATOM      9  C   UNL     1      22.448   3.066  49.576  0.00  0.00    +0.010 A 
ATOM     10  C   UNL     1      21.533   2.416  50.423  0.00  0.00    +0.164 A 
ENDROOT
BRANCH   1  12
ATOM     11  C   UNL     1      21.134  -0.103  52.901  0.00  0.00    +0.079 C 
ATOM     12  O   UNL     1      21.032   1.250  52.469  0.00  0.00    -0.491 OA
ENDBRANCH   1  12
BRANCH   4  13
ATOM     13  N   UNL     1      26.127   2.447  52.787  0.00  0.00    -0.297 N 
ATOM     14  H   UNL     1      25.890   2.969  53.588  0.00  0.00    +0.000 HD
BRANCH  13  15
ATOM     15  C   UNL     1      26.983   1.302  52.946  0.00  0.00    +0.068 A 
ATOM     16  C   UNL     1      26.509   0.001  52.692  0.00  0.00    -0.036 A 
ATOM     17  C   UNL     1      27.347  -1.105  52.872  0.00  0.00    -0.041 A 
ATOM     18  C   UNL     1      28.659  -0.926  53.317  0.00  0.00    +0.044 A 
ATOM     19 CL   UNL     1      29.708  -2.314  53.544  0.00  0.00    -0.083 Cl
ATOM     20  C   UNL     1      29.133   0.362  53.589  0.00  0.00    -0.006 A 
ATOM     21  C   UNL     1      28.300   1.470  53.413  0.00  0.00    +0.146 A 
ATOM     22  F   UNL     1      28.781   2.711  53.679  0.00  0.00    -0.203 F 
ENDBRANCH  13  15
ENDBRANCH   4  13
BRANCH  10  23
ATOM     23  O   UNL     1      20.177   2.258  50.087  0.00  0.00    -0.488 OA
BRANCH  23  24
ATOM     24  C   UNL     1      19.131   3.185  50.379  0.00  0.00    +0.094 C 
BRANCH  24  25
ATOM     25  C   UNL     1      18.096   2.574  51.343  0.00  0.00    +0.006 C 
ATOM     26  C   UNL     1      17.745   1.140  50.912  0.00  0.00    -0.045 C 
ATOM     27  C   UNL     1      16.653   0.556  51.813  0.00  0.00    -0.040 C 
ATOM     28  C   UNL     1      15.439   1.487  51.858  0.00  0.00    -0.001 C 
ATOM     29  N   UNL     1      15.838   2.827  52.332  0.00  0.00    -0.305 N 
ATOM     30  C   UNL     1      14.655   3.692  52.446  0.00  0.00    -0.013 C 
ATOM     31  C   UNL     1      16.818   3.433  51.406  0.00  0.00    +0.005 C 
ATOM     32  H   UNL     1      16.274   2.732  53.249  0.00  0.00    +0.000 HD
ENDBRANCH  24  25
ENDBRANCH  23  24
ENDBRANCH  10  23
TORSDOF 6
ENDMDL
MODEL 7
REMARK VINA RESULT:    -7.881      2.070      2.843
REMARK INTER + INTRA:         -11.390
REMARK INTER:                 -10.460
REMARK INTRA:                  -0.930
REMARK UNBOUND:                -0.745
REMARK  Name = 
REMARK  8 active torsions:
REMARK  status: ('A' for Active; 'I' for Inactive)
REMARK    1  A    between atoms: C_1  and  O_2
REMARK    2  A    between atoms: O_2  and  C_3
REMARK    3  A    between atoms: C_6  and  N_7
REMARK    4  A    between atoms: N_7  and  C_8
REMARK    5  A    between atoms: C_21  and  O_22
REMARK    6  A    between atoms: O_22  and  C_23
REMARK    7  A    between atoms: C_23  and  C_24
REMARK    8  A    between atoms: N_28  and  C_29
REMARK                            x       y       z     vdW  Elec       q    Type
REMARK                         _______ _______ _______ _____ _____    ______ ____
ROOT
ATOM      1  C   UNL     1      21.259   0.175  52.946  0.00  0.00    +0.162 A 
ATOM      2  C   UNL     1      22.511   0.814  53.040  0.00  0.00    -0.004 A 
ATOM      3  C   UNL     1      23.024   1.545  51.953  0.00  0.00    +0.044 A 
ATOM      4  C   UNL     1      24.272   2.204  51.990  0.00  0.00    +0.134 A 
ATOM      5  N   UNL     1      24.710   2.860  50.880  0.00  0.00    -0.220 NA
ATOM      6  C   UNL     1      23.978   2.896  49.738  0.00  0.00    +0.119 A 
ATOM      7  N   UNL     1      22.773   2.279  49.683  0.00  0.00    -0.235 NA
ATOM      8  C   UNL     1      22.279   1.608  50.756  0.00  0.00    +0.080 A 
ATOM      9  C   UNL     1      21.036   0.976  50.665  0.00  0.00    +0.010 A 
ATOM     10  C   UNL     1      20.520   0.256  51.757  0.00  0.00    +0.164 A 
ENDROOT
BRANCH   1  12
ATOM     11  C   UNL     1      21.150  -1.857  54.407  0.00  0.00    +0.079 C 
ATOM     12  O   UNL     1      20.716  -0.560  54.014  0.00  0.00    -0.491 OA
ENDBRANCH   1  12
BRANCH   4  13
ATOM     13  N   UNL     1      25.066   2.249  53.189  0.00  0.00    -0.297 N 
ATOM     14  H   UNL     1      24.735   2.779  53.950  0.00  0.00    +0.000 HD
BRANCH  13  15
ATOM     15  C   UNL     1      26.319   1.556  53.330  0.00  0.00    +0.068 A 
ATOM     16  C   UNL     1      27.534   2.264  53.406  0.00  0.00    -0.036 A 
ATOM     17  C   UNL     1      28.746   1.576  53.522  0.00  0.00    -0.041 A 
ATOM     18  C   UNL     1      28.761   0.179  53.552  0.00  0.00    +0.044 A 
ATOM     19 CL   UNL     1      30.283  -0.681  53.696  0.00  0.00    -0.083 Cl
ATOM     20  C   UNL     1      27.560  -0.532  53.460  0.00  0.00    -0.006 A 
ATOM     21  C   UNL     1      26.346   0.150  53.343  0.00  0.00    +0.146 A 
ATOM     22  F   UNL     1      25.192  -0.560  53.258  0.00  0.00    -0.203 F 
ENDBRANCH  13  15
ENDBRANCH   4  13
BRANCH  10  23
ATOM     23  O   UNL     1      19.274  -0.395  51.708  0.00  0.00    -0.488 OA
BRANCH  23  24
ATOM     24  C   UNL     1      18.102  -0.010  52.426  0.00  0.00    +0.094 C 
BRANCH  24  25
ATOM     25  C   UNL     1      17.022   0.544  51.477  0.00  0.00    +0.006 C 
ATOM     26  C   UNL     1      17.143  -0.111  50.090  0.00  0.00    -0.045 C 
ATOM     27  C   UNL     1      16.129   0.495  49.115  0.00  0.00    -0.040 C 
ATOM     28  C   UNL     1      16.268   2.020  49.077  0.00  0.00    -0.001 C 
ATOM     29  N   UNL     1      16.087   2.585  50.428  0.00  0.00    -0.305 N 
ATOM     30  C   UNL     1      16.144   4.053  50.370  0.00  0.00    -0.013 C 
ATOM     31  C   UNL     1      17.127   2.076  51.346  0.00  0.00    +0.005 C 
ATOM     32  H   UNL     1      15.173   2.298  50.782  0.00  0.00    +0.000 HD
ENDBRANCH  24  25
ENDBRANCH  23  24
ENDBRANCH  10  23
TORSDOF 6
ENDMDL
MODEL 8
REMARK VINA RESULT:    -7.872      3.552      6.414
REMARK INTER + INTRA:         -11.378
REMARK INTER:                 -10.099
REMARK INTRA:                  -1.279
REMARK UNBOUND:                -0.745
REMARK  Name = 
REMARK  8 active torsions:
REMARK  status: ('A' for Active; 'I' for Inactive)
REMARK    1  A    between atoms: C_1  and  O_2
REMARK    2  A    between atoms: O_2  and  C_3
REMARK    3  A    between atoms: C_6  and  N_7
REMARK    4  A    between atoms: N_7  and  C_8
REMARK    5  A    between atoms: C_21  and  O_22
REMARK    6  A    between atoms: O_22  and  C_23
REMARK    7  A    between atoms: C_23  and  C_24
REMARK    8  A    between atoms: N_28  and  C_29
REMARK                            x       y       z     vdW  Elec       q    Type
REMARK                         _______ _______ _______ _____ _____    ______ ____
ROOT
ATOM      1  C   UNL     1      22.062   2.113  50.534  0.00  0.00    +0.162 A 
ATOM      2  C   UNL     1      22.817   1.206  51.304  0.00  0.00    -0.004 A 
ATOM      3  C   UNL     1      22.296   0.672  52.496  0.00  0.00    +0.044 A 
ATOM      4  C   UNL     1      23.010  -0.238  53.307  0.00  0.00    +0.134 A 
ATOM      5  N   UNL     1      22.445  -0.680  54.464  0.00  0.00    -0.220 NA
ATOM      6  C   UNL     1      21.214  -0.267  54.860  0.00  0.00    +0.119 A 
ATOM      7  N   UNL     1      20.508   0.598  54.092  0.00  0.00    -0.235 NA
ATOM      8  C   UNL     1      21.014   1.076  52.927  0.00  0.00    +0.080 A 
ATOM      9  C   UNL     1      20.264   1.972  52.161  0.00  0.00    +0.010 A 
ATOM     10  C   UNL     1      20.782   2.496  50.963  0.00  0.00    +0.164 A 
ENDROOT
BRANCH   1  12
ATOM     11  C   UNL     1      23.805   3.321  49.202  0.00  0.00    +0.079 C 
ATOM     12  O   UNL     1      22.550   2.662  49.338  0.00  0.00    -0.491 OA
ENDBRANCH   1  12
BRANCH   4  13
ATOM     13  N   UNL     1      24.292  -0.755  52.912  0.00  0.00    -0.297 N 
ATOM     14  H   UNL     1      24.319  -1.580  52.374  0.00  0.00    +0.000 HD
BRANCH  13  15
ATOM     15  C   UNL     1      25.538  -0.126  53.263  0.00  0.00    +0.068 A 
ATOM     16  C   UNL     1      26.280   0.596  52.310  0.00  0.00    -0.036 A 
ATOM     17  C   UNL     1      27.500   1.183  52.661  0.00  0.00    -0.041 A 
ATOM     18  C   UNL     1      27.996   1.048  53.960  0.00  0.00    +0.044 A 
ATOM     19 CL   UNL     1      29.527   1.785  54.397  0.00  0.00    -0.083 Cl
ATOM     20  C   UNL     1      27.274   0.318  54.909  0.00  0.00    -0.006 A 
ATOM     21  C   UNL     1      26.054  -0.273  54.564  0.00  0.00    +0.146 A 
ATOM     22  F   UNL     1      25.368  -0.974  55.501  0.00  0.00    -0.203 F 
ENDBRANCH  13  15
ENDBRANCH   4  13
BRANCH  10  23
ATOM     23  O   UNL     1      20.061   3.401  50.164  0.00  0.00    -0.488 OA
BRANCH  23  24
ATOM     24  C   UNL     1      19.806   4.771  50.476  0.00  0.00    +0.094 C 
BRANCH  24  25
ATOM     25  C   UNL     1      20.922   5.685  49.934  0.00  0.00    +0.006 C 
ATOM     26  C   UNL     1      21.905   6.052  51.058  0.00  0.00    -0.045 C 
ATOM     27  C   UNL     1      22.968   7.030  50.549  0.00  0.00    -0.040 C 
ATOM     28  C   UNL     1      22.309   8.250  49.901  0.00  0.00    -0.001 C 
ATOM     29  N   UNL     1      21.423   7.829  48.798  0.00  0.00    -0.305 N 
ATOM     30  C   UNL     1      20.855   9.010  48.131  0.00  0.00    -0.013 C 
ATOM     31  C   UNL     1      20.337   6.965  49.306  0.00  0.00    +0.005 C 
ATOM     32  H   UNL     1      21.974   7.295  48.124  0.00  0.00    +0.000 HD
ENDBRANCH  24  25
ENDBRANCH  23  24
ENDBRANCH  10  23
TORSDOF 6
ENDMDL
MODEL 9
REMARK VINA RESULT:    -7.830      4.837      9.826
REMARK INTER + INTRA:         -11.321
REMARK INTER:                 -10.292
REMARK INTRA:                  -1.029
REMARK UNBOUND:                -0.745
REMARK  Name = 
REMARK  8 active torsions:
REMARK  status: ('A' for Active; 'I' for Inactive)
REMARK    1  A    between atoms: C_1  and  O_2
REMARK    2  A    between atoms: O_2  and  C_3
REMARK    3  A    between atoms: C_6  and  N_7
REMARK    4  A    between atoms: N_7  and  C_8
REMARK    5  A    between atoms: C_21  and  O_22
REMARK    6  A    between atoms: O_22  and  C_23
REMARK    7  A    between atoms: C_23  and  C_24
REMARK    8  A    between atoms: N_28  and  C_29
REMARK                            x       y       z     vdW  Elec       q    Type
REMARK                         _______ _______ _______ _____ _____    ______ ____
ROOT
ATOM      1  C   UNL     1      21.502   1.703  50.788  0.00  0.00    +0.162 A 
ATOM      2  C   UNL     1      20.129   1.400  50.874  0.00  0.00    -0.004 A 
ATOM      3  C   UNL     1      19.661   0.462  51.812  0.00  0.00    +0.044 A 
ATOM      4  C   UNL     1      18.297   0.118  51.941  0.00  0.00    +0.134 A 
ATOM      5  N   UNL     1      17.933  -0.826  52.852  0.00  0.00    -0.220 NA
ATOM      6  C   UNL     1      18.848  -1.448  53.638  0.00  0.00    +0.119 A 
ATOM      7  N   UNL     1      20.161  -1.127  53.538  0.00  0.00    -0.235 NA
ATOM      8  C   UNL     1      20.589  -0.193  52.650  0.00  0.00    +0.080 A 
ATOM      9  C   UNL     1      21.950   0.111  52.567  0.00  0.00    +0.010 A 
ATOM     10  C   UNL     1      22.415   1.058  51.636  0.00  0.00    +0.164 A 
ENDROOT
BRANCH   1  12
ATOM     11  C   UNL     1      22.169   4.026  50.129  0.00  0.00    +0.079 C 
ATOM     12  O   UNL     1      22.002   2.637  49.866  0.00  0.00    -0.491 OA
ENDBRANCH   1  12
BRANCH   4  13
ATOM     13  N   UNL     1      17.276   0.783  51.176  0.00  0.00    -0.297 N 
ATOM     14  H   UNL     1      17.220   0.600  50.210  0.00  0.00    +0.000 HD
BRANCH  13  15
ATOM     15  C   UNL     1      16.332   1.703  51.754  0.00  0.00    +0.068 A 
ATOM     16  C   UNL     1      16.603   3.083  51.806  0.00  0.00    -0.036 A 
ATOM     17  C   UNL     1      15.685   3.962  52.390  0.00  0.00    -0.041 A 
ATOM     18  C   UNL     1      14.495   3.473  52.937  0.00  0.00    +0.044 A 
ATOM     19 CL   UNL     1      13.346   4.577  53.670  0.00  0.00    -0.083 Cl
ATOM     20  C   UNL     1      14.226   2.101  52.906  0.00  0.00    -0.006 A 
ATOM     21  C   UNL     1      15.141   1.218  52.324  0.00  0.00    +0.146 A 
ATOM     22  F   UNL     1      14.858  -0.110  52.302  0.00  0.00    -0.203 F 
ENDBRANCH  13  15
ENDBRANCH   4  13
BRANCH  10  23
ATOM     23  O   UNL     1      23.775   1.392  51.519  0.00  0.00    -0.488 OA
BRANCH  23  24
ATOM     24  C   UNL     1      24.629   1.806  52.586  0.00  0.00    +0.094 C 
BRANCH  24  25
ATOM     25  C   UNL     1      25.986   1.077  52.531  0.00  0.00    +0.006 C 
ATOM     26  C   UNL     1      25.800  -0.420  52.832  0.00  0.00    -0.045 C 
ATOM     27  C   UNL     1      27.153  -1.137  52.866  0.00  0.00    -0.040 C 
ATOM     28  C   UNL     1      28.106  -0.438  53.839  0.00  0.00    -0.001 C 
ATOM     29  N   UNL     1      28.281   0.977  53.460  0.00  0.00    -0.305 N 
ATOM     30  C   UNL     1      29.256   1.620  54.353  0.00  0.00    -0.013 C 
ATOM     31  C   UNL     1      26.990   1.694  53.525  0.00  0.00    +0.005 C 
ATOM     32  H   UNL     1      28.626   1.018  52.501  0.00  0.00    +0.000 HD
ENDBRANCH  24  25
ENDBRANCH  23  24
ENDBRANCH  10  23
TORSDOF 6
ENDMDL
