MODEL 1
REMARK VINA RESULT:    -8.058      0.000      0.000
REMARK INTER + INTRA:         -11.373
REMARK INTER:                 -11.355
REMARK INTRA:                  -0.018
REMARK UNBOUND:                -0.018
REMARK  Name = 
REMARK  8 active torsions:
REMARK  status: ('A' for Active; 'I' for Inactive)
REMARK    1  A    between atoms: C_2  and  C_3
REMARK    2  A    between atoms: C_3  and  C_13
REMARK    3  A    between atoms: C_4  and  C_5
REMARK    4  A    between atoms: C_8  and  O_9
REMARK    5  A    between atoms: C_10  and  O_11
REMARK    6  A    between atoms: N_15  and  C_16
REMARK    7  A    between atoms: C_16  and  C_17
REMARK    8  A    between atoms: C_17  and  C_18
REMARK                            x       y       z     vdW  Elec       q    Type
REMARK                         _______ _______ _______ _____ _____    ______ ____
ROOT
ATOM      1  C   UNL     1      25.076   1.725  52.264  0.00  0.00    +0.114 C 
ATOM      2  C   UNL     1      26.325   1.369  51.903  0.00  0.00    -0.032 C 
ENDROOT
BRANCH   2   3
ATOM      3  C   UNL     1      26.982   0.096  52.280  0.00  0.00    -0.020 A 
ATOM      4  C   UNL     1      26.392  -1.150  52.002  0.00  0.00    -0.051 A 
ATOM      5  C   UNL     1      27.022  -2.332  52.402  0.00  0.00    -0.016 A 
ATOM      6  C   UNL     1      28.235  -2.286  53.100  0.00  0.00    +0.158 A 
ATOM      7  C   UNL     1      28.816  -1.044  53.406  0.00  0.00    +0.159 A 
ATOM      8  C   UNL     1      28.183   0.139  53.004  0.00  0.00    -0.009 A 
BRANCH   6   9
ATOM      9  O   UNL     1      28.862  -3.468  53.495  0.00  0.00    -0.503 OA
ATOM     10  H   UNL     1      28.482  -3.997  54.167  0.00  0.00    +0.000 HD
ENDBRANCH   6   9
BRANCH   7  11
ATOM     11  O   UNL     1      30.018  -0.963  54.108  0.00  0.00    -0.503 OA
ATOM     12  H   UNL     1      30.104  -0.362  54.822  0.00  0.00    +0.000 HD
ENDBRANCH   7  11
ENDBRANCH   2   3
BRANCH   1  13
ATOM     13  C   UNL     1      24.496   3.023  51.846  0.00  0.00    +0.254 C 
ATOM     14  O   UNL     1      23.325   3.315  52.212  0.00  0.00    -0.269 OA
ATOM     15  N   UNL     1      25.228   3.939  51.012  0.00  0.00    -0.310 N 
ATOM     16  H   UNL     1      26.100   3.660  50.652  0.00  0.00    +0.000 HD
BRANCH  15  17
ATOM     17  C   UNL     1      24.720   5.269  50.682  0.00  0.00    +0.016 C 
BRANCH  17  18
ATOM     18  C   UNL     1      24.783   5.506  49.170  0.00  0.00    -0.012 C 
BRANCH  18  19
ATOM     19  C   UNL     1      26.172   5.911  48.755  0.00  0.00    -0.046 A 
ATOM     20  C   UNL     1      26.429   7.223  48.324  0.00  0.00    -0.059 A 
ATOM     21  C   UNL     1      27.713   7.588  47.908  0.00  0.00    -0.062 A 
ATOM     22  C   UNL     1      28.746   6.646  47.912  0.00  0.00    -0.062 A 
ATOM     23  C   UNL     1      28.494   5.336  48.327  0.00  0.00    -0.062 A 
ATOM     24  C   UNL     1      27.211   4.966  48.743  0.00  0.00    -0.059 A 
ENDBRANCH  18  19
ENDBRANCH  17  18
ENDBRANCH  15  17
ENDBRANCH   1  13
BRANCH   1  26
ATOM     25  N   UNL     1      23.579   0.145  53.692  0.00  0.00    -0.191 NA
ATOM     26  C   UNL     1      24.243   0.846  53.056  0.00  0.00    +0.104 C 
ENDBRANCH   1  26
TORSDOF 8
ENDMDL
MODEL 2
REMARK VINA RESULT:    -7.999      4.636      8.105
REMARK INTER + INTRA:         -11.291
REMARK INTER:                 -10.816
REMARK INTRA:                  -0.475
REMARK UNBOUND:                -0.018
REMARK  Name = 
REMARK  8 active torsions:
REMARK  status: ('A' for Active; 'I' for Inactive)
REMARK    1  A    between atoms: C_2  and  C_3
REMARK    2  A    between atoms: C_3  and  C_13
REMARK    3  A    between atoms: C_4  and  C_5
REMARK    4  A    between atoms: C_8  and  O_9
REMARK    5  A    between atoms: C_10  and  O_11
REMARK    6  A    between atoms: N_15  and  C_16
REMARK    7  A    between atoms: C_16  and  C_17
REMARK    8  A    between atoms: C_17  and  C_18
REMARK                            x       y       z     vdW  Elec       q    Type
REMARK                         _______ _______ _______ _____ _____    ______ ____
ROOT
ATOM      1  C   UNL     1      24.055  -0.142  53.594  0.00  0.00    +0.114 C 
ATOM      2  C   UNL     1      25.089  -0.669  54.280  0.00  0.00    -0.032 C 
ENDROOT
BRANCH   2   3
ATOM      3  C   UNL     1      26.517  -0.393  53.999  0.00  0.00    -0.020 A 
ATOM      4  C   UNL     1      27.334  -1.331  53.342  0.00  0.00    -0.051 A 
ATOM      5  C   UNL     1      28.686  -1.055  53.123  0.00  0.00    -0.016 A 
ATOM      6  C   UNL     1      29.245   0.147  53.574  0.00  0.00    +0.158 A 
ATOM      7  C   UNL     1      28.442   1.076  54.256  0.00  0.00    +0.159 A 
ATOM      8  C   UNL     1      27.087   0.797  54.474  0.00  0.00    -0.009 A 
BRANCH   6   9
ATOM      9  O   UNL     1      30.595   0.420  53.351  0.00  0.00    -0.503 OA
ATOM     10  H   UNL     1      30.962   0.301  52.498  0.00  0.00    +0.000 HD
ENDBRANCH   6   9
BRANCH   7  11
ATOM     11  O   UNL     1      28.970   2.278  54.727  0.00  0.00    -0.503 OA
ATOM     12  H   UNL     1      29.688   2.680  54.281  0.00  0.00    +0.000 HD
ENDBRANCH   7  11
ENDBRANCH   2   3
BRANCH   1  13
ATOM     13  C   UNL     1      22.654  -0.476  53.941  0.00  0.00    +0.254 C 
ATOM     14  O   UNL     1      22.431  -1.451  54.711  0.00  0.00    -0.269 OA
ATOM     15  N   UNL     1      21.548   0.265  53.397  0.00  0.00    -0.310 N 
ATOM     16  H   UNL     1      21.727   0.959  52.722  0.00  0.00    +0.000 HD
BRANCH  15  17
ATOM     17  C   UNL     1      20.167   0.025  53.812  0.00  0.00    +0.016 C 
BRANCH  17  18
ATOM     18  C   UNL     1      19.239   0.000  52.595  0.00  0.00    -0.012 C 
BRANCH  18  19
ATOM     19  C   UNL     1      18.181  -1.059  52.757  0.00  0.00    -0.046 A 
ATOM     20  C   UNL     1      18.436  -2.203  53.531  0.00  0.00    -0.059 A 
ATOM     21  C   UNL     1      17.464  -3.201  53.653  0.00  0.00    -0.062 A 
ATOM     22  C   UNL     1      16.237  -3.068  52.998  0.00  0.00    -0.062 A 
ATOM     23  C   UNL     1      15.981  -1.938  52.217  0.00  0.00    -0.062 A 
ATOM     24  C   UNL     1      16.951  -0.938  52.090  0.00  0.00    -0.059 A 
ENDBRANCH  18  19
ENDBRANCH  17  18
ENDBRANCH  15  17
ENDBRANCH   1  13
BRANCH   1  26
ATOM     25  N   UNL     1      24.440   1.529  51.636  0.00  0.00    -0.191 NA
ATOM     26  C   UNL     1      24.271   0.787  52.506  0.00  0.00    +0.104 C 
ENDBRANCH   1  26
TORSDOF 8
ENDMDL
MODEL 3
REMARK VINA RESULT:    -7.976      4.227      7.050
REMARK INTER + INTRA:         -11.258
REMARK INTER:                 -10.940
REMARK INTRA:                  -0.319
REMARK UNBOUND:                -0.018
REMARK  Name = 
REMARK  8 active torsions:
REMARK  status: ('A' for Active; 'I' for Inactive)
REMARK    1  A    between atoms: C_2  and  C_3
REMARK    2  A    between atoms: C_3  and  C_13
REMARK    3  A    between atoms: C_4  and  C_5
REMARK    4  A    between atoms: C_8  and  O_9
REMARK    5  A    between atoms: C_10  and  O_11
REMARK    6  A    between atoms: N_15  and  C_16
REMARK    7  A    between atoms: C_16  and  C_17
REMARK    8  A    between atoms: C_17  and  C_18
REMARK                            x       y       z     vdW  Elec       q    Type
REMARK                         _______ _______ _______ _____ _____    ______ ____
ROOT
ATOM      1  C   UNL     1      24.527   0.467  52.895  0.00  0.00    +0.114 C 
ATOM      2  C   UNL     1      25.733   0.641  52.320  0.00  0.00    -0.032 C 
ENDROOT
BRANCH   2   3
ATOM      3  C   UNL     1      26.995   0.036  52.807  0.00  0.00    -0.020 A 
ATOM      4  C   UNL     1      28.042   0.824  53.318  0.00  0.00    -0.051 A 
ATOM      5  C   UNL     1      29.234   0.227  53.736  0.00  0.00    -0.016 A 
ATOM      6  C   UNL     1      29.405  -1.159  53.632  0.00  0.00    +0.158 A 
ATOM      7  C   UNL     1      28.375  -1.950  53.095  0.00  0.00    +0.159 A 
ATOM      8  C   UNL     1      27.182  -1.348  52.677  0.00  0.00    -0.009 A 
BRANCH   6   9
ATOM      9  O   UNL     1      30.596  -1.752  54.052  0.00  0.00    -0.503 OA
ATOM     10  H   UNL     1      31.106  -2.255  53.450  0.00  0.00    +0.000 HD
ENDBRANCH   6   9
BRANCH   7  11
ATOM     11  O   UNL     1      28.517  -3.331  52.968  0.00  0.00    -0.503 OA
ATOM     12  H   UNL     1      27.831  -3.839  52.582  0.00  0.00    +0.000 HD
ENDBRANCH   7  11
ENDBRANCH   2   3
BRANCH   1  13
ATOM     13  C   UNL     1      23.313   1.114  52.343  0.00  0.00    +0.254 C 
ATOM     14  O   UNL     1      23.407   1.775  51.273  0.00  0.00    -0.269 OA
ATOM     15  N   UNL     1      22.045   1.029  53.016  0.00  0.00    -0.310 N 
ATOM     16  H   UNL     1      22.002   0.595  53.898  0.00  0.00    +0.000 HD
BRANCH  15  17
ATOM     17  C   UNL     1      20.815   1.564  52.433  0.00  0.00    +0.016 C 
BRANCH  17  18
ATOM     18  C   UNL     1      20.291   0.631  51.339  0.00  0.00    -0.012 C 
BRANCH  18  19
ATOM     19  C   UNL     1      19.006  -0.022  51.771  0.00  0.00    -0.046 A 
ATOM     20  C   UNL     1      18.940  -0.724  52.987  0.00  0.00    -0.059 A 
ATOM     21  C   UNL     1      17.754  -1.357  53.371  0.00  0.00    -0.062 A 
ATOM     22  C   UNL     1      16.630  -1.302  52.542  0.00  0.00    -0.062 A 
ATOM     23  C   UNL     1      16.692  -0.617  51.326  0.00  0.00    -0.062 A 
ATOM     24  C   UNL     1      17.876   0.017  50.937  0.00  0.00    -0.059 A 
ENDBRANCH  18  19
ENDBRANCH  17  18
ENDBRANCH  15  17
ENDBRANCH   1  13
BRANCH   1  26
ATOM     25  N   UNL     1      24.230  -1.050  54.989  0.00  0.00    -0.191 NA
ATOM     26  C   UNL     1      24.363  -0.376  54.059  0.00  0.00    +0.104 C 
ENDBRANCH   1  26
TORSDOF 8
ENDMDL
MODEL 4
REMARK VINA RESULT:    -7.963      2.864      6.022
REMARK INTER + INTRA:         -11.240
REMARK INTER:                 -10.606
REMARK INTRA:                  -0.635
REMARK UNBOUND:                -0.018
REMARK  Name = 
REMARK  8 active torsions:
REMARK  status: ('A' for Active; 'I' for Inactive)
REMARK    1  A    between atoms: C_2  and  C_3
REMARK    2  A    between atoms: C_3  and  C_13
REMARK    3  A    between atoms: C_4  and  C_5
REMARK    4  A    between atoms: C_8  and  O_9
REMARK    5  A    between atoms: C_10  and  O_11
REMARK    6  A    between atoms: N_15  and  C_16
REMARK    7  A    between atoms: C_16  and  C_17
REMARK    8  A    between atoms: C_17  and  C_18
REMARK                            x       y       z     vdW  Elec       q    Type
REMARK                         _______ _______ _______ _____ _____    ______ ____
ROOT
ATOM      1  C   UNL     1      24.670   2.481  51.524  0.00  0.00    +0.114 C 
ATOM      2  C   UNL     1      24.990   1.658  52.541  0.00  0.00    -0.032 C 
ENDROOT
BRANCH   2   3
ATOM      3  C   UNL     1      26.360   1.183  52.844  0.00  0.00    -0.020 A 
ATOM      4  C   UNL     1      26.758  -0.139  52.575  0.00  0.00    -0.051 A 
ATOM      5  C   UNL     1      28.048  -0.567  52.905  0.00  0.00    -0.016 A 
ATOM      6  C   UNL     1      28.947   0.309  53.523  0.00  0.00    +0.158 A 
ATOM      7  C   UNL     1      28.547   1.623  53.821  0.00  0.00    +0.159 A 
ATOM      8  C   UNL     1      27.255   2.049  53.489  0.00  0.00    -0.009 A 
BRANCH   6   9
ATOM      9  O   UNL     1      30.234  -0.120  53.849  0.00  0.00    -0.503 OA
ATOM     10  H   UNL     1      30.976   0.393  53.599  0.00  0.00    +0.000 HD
ENDBRANCH   6   9
BRANCH   7  11
ATOM     11  O   UNL     1      29.415   2.518  54.445  0.00  0.00    -0.503 OA
ATOM     12  H   UNL     1      29.274   3.441  54.365  0.00  0.00    +0.000 HD
ENDBRANCH   7  11
ENDBRANCH   2   3
BRANCH   1  13
ATOM     13  C   UNL     1      23.269   2.905  51.290  0.00  0.00    +0.254 C 
ATOM     14  O   UNL     1      22.925   3.264  50.131  0.00  0.00    -0.269 OA
ATOM     15  N   UNL     1      22.307   2.941  52.359  0.00  0.00    -0.310 N 
ATOM     16  H   UNL     1      22.609   2.753  53.276  0.00  0.00    +0.000 HD
BRANCH  15  17
ATOM     17  C   UNL     1      20.896   3.246  52.129  0.00  0.00    +0.016 C 
BRANCH  17  18
ATOM     18  C   UNL     1      20.047   1.978  52.252  0.00  0.00    -0.012 C 
BRANCH  18  19
ATOM     19  C   UNL     1      20.830   0.879  52.919  0.00  0.00    -0.046 A 
ATOM     20  C   UNL     1      21.618   0.004  52.153  0.00  0.00    -0.059 A 
ATOM     21  C   UNL     1      22.318  -1.036  52.771  0.00  0.00    -0.062 A 
ATOM     22  C   UNL     1      22.231  -1.215  54.155  0.00  0.00    -0.062 A 
ATOM     23  C   UNL     1      21.438  -0.356  54.921  0.00  0.00    -0.062 A 
ATOM     24  C   UNL     1      20.735   0.685  54.307  0.00  0.00    -0.059 A 
ENDBRANCH  18  19
ENDBRANCH  17  18
ENDBRANCH  15  17
ENDBRANCH   1  13
BRANCH   1  26
ATOM     25  N   UNL     1      26.491   3.417  49.915  0.00  0.00    -0.191 NA
ATOM     26  C   UNL     1      25.682   3.002  50.631  0.00  0.00    +0.104 C 
ENDBRANCH   1  26
TORSDOF 8
ENDMDL
MODEL 5
REMARK VINA RESULT:    -7.862      4.489      7.379
REMARK INTER + INTRA:         -11.098
REMARK INTER:                 -10.539
REMARK INTRA:                  -0.559
REMARK UNBOUND:                -0.018
REMARK  Name = 
REMARK  8 active torsions:
REMARK  status: ('A' for Active; 'I' for Inactive)
REMARK    1  A    between atoms: C_2  and  C_3
REMARK    2  A    between atoms: C_3  and  C_13
REMARK    3  A    between atoms: C_4  and  C_5
REMARK    4  A    between atoms: C_8  and  O_9
REMARK    5  A    between atoms: C_10  and  O_11
REMARK    6  A    between atoms: N_15  and  C_16
REMARK    7  A    between atoms: C_16  and  C_17
REMARK    8  A    between atoms: C_17  and  C_18
REMARK                            x       y       z     vdW  Elec       q    Type
REMARK                         _______ _______ _______ _____ _____    ______ ____
ROOT
ATOM      1  C   UNL     1      23.644  -0.075  53.635  0.00  0.00    +0.114 C 
ATOM      2  C   UNL     1      24.548   0.490  52.812  0.00  0.00    -0.032 C 
ENDROOT
BRANCH   2   3
ATOM      3  C   UNL     1      26.016   0.441  53.007  0.00  0.00    -0.020 A 
ATOM      4  C   UNL     1      26.752  -0.734  52.772  0.00  0.00    -0.051 A 
ATOM      5  C   UNL     1      28.131  -0.758  52.999  0.00  0.00    -0.016 A 
ATOM      6  C   UNL     1      28.789   0.380  53.481  0.00  0.00    +0.158 A 
ATOM      7  C   UNL     1      28.054   1.549  53.746  0.00  0.00    +0.159 A 
ATOM      8  C   UNL     1      26.673   1.570  53.517  0.00  0.00    -0.009 A 
BRANCH   6   9
ATOM      9  O   UNL     1      30.165   0.353  53.704  0.00  0.00    -0.503 OA
ATOM     10  H   UNL     1      30.497   0.271  54.576  0.00  0.00    +0.000 HD
ENDBRANCH   6   9
BRANCH   7  11
ATOM     11  O   UNL     1      28.677   2.696  54.236  0.00  0.00    -0.503 OA
ATOM     12  H   UNL     1      29.140   2.666  55.051  0.00  0.00    +0.000 HD
ENDBRANCH   7  11
ENDBRANCH   2   3
BRANCH   1  13
ATOM     13  C   UNL     1      22.191   0.027  53.366  0.00  0.00    +0.254 C 
ATOM     14  O   UNL     1      21.433  -0.911  53.739  0.00  0.00    -0.269 OA
ATOM     15  N   UNL     1      21.633   1.155  52.668  0.00  0.00    -0.310 N 
ATOM     16  H   UNL     1      22.243   1.832  52.297  0.00  0.00    +0.000 HD
BRANCH  15  17
ATOM     17  C   UNL     1      20.193   1.329  52.492  0.00  0.00    +0.016 C 
BRANCH  17  18
ATOM     18  C   UNL     1      19.735   0.702  51.172  0.00  0.00    -0.012 C 
BRANCH  18  19
ATOM     19  C   UNL     1      18.444  -0.047  51.362  0.00  0.00    -0.046 A 
ATOM     20  C   UNL     1      17.465  -0.040  50.354  0.00  0.00    -0.059 A 
ATOM     21  C   UNL     1      16.252  -0.709  50.545  0.00  0.00    -0.062 A 
ATOM     22  C   UNL     1      16.005  -1.383  51.745  0.00  0.00    -0.062 A 
ATOM     23  C   UNL     1      16.969  -1.383  52.756  0.00  0.00    -0.062 A 
ATOM     24  C   UNL     1      18.183  -0.714  52.570  0.00  0.00    -0.059 A 
ENDBRANCH  18  19
ENDBRANCH  17  18
ENDBRANCH  15  17
ENDBRANCH   1  13
BRANCH   1  26
ATOM     25  N   UNL     1      24.387  -1.422  55.736  0.00  0.00    -0.191 NA
ATOM     26  C   UNL     1      24.056  -0.823  54.804  0.00  0.00    +0.104 C 
ENDBRANCH   1  26
TORSDOF 8
ENDMDL
MODEL 6
REMARK VINA RESULT:    -7.755      3.989      7.193
REMARK INTER + INTRA:         -10.946
REMARK INTER:                 -10.460
REMARK INTRA:                  -0.487
REMARK UNBOUND:                -0.018
REMARK  Name = 
REMARK  8 active torsions:
REMARK  status: ('A' for Active; 'I' for Inactive)
REMARK    1  A    between atoms: C_2  and  C_3
REMARK    2  A    between atoms: C_3  and  C_13
REMARK    3  A    between atoms: C_4  and  C_5
REMARK    4  A    between atoms: C_8  and  O_9
REMARK    5  A    between atoms: C_10  and  O_11
REMARK    6  A    between atoms: N_15  and  C_16
REMARK    7  A    between atoms: C_16  and  C_17
REMARK    8  A    between atoms: C_17  and  C_18
REMARK                            x       y       z     vdW  Elec       q    Type
REMARK                         _______ _______ _______ _____ _____    ______ ____
ROOT
ATOM      1  C   UNL     1      24.223   1.325  52.442  0.00  0.00    +0.114 C 
ATOM      2  C   UNL     1      24.920   0.593  53.334  0.00  0.00    -0.032 C 
ENDROOT
BRANCH   2   3
ATOM      3  C   UNL     1      26.398   0.498  53.377  0.00  0.00    -0.020 A 
ATOM      4  C   UNL     1      27.069  -0.702  53.080  0.00  0.00    -0.051 A 
ATOM      5  C   UNL     1      28.462  -0.769  53.164  0.00  0.00    -0.016 A 
ATOM      6  C   UNL     1      29.202   0.351  53.564  0.00  0.00    +0.158 A 
ATOM      7  C   UNL     1      28.536   1.545  53.889  0.00  0.00    +0.159 A 
ATOM      8  C   UNL     1      27.140   1.609  53.804  0.00  0.00    -0.009 A 
BRANCH   6   9
ATOM      9  O   UNL     1      30.592   0.281  53.644  0.00  0.00    -0.503 OA
ATOM     10  H   UNL     1      31.121   0.709  53.000  0.00  0.00    +0.000 HD
ENDBRANCH   6   9
BRANCH   7  11
ATOM     11  O   UNL     1      29.241   2.675  54.301  0.00  0.00    -0.503 OA
ATOM     12  H   UNL     1      28.906   3.530  54.116  0.00  0.00    +0.000 HD
ENDBRANCH   7  11
ENDBRANCH   2   3
BRANCH   1  13
ATOM     13  C   UNL     1      22.742   1.359  52.468  0.00  0.00    +0.254 C 
ATOM     14  O   UNL     1      22.123   1.772  51.449  0.00  0.00    -0.269 OA
ATOM     15  N   UNL     1      22.001   0.961  53.636  0.00  0.00    -0.310 N 
ATOM     16  H   UNL     1      22.494   0.735  54.457  0.00  0.00    +0.000 HD
BRANCH  15  17
ATOM     17  C   UNL     1      20.542   0.881  53.644  0.00  0.00    +0.016 C 
BRANCH  17  18
ATOM     18  C   UNL     1      20.083  -0.554  53.372  0.00  0.00    -0.012 C 
BRANCH  18  19
ATOM     19  C   UNL     1      18.859  -0.561  52.497  0.00  0.00    -0.046 A 
ATOM     20  C   UNL     1      18.855   0.137  51.277  0.00  0.00    -0.059 A 
ATOM     21  C   UNL     1      17.706   0.156  50.481  0.00  0.00    -0.062 A 
ATOM     22  C   UNL     1      16.552  -0.514  50.898  0.00  0.00    -0.062 A 
ATOM     23  C   UNL     1      16.546  -1.200  52.116  0.00  0.00    -0.062 A 
ATOM     24  C   UNL     1      17.692  -1.221  52.917  0.00  0.00    -0.059 A 
ENDBRANCH  18  19
ENDBRANCH  17  18
ENDBRANCH  15  17
ENDBRANCH   1  13
BRANCH   1  26
ATOM     25  N   UNL     1      25.424   2.761  50.633  0.00  0.00    -0.191 NA
ATOM     26  C   UNL     1      24.892   2.122  51.437  0.00  0.00    +0.104 C 
ENDBRANCH   1  26
TORSDOF 8
ENDMDL
MODEL 7
REMARK VINA RESULT:    -7.725      3.794      7.084
REMARK INTER + INTRA:         -10.904
REMARK INTER:                 -10.452
REMARK INTRA:                  -0.453
REMARK UNBOUND:                -0.018
REMARK  Name = 
REMARK  8 active torsions:
REMARK  status: ('A' for Active; 'I' for Inactive)
REMARK    1  A    between atoms: C_2  and  C_3
REMARK    2  A    between atoms: C_3  and  C_13
REMARK    3  A    between atoms: C_4  and  C_5
REMARK    4  A    between atoms: C_8  and  O_9
REMARK    5  A    between atoms: C_10  and  O_11
REMARK    6  A    between atoms: N_15  and  C_16
REMARK    7  A    between atoms: C_16  and  C_17
REMARK    8  A    between atoms: C_17  and  C_18
REMARK                            x       y       z     vdW  Elec       q    Type
REMARK                         _______ _______ _______ _____ _____    ______ ____
ROOT
ATOM      1  C   UNL     1      24.649   1.423  52.392  0.00  0.00    +0.114 C 
ATOM      2  C   UNL     1      24.995   0.480  53.291  0.00  0.00    -0.032 C 
ENDROOT
BRANCH   2   3
ATOM      3  C   UNL     1      26.369  -0.035  53.489  0.00  0.00    -0.020 A 
ATOM      4  C   UNL     1      27.385   0.765  54.042  0.00  0.00    -0.051 A 
ATOM      5  C   UNL     1      28.681   0.261  54.183  0.00  0.00    -0.016 A 
ATOM      6  C   UNL     1      28.985  -1.038  53.757  0.00  0.00    +0.158 A 
ATOM      7  C   UNL     1      27.981  -1.833  53.177  0.00  0.00    +0.159 A 
ATOM      8  C   UNL     1      26.684  -1.325  53.037  0.00  0.00    -0.009 A 
BRANCH   6   9
ATOM      9  O   UNL     1      30.278  -1.539  53.901  0.00  0.00    -0.503 OA
ATOM     10  H   UNL     1      30.491  -2.389  53.572  0.00  0.00    +0.000 HD
ENDBRANCH   6   9
BRANCH   7  11
ATOM     11  O   UNL     1      28.254  -3.127  52.733  0.00  0.00    -0.503 OA
ATOM     12  H   UNL     1      29.050  -3.306  52.274  0.00  0.00    +0.000 HD
ENDBRANCH   7  11
ENDBRANCH   2   3
BRANCH   1  13
ATOM     13  C   UNL     1      23.245   1.878  52.258  0.00  0.00    +0.254 C 
ATOM     14  O   UNL     1      23.006   2.939  51.618  0.00  0.00    -0.269 OA
ATOM     15  N   UNL     1      22.160   1.154  52.863  0.00  0.00    -0.310 N 
ATOM     16  H   UNL     1      22.365   0.384  53.440  0.00  0.00    +0.000 HD
BRANCH  15  17
ATOM     17  C   UNL     1      20.761   1.522  52.649  0.00  0.00    +0.016 C 
BRANCH  17  18
ATOM     18  C   UNL     1      20.196   0.791  51.428  0.00  0.00    -0.012 C 
BRANCH  18  19
ATOM     19  C   UNL     1      18.980  -0.010  51.806  0.00  0.00    -0.046 A 
ATOM     20  C   UNL     1      17.842  -0.004  50.983  0.00  0.00    -0.059 A 
ATOM     21  C   UNL     1      16.701  -0.723  51.353  0.00  0.00    -0.062 A 
ATOM     22  C   UNL     1      16.686  -1.447  52.549  0.00  0.00    -0.062 A 
ATOM     23  C   UNL     1      17.811  -1.447  53.378  0.00  0.00    -0.062 A 
ATOM     24  C   UNL     1      18.953  -0.728  53.014  0.00  0.00    -0.059 A 
ENDBRANCH  18  19
ENDBRANCH  17  18
ENDBRANCH  15  17
ENDBRANCH   1  13
BRANCH   1  26
ATOM     25  N   UNL     1      26.426   2.538  50.851  0.00  0.00    -0.191 NA
ATOM     26  C   UNL     1      25.637   2.044  51.537  0.00  0.00    +0.104 C 
ENDBRANCH   1  26
TORSDOF 8
ENDMDL
MODEL 8
REMARK VINA RESULT:    -7.706      2.744      4.160
REMARK INTER + INTRA:         -10.878
REMARK INTER:                 -10.889
REMARK INTRA:                   0.011
REMARK UNBOUND:                -0.018
REMARK  Name = 
REMARK  8 active torsions:
REMARK  status: ('A' for Active; 'I' for Inactive)
REMARK    1  A    between atoms: C_2  and  C_3
REMARK    2  A    between atoms: C_3  and  C_13
REMARK    3  A    between atoms: C_4  and  C_5
REMARK    4  A    between atoms: C_8  and  O_9
REMARK    5  A    between atoms: C_10  and  O_11
REMARK    6  A    between atoms: N_15  and  C_16
REMARK    7  A    between atoms: C_16  and  C_17
REMARK    8  A    between atoms: C_17  and  C_18
REMARK                            x       y       z     vdW  Elec       q    Type
REMARK                         _______ _______ _______ _____ _____    ______ ____
ROOT
ATOM      1  C   UNL     1      25.470   1.112  52.096  0.00  0.00    +0.114 C 
ATOM      2  C   UNL     1      24.195   1.411  52.413  0.00  0.00    -0.032 C 
ENDROOT
BRANCH   2   3
ATOM      3  C   UNL     1      23.228   0.461  53.011  0.00  0.00    -0.020 A 
ATOM      4  C   UNL     1      21.930   0.307  52.494  0.00  0.00    -0.051 A 
ATOM      5  C   UNL     1      21.029  -0.572  53.102  0.00  0.00    -0.016 A 
ATOM      6  C   UNL     1      21.404  -1.291  54.244  0.00  0.00    +0.158 A 
ATOM      7  C   UNL     1      22.691  -1.120  54.783  0.00  0.00    +0.159 A 
ATOM      8  C   UNL     1      23.590  -0.239  54.171  0.00  0.00    -0.009 A 
BRANCH   6   9
ATOM      9  O   UNL     1      20.504  -2.169  54.847  0.00  0.00    -0.503 OA
ATOM     10  H   UNL     1      19.771  -1.834  55.324  0.00  0.00    +0.000 HD
ENDBRANCH   6   9
BRANCH   7  11
ATOM     11  O   UNL     1      23.092  -1.813  55.925  0.00  0.00    -0.503 OA
ATOM     12  H   UNL     1      22.871  -1.484  56.774  0.00  0.00    +0.000 HD
ENDBRANCH   7  11
ENDBRANCH   2   3
BRANCH   1  13
ATOM     13  C   UNL     1      26.370   2.125  51.495  0.00  0.00    +0.254 C 
ATOM     14  O   UNL     1      27.485   2.351  52.040  0.00  0.00    -0.269 OA
ATOM     15  N   UNL     1      25.987   2.870  50.326  0.00  0.00    -0.310 N 
ATOM     16  H   UNL     1      25.078   2.757  49.966  0.00  0.00    +0.000 HD
BRANCH  15  17
ATOM     17  C   UNL     1      26.902   3.790  49.653  0.00  0.00    +0.016 C 
BRANCH  17  18
ATOM     18  C   UNL     1      26.176   5.082  49.268  0.00  0.00    -0.012 C 
BRANCH  18  19
ATOM     19  C   UNL     1      27.090   5.993  48.495  0.00  0.00    -0.046 A 
ATOM     20  C   UNL     1      28.456   5.687  48.368  0.00  0.00    -0.059 A 
ATOM     21  C   UNL     1      29.310   6.552  47.678  0.00  0.00    -0.062 A 
ATOM     22  C   UNL     1      28.810   7.731  47.117  0.00  0.00    -0.062 A 
ATOM     23  C   UNL     1      27.456   8.048  47.250  0.00  0.00    -0.062 A 
ATOM     24  C   UNL     1      26.598   7.187  47.941  0.00  0.00    -0.059 A 
ENDBRANCH  18  19
ENDBRANCH  17  18
ENDBRANCH  15  17
ENDBRANCH   1  13
BRANCH   1  26
ATOM     25  N   UNL     1      26.460  -1.253  52.551  0.00  0.00    -0.191 NA
ATOM     26  C   UNL     1      26.019  -0.203  52.348  0.00  0.00    +0.104 C 
ENDBRANCH   1  26
TORSDOF 8
ENDMDL
MODEL 9
REMARK VINA RESULT:    -7.670      2.989      6.080
REMARK INTER + INTRA:         -10.827
REMARK INTER:                 -10.327
REMARK INTRA:                  -0.500
REMARK UNBOUND:                -0.018
REMARK  Name = 
REMARK  8 active torsions:
REMARK  status: ('A' for Active; 'I' for Inactive)
REMARK    1  A    between atoms: C_2  and  C_3
REMARK    2  A    between atoms: C_3  and  C_13
REMARK    3  A    between atoms: C_4  and  C_5
REMARK    4  A    between atoms: C_8  and  O_9
REMARK    5  A    between atoms: C_10  and  O_11
REMARK    6  A    between atoms: N_15  and  C_16
REMARK    7  A    between atoms: C_16  and  C_17
REMARK    8  A    between atoms: C_17  and  C_18
REMARK                            x       y       z     vdW  Elec       q    Type
REMARK                         _______ _______ _______ _____ _____    ______ ____
ROOT
ATOM      1  C   UNL     1      24.835   1.937  51.731  0.00  0.00    +0.114 C 
ATOM      2  C   UNL     1      25.024   0.982  52.663  0.00  0.00    -0.032 C 
ENDROOT
BRANCH   2   3
ATOM      3  C   UNL     1      26.335   0.379  53.001  0.00  0.00    -0.020 A 
ATOM      4  C   UNL     1      27.401   1.157  53.487  0.00  0.00    -0.051 A 
ATOM      5  C   UNL     1      28.636   0.564  53.764  0.00  0.00    -0.016 A 
ATOM      6  C   UNL     1      28.830  -0.805  53.541  0.00  0.00    +0.158 A 
ATOM      7  C   UNL     1      27.777  -1.583  53.028  0.00  0.00    +0.159 A 
ATOM      8  C   UNL     1      26.541  -0.986  52.752  0.00  0.00    -0.009 A 
BRANCH   6   9
ATOM      9  O   UNL     1      30.063  -1.393  53.820  0.00  0.00    -0.503 OA
ATOM     10  H   UNL     1      30.270  -1.653  54.696  0.00  0.00    +0.000 HD
ENDBRANCH   6   9
BRANCH   7  11
ATOM     11  O   UNL     1      27.940  -2.946  52.785  0.00  0.00    -0.503 OA
ATOM     12  H   UNL     1      28.571  -3.237  52.156  0.00  0.00    +0.000 HD
ENDBRANCH   7  11
ENDBRANCH   2   3
BRANCH   1  13
ATOM     13  C   UNL     1      23.485   2.481  51.453  0.00  0.00    +0.254 C 
ATOM     14  O   UNL     1      23.206   2.852  50.280  0.00  0.00    -0.269 OA
ATOM     15  N   UNL     1      22.503   2.622  52.494  0.00  0.00    -0.310 N 
ATOM     16  H   UNL     1      22.762   2.422  53.422  0.00  0.00    +0.000 HD
BRANCH  15  17
ATOM     17  C   UNL     1      21.132   3.050  52.221  0.00  0.00    +0.016 C 
BRANCH  17  18
ATOM     18  C   UNL     1      20.146   1.920  52.527  0.00  0.00    -0.012 C 
BRANCH  18  19
ATOM     19  C   UNL     1      20.859   0.751  53.152  0.00  0.00    -0.046 A 
ATOM     20  C   UNL     1      21.500  -0.204  52.344  0.00  0.00    -0.059 A 
ATOM     21  C   UNL     1      22.134  -1.306  52.926  0.00  0.00    -0.062 A 
ATOM     22  C   UNL     1      22.125  -1.468  54.314  0.00  0.00    -0.062 A 
ATOM     23  C   UNL     1      21.478  -0.530  55.122  0.00  0.00    -0.062 A 
ATOM     24  C   UNL     1      20.842   0.574  54.546  0.00  0.00    -0.059 A 
ENDBRANCH  18  19
ENDBRANCH  17  18
ENDBRANCH  15  17
ENDBRANCH   1  13
BRANCH   1  26
ATOM     25  N   UNL     1      26.830   2.919  50.376  0.00  0.00    -0.191 NA
ATOM     26  C   UNL     1      25.944   2.484  50.980  0.00  0.00    +0.104 C 
ENDBRANCH   1  26
TORSDOF 8
ENDMDL
