MODEL 1
REMARK VINA RESULT:    -9.059      0.000      0.000
REMARK INTER + INTRA:         -10.594
REMARK INTER:                 -10.118
REMARK INTRA:                  -0.476
REMARK UNBOUND:                -0.476
REMARK  Name = 
REMARK  3 active torsions:
REMARK  status: ('A' for Active; 'I' for Inactive)
REMARK    1  A    between atoms: C_1  and  N_2
REMARK    2  A    between atoms: C_5  and  C_6
REMARK    3  A    between atoms: N_19  and  C_20
REMARK                            x       y       z     vdW  Elec       q    Type
REMARK                         _______ _______ _______ _____ _____    ______ ____
ROOT
ATOM      1  C   UNL     1      23.836   2.310  50.319  0.00  0.00    +0.017 C 
ATOM      2  N   UNL     1      24.184   1.406  51.429  0.00  0.00    -0.295 N 
ATOM      3  C   UNL     1      25.502   1.172  51.743  0.00  0.00    +0.260 A 
ATOM      4  O   UNL     1      26.424   1.722  51.076  0.00  0.00    -0.267 OA
ATOM      5  C   UNL     1      25.844   0.326  52.815  0.00  0.00    +0.050 A 
ATOM      6  C   UNL     1      24.830  -0.254  53.579  0.00  0.00    -0.037 A 
ATOM      7  C   UNL     1      23.496   0.015  53.279  0.00  0.00    +0.037 A 
ATOM      8  C   UNL     1      22.450  -0.529  54.030  0.00  0.00    +0.042 A 
ATOM      9  N   UNL     1      21.164  -0.231  53.714  0.00  0.00    -0.222 NA
ATOM     10  C   UNL     1      20.869   0.597  52.677  0.00  0.00    +0.221 A 
ATOM     11  N   UNL     1      19.496   0.867  52.355  0.00  0.00    -0.284 N 
ATOM     12  N   UNL     1      21.875   1.120  51.925  0.00  0.00    -0.196 NA
ATOM     13  C   UNL     1      23.183   0.858  52.196  0.00  0.00    +0.148 A 
ATOM     14  H   UNL     1      18.803   0.336  52.810  0.00  0.00    +0.000 HD
ENDROOT
BRANCH   5  15
ATOM     15  C   UNL     1      27.258   0.049  53.151  0.00  0.00    +0.024 A 
ATOM     16  C   UNL     1      27.819  -1.218  52.886  0.00  0.00    +0.050 A 
ATOM     17 CL   UNL     1      26.865  -2.516  52.176  0.00  0.00    -0.083 Cl
ATOM     18  C   UNL     1      29.158  -1.471  53.206  0.00  0.00    -0.043 A 
ATOM     19  C   UNL     1      29.943  -0.475  53.787  0.00  0.00    -0.059 A 
ATOM     20  C   UNL     1      29.397   0.782  54.051  0.00  0.00    -0.043 A 
ATOM     21  C   UNL     1      28.060   1.052  53.737  0.00  0.00    +0.050 A 
ATOM     22 CL   UNL     1      27.428   2.662  54.066  0.00  0.00    -0.083 Cl
ENDBRANCH   5  15
BRANCH  11  23
ATOM     23  C   UNL     1      19.070   1.864  51.411  0.00  0.00    +0.034 A 
ATOM     24  C   UNL     1      18.674   1.468  50.123  0.00  0.00    -0.040 A 
ATOM     25  C   UNL     1      18.240   2.418  49.193  0.00  0.00    -0.060 A 
ATOM     26  C   UNL     1      18.182   3.768  49.546  0.00  0.00    -0.062 A 
ATOM     27  C   UNL     1      18.550   4.169  50.833  0.00  0.00    -0.060 A 
ATOM     28  C   UNL     1      18.985   3.223  51.766  0.00  0.00    -0.040 A 
ENDBRANCH  11  23
TORSDOF 2
ENDMDL
MODEL 2
REMARK VINA RESULT:    -8.952      3.061      8.152
REMARK INTER + INTRA:         -10.476
REMARK INTER:                  -9.695
REMARK INTRA:                  -0.781
REMARK UNBOUND:                -0.476
REMARK  Name = 
REMARK  3 active torsions:
REMARK  status: ('A' for Active; 'I' for Inactive)
REMARK    1  A    between atoms: C_1  and  N_2
REMARK    2  A    between atoms: C_5  and  C_6
REMARK    3  A    between atoms: N_19  and  C_20
REMARK                            x       y       z     vdW  Elec       q    Type
REMARK                         _______ _______ _______ _____ _____    ______ ____
ROOT
ATOM      1  C   UNL     1      26.522   2.996  50.805  0.00  0.00    +0.017 C 
ATOM      2  N   UNL     1      25.075   2.723  50.842  0.00  0.00    -0.295 N 
ATOM      3  C   UNL     1      24.217   3.430  50.032  0.00  0.00    +0.260 A 
ATOM      4  O   UNL     1      24.662   4.324  49.258  0.00  0.00    -0.267 OA
ATOM      5  C   UNL     1      22.835   3.162  50.046  0.00  0.00    +0.050 A 
ATOM      6  C   UNL     1      22.342   2.149  50.871  0.00  0.00    -0.037 A 
ATOM      7  C   UNL     1      23.221   1.412  51.663  0.00  0.00    +0.037 A 
ATOM      8  C   UNL     1      22.773   0.377  52.488  0.00  0.00    +0.042 A 
ATOM      9  N   UNL     1      23.662  -0.327  53.235  0.00  0.00    -0.222 NA
ATOM     10  C   UNL     1      24.992  -0.047  53.192  0.00  0.00    +0.221 A 
ATOM     11  N   UNL     1      25.899  -0.795  54.015  0.00  0.00    -0.284 N 
ATOM     12  N   UNL     1      25.441   0.968  52.407  0.00  0.00    -0.196 NA
ATOM     13  C   UNL     1      24.596   1.707  51.636  0.00  0.00    +0.148 A 
ATOM     14  H   UNL     1      25.517  -1.399  54.692  0.00  0.00    +0.000 HD
ENDROOT
BRANCH   5  15
ATOM     15  C   UNL     1      21.898   3.928  49.194  0.00  0.00    +0.024 A 
ATOM     16  C   UNL     1      21.272   5.091  49.691  0.00  0.00    +0.050 A 
ATOM     17 CL   UNL     1      21.557   5.659  51.333  0.00  0.00    -0.083 Cl
ATOM     18  C   UNL     1      20.389   5.811  48.878  0.00  0.00    -0.043 A 
ATOM     19  C   UNL     1      20.122   5.383  47.577  0.00  0.00    -0.059 A 
ATOM     20  C   UNL     1      20.738   4.235  47.078  0.00  0.00    -0.043 A 
ATOM     21  C   UNL     1      21.625   3.504  47.876  0.00  0.00    +0.050 A 
ATOM     22 CL   UNL     1      22.396   2.078  47.189  0.00  0.00    -0.083 Cl
ENDBRANCH   5  15
BRANCH  11  23
ATOM     23  C   UNL     1      27.331  -0.717  53.915  0.00  0.00    +0.034 A 
ATOM     24  C   UNL     1      28.026  -1.703  53.197  0.00  0.00    -0.040 A 
ATOM     25  C   UNL     1      29.417  -1.639  53.071  0.00  0.00    -0.060 A 
ATOM     26  C   UNL     1      30.124  -0.581  53.648  0.00  0.00    -0.062 A 
ATOM     27  C   UNL     1      29.440   0.419  54.343  0.00  0.00    -0.060 A 
ATOM     28  C   UNL     1      28.049   0.359  54.471  0.00  0.00    -0.040 A 
ENDBRANCH  11  23
TORSDOF 2
ENDMDL
MODEL 3
REMARK VINA RESULT:    -8.944      3.059      7.986
REMARK INTER + INTRA:         -10.466
REMARK INTER:                  -9.691
REMARK INTRA:                  -0.775
REMARK UNBOUND:                -0.476
REMARK  Name = 
REMARK  3 active torsions:
REMARK  status: ('A' for Active; 'I' for Inactive)
REMARK    1  A    between atoms: C_1  and  N_2
REMARK    2  A    between atoms: C_5  and  C_6
REMARK    3  A    between atoms: N_19  and  C_20
REMARK                            x       y       z     vdW  Elec       q    Type
REMARK                         _______ _______ _______ _____ _____    ______ ____
ROOT
ATOM      1  C   UNL     1      26.527   3.005  50.809  0.00  0.00    +0.017 C 
ATOM      2  N   UNL     1      25.078   2.748  50.864  0.00  0.00    -0.295 N 
ATOM      3  C   UNL     1      24.219   3.455  50.056  0.00  0.00    +0.260 A 
ATOM      4  O   UNL     1      24.665   4.337  49.268  0.00  0.00    -0.267 OA
ATOM      5  C   UNL     1      22.834   3.202  50.086  0.00  0.00    +0.050 A 
ATOM      6  C   UNL     1      22.339   2.203  50.927  0.00  0.00    -0.037 A 
ATOM      7  C   UNL     1      23.218   1.465  51.718  0.00  0.00    +0.037 A 
ATOM      8  C   UNL     1      22.768   0.443  52.558  0.00  0.00    +0.042 A 
ATOM      9  N   UNL     1      23.659  -0.262  53.302  0.00  0.00    -0.222 NA
ATOM     10  C   UNL     1      24.991   0.002  53.243  0.00  0.00    +0.221 A 
ATOM     11  N   UNL     1      25.898  -0.746  54.064  0.00  0.00    -0.284 N 
ATOM     12  N   UNL     1      25.442   1.005  52.443  0.00  0.00    -0.196 NA
ATOM     13  C   UNL     1      24.597   1.745  51.673  0.00  0.00    +0.148 A 
ATOM     14  H   UNL     1      25.517  -1.339  54.751  0.00  0.00    +0.000 HD
ENDROOT
BRANCH   5  15
ATOM     15  C   UNL     1      21.897   3.969  49.237  0.00  0.00    +0.024 A 
ATOM     16  C   UNL     1      21.605   3.535  47.926  0.00  0.00    +0.050 A 
ATOM     17 CL   UNL     1      22.354   2.095  47.245  0.00  0.00    -0.083 Cl
ATOM     18  C   UNL     1      20.715   4.266  47.130  0.00  0.00    -0.043 A 
ATOM     19  C   UNL     1      20.114   5.424  47.626  0.00  0.00    -0.059 A 
ATOM     20  C   UNL     1      20.396   5.859  48.922  0.00  0.00    -0.043 A 
ATOM     21  C   UNL     1      21.282   5.140  49.732  0.00  0.00    +0.050 A 
ATOM     22 CL   UNL     1      21.582   5.716  51.368  0.00  0.00    -0.083 Cl
ENDBRANCH   5  15
BRANCH  11  23
ATOM     23  C   UNL     1      27.330  -0.684  53.948  0.00  0.00    +0.034 A 
ATOM     24  C   UNL     1      28.008  -1.693  53.245  0.00  0.00    -0.040 A 
ATOM     25  C   UNL     1      29.399  -1.645  53.105  0.00  0.00    -0.060 A 
ATOM     26  C   UNL     1      30.122  -0.581  53.651  0.00  0.00    -0.062 A 
ATOM     27  C   UNL     1      29.454   0.440  54.331  0.00  0.00    -0.060 A 
ATOM     28  C   UNL     1      28.063   0.396  54.474  0.00  0.00    -0.040 A 
ENDBRANCH  11  23
TORSDOF 2
ENDMDL
MODEL 4
REMARK VINA RESULT:    -8.825      1.469      3.088
REMARK INTER + INTRA:         -10.334
REMARK INTER:                  -9.860
REMARK INTRA:                  -0.474
REMARK UNBOUND:                -0.476
REMARK  Name = 
REMARK  3 active torsions:
REMARK  status: ('A' for Active; 'I' for Inactive)
REMARK    1  A    between atoms: C_1  and  N_2
REMARK    2  A    between atoms: C_5  and  C_6
REMARK    3  A    between atoms: N_19  and  C_20
REMARK                            x       y       z     vdW  Elec       q    Type
REMARK                         _______ _______ _______ _____ _____    ______ ____
ROOT
ATOM      1  C   UNL     1      22.347   0.326  53.492  0.00  0.00    +0.017 C 
ATOM      2  N   UNL     1      23.588   0.739  52.814  0.00  0.00    -0.295 N 
ATOM      3  C   UNL     1      24.799   0.227  53.217  0.00  0.00    +0.260 A 
ATOM      4  O   UNL     1      24.858  -0.593  54.177  0.00  0.00    -0.267 OA
ATOM      5  C   UNL     1      25.988   0.600  52.562  0.00  0.00    +0.050 A 
ATOM      6  C   UNL     1      25.926   1.476  51.476  0.00  0.00    -0.037 A 
ATOM      7  C   UNL     1      24.692   1.964  51.050  0.00  0.00    +0.037 A 
ATOM      8  C   UNL     1      24.582   2.827  49.956  0.00  0.00    +0.042 A 
ATOM      9  N   UNL     1      23.359   3.269  49.564  0.00  0.00    -0.222 NA
ATOM     10  C   UNL     1      22.230   2.883  50.214  0.00  0.00    +0.221 A 
ATOM     11  N   UNL     1      20.958   3.392  49.787  0.00  0.00    -0.284 N 
ATOM     12  N   UNL     1      22.322   2.057  51.291  0.00  0.00    -0.196 NA
ATOM     13  C   UNL     1      23.520   1.581  51.729  0.00  0.00    +0.148 A 
ATOM     14  H   UNL     1      20.951   4.116  49.119  0.00  0.00    +0.000 HD
ENDROOT
BRANCH   5  15
ATOM     15  C   UNL     1      27.300   0.073  52.997  0.00  0.00    +0.024 A 
ATOM     16  C   UNL     1      28.216   0.908  53.672  0.00  0.00    +0.050 A 
ATOM     17 CL   UNL     1      27.851   2.600  53.997  0.00  0.00    -0.083 Cl
ATOM     18  C   UNL     1      29.455   0.401  54.081  0.00  0.00    -0.043 A 
ATOM     19  C   UNL     1      29.790  -0.929  53.826  0.00  0.00    -0.059 A 
ATOM     20  C   UNL     1      28.889  -1.763  53.160  0.00  0.00    -0.043 A 
ATOM     21  C   UNL     1      27.647  -1.272  52.744  0.00  0.00    +0.050 A 
ATOM     22 CL   UNL     1      26.537  -2.372  51.934  0.00  0.00    -0.083 Cl
ENDBRANCH   5  15
BRANCH  11  23
ATOM     23  C   UNL     1      19.693   2.913  50.272  0.00  0.00    +0.034 A 
ATOM     24  C   UNL     1      19.223   1.659  49.848  0.00  0.00    -0.040 A 
ATOM     25  C   UNL     1      18.003   1.165  50.319  0.00  0.00    -0.060 A 
ATOM     26  C   UNL     1      17.249   1.910  51.230  0.00  0.00    -0.062 A 
ATOM     27  C   UNL     1      17.720   3.147  51.677  0.00  0.00    -0.060 A 
ATOM     28  C   UNL     1      18.940   3.645  51.209  0.00  0.00    -0.040 A 
ENDBRANCH  11  23
TORSDOF 2
ENDMDL
MODEL 5
REMARK VINA RESULT:    -8.468      4.425      7.235
REMARK INTER + INTRA:          -9.935
REMARK INTER:                  -9.085
REMARK INTRA:                  -0.850
REMARK UNBOUND:                -0.476
REMARK  Name = 
REMARK  3 active torsions:
REMARK  status: ('A' for Active; 'I' for Inactive)
REMARK    1  A    between atoms: C_1  and  N_2
REMARK    2  A    between atoms: C_5  and  C_6
REMARK    3  A    between atoms: N_19  and  C_20
REMARK                            x       y       z     vdW  Elec       q    Type
REMARK                         _______ _______ _______ _____ _____    ______ ____
ROOT
ATOM      1  C   UNL     1      23.481   4.578  52.646  0.00  0.00    +0.017 C 
ATOM      2  N   UNL     1      23.525   4.713  51.180  0.00  0.00    -0.295 N 
ATOM      3  C   UNL     1      24.100   5.822  50.605  0.00  0.00    +0.260 A 
ATOM      4  O   UNL     1      24.586   6.736  51.329  0.00  0.00    -0.267 OA
ATOM      5  C   UNL     1      24.164   5.951  49.204  0.00  0.00    +0.050 A 
ATOM      6  C   UNL     1      23.663   4.926  48.399  0.00  0.00    -0.037 A 
ATOM      7  C   UNL     1      23.114   3.789  48.987  0.00  0.00    +0.037 A 
ATOM      8  C   UNL     1      22.619   2.731  48.219  0.00  0.00    +0.042 A 
ATOM      9  N   UNL     1      22.103   1.634  48.831  0.00  0.00    -0.222 NA
ATOM     10  C   UNL     1      22.064   1.538  50.187  0.00  0.00    +0.221 A 
ATOM     11  N   UNL     1      21.488   0.374  50.798  0.00  0.00    -0.284 N 
ATOM     12  N   UNL     1      22.526   2.566  50.948  0.00  0.00    -0.196 NA
ATOM     13  C   UNL     1      23.054   3.690  50.390  0.00  0.00    +0.148 A 
ATOM     14  H   UNL     1      21.012  -0.263  50.218  0.00  0.00    +0.000 HD
ENDROOT
BRANCH   5  15
ATOM     15  C   UNL     1      24.762   7.147  48.572  0.00  0.00    +0.024 A 
ATOM     16  C   UNL     1      23.983   8.305  48.357  0.00  0.00    +0.050 A 
ATOM     17 CL   UNL     1      22.281   8.364  48.804  0.00  0.00    -0.083 Cl
ATOM     18  C   UNL     1      24.557   9.433  47.760  0.00  0.00    -0.043 A 
ATOM     19  C   UNL     1      25.898   9.419  47.374  0.00  0.00    -0.059 A 
ATOM     20  C   UNL     1      26.676   8.280  47.583  0.00  0.00    -0.043 A 
ATOM     21  C   UNL     1      26.119   7.143  48.180  0.00  0.00    +0.050 A 
ATOM     22 CL   UNL     1      27.150   5.742  48.447  0.00  0.00    -0.083 Cl
ENDBRANCH   5  15
BRANCH  11  23
ATOM     23  C   UNL     1      21.561   0.081  52.203  0.00  0.00    +0.034 A 
ATOM     24  C   UNL     1      20.467   0.389  53.029  0.00  0.00    -0.040 A 
ATOM     25  C   UNL     1      20.510   0.098  54.396  0.00  0.00    -0.060 A 
ATOM     26  C   UNL     1      21.637  -0.518  54.947  0.00  0.00    -0.062 A 
ATOM     27  C   UNL     1      22.719  -0.850  54.129  0.00  0.00    -0.060 A 
ATOM     28  C   UNL     1      22.682  -0.561  52.762  0.00  0.00    -0.040 A 
ENDBRANCH  11  23
TORSDOF 2
ENDMDL
MODEL 6
REMARK VINA RESULT:    -8.405      5.939      8.623
REMARK INTER + INTRA:          -9.864
REMARK INTER:                  -9.054
REMARK INTRA:                  -0.810
REMARK UNBOUND:                -0.476
REMARK  Name = 
REMARK  3 active torsions:
REMARK  status: ('A' for Active; 'I' for Inactive)
REMARK    1  A    between atoms: C_1  and  N_2
REMARK    2  A    between atoms: C_5  and  C_6
REMARK    3  A    between atoms: N_19  and  C_20
REMARK                            x       y       z     vdW  Elec       q    Type
REMARK                         _______ _______ _______ _____ _____    ______ ____
ROOT
ATOM      1  C   UNL     1      24.126   7.524  50.494  0.00  0.00    +0.017 C 
ATOM      2  N   UNL     1      24.620   6.148  50.315  0.00  0.00    -0.295 N 
ATOM      3  C   UNL     1      23.860   5.081  50.736  0.00  0.00    +0.260 A 
ATOM      4  O   UNL     1      22.740   5.274  51.286  0.00  0.00    -0.267 OA
ATOM      5  C   UNL     1      24.315   3.761  50.551  0.00  0.00    +0.050 A 
ATOM      6  C   UNL     1      25.535   3.541  49.909  0.00  0.00    -0.037 A 
ATOM      7  C   UNL     1      26.284   4.625  49.454  0.00  0.00    +0.037 A 
ATOM      8  C   UNL     1      27.500   4.449  48.789  0.00  0.00    +0.042 A 
ATOM      9  N   UNL     1      28.193   5.531  48.348  0.00  0.00    -0.222 NA
ATOM     10  C   UNL     1      27.721   6.792  48.535  0.00  0.00    +0.221 A 
ATOM     11  N   UNL     1      28.494   7.911  48.079  0.00  0.00    -0.284 N 
ATOM     12  N   UNL     1      26.547   6.980  49.196  0.00  0.00    -0.196 NA
ATOM     13  C   UNL     1      25.809   5.934  49.659  0.00  0.00    +0.148 A 
ATOM     14  H   UNL     1      29.412   7.741  47.764  0.00  0.00    +0.000 HD
ENDROOT
BRANCH   5  15
ATOM     15  C   UNL     1      23.518   2.605  51.016  0.00  0.00    +0.024 A 
ATOM     16  C   UNL     1      23.657   2.129  52.338  0.00  0.00    +0.050 A 
ATOM     17 CL   UNL     1      24.789   2.865  53.467  0.00  0.00    -0.083 Cl
ATOM     18  C   UNL     1      22.898   1.035  52.770  0.00  0.00    -0.043 A 
ATOM     19  C   UNL     1      22.003   0.412  51.900  0.00  0.00    -0.059 A 
ATOM     20  C   UNL     1      21.858   0.877  50.592  0.00  0.00    -0.043 A 
ATOM     21  C   UNL     1      22.608   1.969  50.143  0.00  0.00    +0.050 A 
ATOM     22 CL   UNL     1      22.368   2.534  48.494  0.00  0.00    -0.083 Cl
ENDBRANCH   5  15
BRANCH  11  23
ATOM     23  C   UNL     1      28.014   9.266  48.053  0.00  0.00    +0.034 A 
ATOM     24  C   UNL     1      28.565  10.209  48.936  0.00  0.00    -0.040 A 
ATOM     25  C   UNL     1      28.125  11.536  48.918  0.00  0.00    -0.060 A 
ATOM     26  C   UNL     1      27.144  11.937  48.008  0.00  0.00    -0.062 A 
ATOM     27  C   UNL     1      26.607  11.012  47.109  0.00  0.00    -0.060 A 
ATOM     28  C   UNL     1      27.044   9.684  47.123  0.00  0.00    -0.040 A 
ENDBRANCH  11  23
TORSDOF 2
ENDMDL
MODEL 7
REMARK VINA RESULT:    -8.401      5.899      8.448
REMARK INTER + INTRA:          -9.860
REMARK INTER:                  -9.084
REMARK INTRA:                  -0.776
REMARK UNBOUND:                -0.476
REMARK  Name = 
REMARK  3 active torsions:
REMARK  status: ('A' for Active; 'I' for Inactive)
REMARK    1  A    between atoms: C_1  and  N_2
REMARK    2  A    between atoms: C_5  and  C_6
REMARK    3  A    between atoms: N_19  and  C_20
REMARK                            x       y       z     vdW  Elec       q    Type
REMARK                         _______ _______ _______ _____ _____    ______ ____
ROOT
ATOM      1  C   UNL     1      24.106   7.502  50.670  0.00  0.00    +0.017 C 
ATOM      2  N   UNL     1      24.611   6.134  50.460  0.00  0.00    -0.295 N 
ATOM      3  C   UNL     1      23.893   5.054  50.917  0.00  0.00    +0.260 A 
ATOM      4  O   UNL     1      22.801   5.226  51.528  0.00  0.00    -0.267 OA
ATOM      5  C   UNL     1      24.358   3.742  50.703  0.00  0.00    +0.050 A 
ATOM      6  C   UNL     1      25.545   3.544  49.995  0.00  0.00    -0.037 A 
ATOM      7  C   UNL     1      26.250   4.641  49.503  0.00  0.00    +0.037 A 
ATOM      8  C   UNL     1      27.431   4.487  48.773  0.00  0.00    +0.042 A 
ATOM      9  N   UNL     1      28.081   5.581  48.299  0.00  0.00    -0.222 NA
ATOM     10  C   UNL     1      27.600   6.833  48.516  0.00  0.00    +0.221 A 
ATOM     11  N   UNL     1      28.329   7.967  48.023  0.00  0.00    -0.284 N 
ATOM     12  N   UNL     1      26.461   7.001  49.240  0.00  0.00    -0.196 NA
ATOM     13  C   UNL     1      25.767   5.941  49.739  0.00  0.00    +0.148 A 
ATOM     14  H   UNL     1      29.231   7.813  47.658  0.00  0.00    +0.000 HD
ENDROOT
BRANCH   5  15
ATOM     15  C   UNL     1      23.606   2.572  51.206  0.00  0.00    +0.024 A 
ATOM     16  C   UNL     1      22.646   1.936  50.389  0.00  0.00    +0.050 A 
ATOM     17 CL   UNL     1      22.289   2.517  48.766  0.00  0.00    -0.083 Cl
ATOM     18  C   UNL     1      21.941   0.828  50.873  0.00  0.00    -0.043 A 
ATOM     19  C   UNL     1      22.181   0.347  52.161  0.00  0.00    -0.059 A 
ATOM     20  C   UNL     1      23.130   0.969  52.974  0.00  0.00    -0.043 A 
ATOM     21  C   UNL     1      23.845   2.077  52.507  0.00  0.00    +0.050 A 
ATOM     22 CL   UNL     1      25.049   2.808  53.562  0.00  0.00    -0.083 Cl
ENDBRANCH   5  15
BRANCH  11  23
ATOM     23  C   UNL     1      27.827   9.314  48.029  0.00  0.00    +0.034 A 
ATOM     24  C   UNL     1      28.478  10.289  48.802  0.00  0.00    -0.040 A 
ATOM     25  C   UNL     1      28.017  11.609  48.810  0.00  0.00    -0.060 A 
ATOM     26  C   UNL     1      26.912  11.970  48.035  0.00  0.00    -0.062 A 
ATOM     27  C   UNL     1      26.272  11.013  47.244  0.00  0.00    -0.060 A 
ATOM     28  C   UNL     1      26.730   9.692  47.232  0.00  0.00    -0.040 A 
ENDBRANCH  11  23
TORSDOF 2
ENDMDL
MODEL 8
REMARK VINA RESULT:    -7.948      4.226      5.985
REMARK INTER + INTRA:          -9.354
REMARK INTER:                  -8.582
REMARK INTRA:                  -0.772
REMARK UNBOUND:                -0.476
REMARK  Name = 
REMARK  3 active torsions:
REMARK  status: ('A' for Active; 'I' for Inactive)
REMARK    1  A    between atoms: C_1  and  N_2
REMARK    2  A    between atoms: C_5  and  C_6
REMARK    3  A    between atoms: N_19  and  C_20
REMARK                            x       y       z     vdW  Elec       q    Type
REMARK                         _______ _______ _______ _____ _____    ______ ____
ROOT
ATOM      1  C   UNL     1      24.087   5.486  51.694  0.00  0.00    +0.017 C 
ATOM      2  N   UNL     1      23.643   4.128  51.336  0.00  0.00    -0.295 N 
ATOM      3  C   UNL     1      23.623   3.134  52.286  0.00  0.00    +0.260 A 
ATOM      4  O   UNL     1      23.995   3.375  53.469  0.00  0.00    -0.267 OA
ATOM      5  C   UNL     1      23.181   1.838  51.958  0.00  0.00    +0.050 A 
ATOM      6  C   UNL     1      22.733   1.574  50.662  0.00  0.00    -0.037 A 
ATOM      7  C   UNL     1      22.722   2.595  49.713  0.00  0.00    +0.037 A 
ATOM      8  C   UNL     1      22.263   2.380  48.411  0.00  0.00    +0.042 A 
ATOM      9  N   UNL     1      22.255   3.404  47.519  0.00  0.00    -0.222 NA
ATOM     10  C   UNL     1      22.681   4.646  47.870  0.00  0.00    +0.221 A 
ATOM     11  N   UNL     1      22.684   5.697  46.893  0.00  0.00    -0.284 N 
ATOM     12  N   UNL     1      23.147   4.866  49.129  0.00  0.00    -0.196 NA
ATOM     13  C   UNL     1      23.178   3.878  50.066  0.00  0.00    +0.148 A 
ATOM     14  H   UNL     1      22.504   5.455  45.955  0.00  0.00    +0.000 HD
ENDROOT
BRANCH   5  15
ATOM     15  C   UNL     1      23.174   0.754  52.965  0.00  0.00    +0.024 A 
ATOM     16  C   UNL     1      24.362   0.056  53.271  0.00  0.00    +0.050 A 
ATOM     17 CL   UNL     1      25.880   0.425  52.459  0.00  0.00    -0.083 Cl
ATOM     18  C   UNL     1      24.346  -0.967  54.226  0.00  0.00    -0.043 A 
ATOM     19  C   UNL     1      23.160  -1.302  54.879  0.00  0.00    -0.059 A 
ATOM     20  C   UNL     1      21.980  -0.617  54.584  0.00  0.00    -0.043 A 
ATOM     21  C   UNL     1      21.978   0.409  53.632  0.00  0.00    +0.050 A 
ATOM     22 CL   UNL     1      20.470   1.260  53.317  0.00  0.00    -0.083 Cl
ENDBRANCH   5  15
BRANCH  11  23
ATOM     23  C   UNL     1      22.931   7.080  47.196  0.00  0.00    +0.034 A 
ATOM     24  C   UNL     1      21.878   7.881  47.666  0.00  0.00    -0.040 A 
ATOM     25  C   UNL     1      22.100   9.225  47.983  0.00  0.00    -0.060 A 
ATOM     26  C   UNL     1      23.377   9.776  47.849  0.00  0.00    -0.062 A 
ATOM     27  C   UNL     1      24.436   8.981  47.405  0.00  0.00    -0.060 A 
ATOM     28  C   UNL     1      24.220   7.636  47.088  0.00  0.00    -0.040 A 
ENDBRANCH  11  23
TORSDOF 2
ENDMDL
MODEL 9
REMARK VINA RESULT:    -7.606      4.015      5.388
REMARK INTER + INTRA:          -8.972
REMARK INTER:                  -8.110
REMARK INTRA:                  -0.862
REMARK UNBOUND:                -0.476
REMARK  Name = 
REMARK  3 active torsions:
REMARK  status: ('A' for Active; 'I' for Inactive)
REMARK    1  A    between atoms: C_1  and  N_2
REMARK    2  A    between atoms: C_5  and  C_6
REMARK    3  A    between atoms: N_19  and  C_20
REMARK                            x       y       z     vdW  Elec       q    Type
REMARK                         _______ _______ _______ _____ _____    ______ ____
ROOT
ATOM      1  C   UNL     1      23.290   5.948  51.908  0.00  0.00    +0.017 C 
ATOM      2  N   UNL     1      23.283   4.578  51.366  0.00  0.00    -0.295 N 
ATOM      3  C   UNL     1      23.746   3.531  52.129  0.00  0.00    +0.260 A 
ATOM      4  O   UNL     1      24.189   3.738  53.294  0.00  0.00    -0.267 OA
ATOM      5  C   UNL     1      23.724   2.216  51.627  0.00  0.00    +0.050 A 
ATOM      6  C   UNL     1      23.201   1.976  50.355  0.00  0.00    -0.037 A 
ATOM      7  C   UNL     1      22.700   3.036  49.602  0.00  0.00    +0.037 A 
ATOM      8  C   UNL     1      22.149   2.838  48.333  0.00  0.00    +0.042 A 
ATOM      9  N   UNL     1      21.660   3.896  47.635  0.00  0.00    -0.222 NA
ATOM     10  C   UNL     1      21.688   5.153  48.152  0.00  0.00    +0.221 A 
ATOM     11  N   UNL     1      21.186   6.250  47.375  0.00  0.00    -0.284 N 
ATOM     12  N   UNL     1      22.237   5.364  49.379  0.00  0.00    -0.196 NA
ATOM     13  C   UNL     1      22.742   4.342  50.124  0.00  0.00    +0.148 A 
ATOM     14  H   UNL     1      20.959   6.081  46.432  0.00  0.00    +0.000 HD
ENDROOT
BRANCH   5  15
ATOM     15  C   UNL     1      24.237   1.083  52.429  0.00  0.00    +0.024 A 
ATOM     16  C   UNL     1      23.367   0.347  53.262  0.00  0.00    +0.050 A 
ATOM     17 CL   UNL     1      21.661   0.757  53.401  0.00  0.00    -0.083 Cl
ATOM     18  C   UNL     1      23.861  -0.725  54.015  0.00  0.00    -0.043 A 
ATOM     19  C   UNL     1      25.211  -1.070  53.947  0.00  0.00    -0.059 A 
ATOM     20  C   UNL     1      26.078  -0.349  53.125  0.00  0.00    -0.043 A 
ATOM     21  C   UNL     1      25.601   0.725  52.364  0.00  0.00    +0.050 A 
ATOM     22 CL   UNL     1      26.730   1.584  51.322  0.00  0.00    -0.083 Cl
ENDBRANCH   5  15
BRANCH  11  23
ATOM     23  C   UNL     1      20.993   7.579  47.886  0.00  0.00    +0.034 A 
ATOM     24  C   UNL     1      19.802   7.892  48.561  0.00  0.00    -0.040 A 
ATOM     25  C   UNL     1      19.600   9.174  49.081  0.00  0.00    -0.060 A 
ATOM     26  C   UNL     1      20.591  10.150  48.946  0.00  0.00    -0.062 A 
ATOM     27  C   UNL     1      21.789   9.841  48.298  0.00  0.00    -0.060 A 
ATOM     28  C   UNL     1      21.996   8.560  47.777  0.00  0.00    -0.040 A 
ENDBRANCH  11  23
TORSDOF 2
ENDMDL
