MODEL 1
REMARK VINA RESULT:   -11.836      0.000      0.000
REMARK INTER + INTRA:         -14.479
REMARK INTER:                 -13.912
REMARK INTRA:                  -0.567
REMARK UNBOUND:                -0.567
REMARK  Name = 
REMARK  6 active torsions:
REMARK  status: ('A' for Active; 'I' for Inactive)
REMARK    1  A    between atoms: C_1  and  O_2
REMARK    2  A    between atoms: O_2  and  C_3
REMARK    3  A    between atoms: C_4  and  N_5
REMARK    4  A    between atoms: N_5  and  C_6
REMARK    5  A    between atoms: C_7  and  C_9
REMARK    6  A    between atoms: C_19  and  C_20
REMARK                            x       y       z     vdW  Elec       q    Type
REMARK                         _______ _______ _______ _____ _____    ______ ____
ROOT
ATOM      1  C   UNL     1      21.751   3.839  49.688  0.00  0.00    +0.125 C 
ATOM      2  C   UNL     1      23.004   4.706  49.481  0.00  0.00    +0.061 C 
ATOM      3  C   UNL     1      24.110   4.169  50.392  0.00  0.00    +0.014 C 
ATOM      4  C   UNL     1      24.387   2.686  50.083  0.00  0.00    +0.140 C 
ATOM      5  O   UNL     1      23.481   2.069  49.189  0.00  0.00    -0.328 OA
ATOM      6  C   UNL     1      22.091   2.326  49.386  0.00  0.00    +0.174 C 
ATOM      7  C   UNL     1      21.492   1.917  48.013  0.00  0.00    -0.014 C 
ATOM      8  N   UNL     1      21.560   1.440  50.459  0.00  0.00    -0.307 N 
ATOM      9  C   UNL     1      20.269   1.033  50.680  0.00  0.00    +0.053 A 
ATOM     10  C   UNL     1      19.094   1.446  50.031  0.00  0.00    -0.037 A 
ATOM     11  C   UNL     1      17.864   0.908  50.444  0.00  0.00    -0.060 A 
ATOM     12  C   UNL     1      17.805  -0.007  51.511  0.00  0.00    -0.061 A 
ATOM     13  C   UNL     1      18.973  -0.371  52.195  0.00  0.00    -0.052 A 
ATOM     14  C   UNL     1      20.185   0.171  51.762  0.00  0.00    +0.008 A 
ATOM     15  C   UNL     1      21.450   0.083  52.288  0.00  0.00    +0.015 A 
ATOM     16  C   UNL     1      21.948  -0.553  53.436  0.00  0.00    -0.008 A 
ATOM     17  C   UNL     1      23.278  -0.363  53.804  0.00  0.00    +0.052 A 
ATOM     18  C   UNL     1      24.103   0.488  53.036  0.00  0.00    +0.022 A 
ATOM     19  C   UNL     1      25.402   0.965  53.174  0.00  0.00    +0.008 A 
ATOM     20  C   UNL     1      26.385   0.774  54.151  0.00  0.00    -0.052 A 
ATOM     21  C   UNL     1      27.609   1.448  54.005  0.00  0.00    -0.061 A 
ATOM     22  C   UNL     1      27.829   2.305  52.911  0.00  0.00    -0.060 A 
ATOM     23  C   UNL     1      26.827   2.501  51.949  0.00  0.00    -0.037 A 
ATOM     24  C   UNL     1      25.616   1.815  52.103  0.00  0.00    +0.052 A 
ATOM     25  N   UNL     1      24.524   1.892  51.302  0.00  0.00    -0.311 N 
ATOM     26  C   UNL     1      23.599   1.094  51.878  0.00  0.00    +0.077 A 
ATOM     27  C   UNL     1      22.261   0.883  51.490  0.00  0.00    +0.077 A 
ATOM     28  C   UNL     1      23.477  -1.151  55.007  0.00  0.00    +0.245 C 
ATOM     29  O   UNL     1      24.557  -1.325  55.623  0.00  0.00    -0.270 OA
ATOM     30  N   UNL     1      22.264  -1.785  55.381  0.00  0.00    -0.307 N 
ATOM     31  C   UNL     1      21.227  -1.435  54.415  0.00  0.00    +0.039 C 
ATOM     32  H   UNL     1      22.141  -2.367  56.166  0.00  0.00    +0.000 HD
ENDROOT
BRANCH   2  33
ATOM     33  N   UNL     1      22.720   6.144  49.688  0.00  0.00    -0.295 N 
ATOM     34  C   UNL     1      23.237   6.868  50.861  0.00  0.00    +0.004 C 
ATOM     35  C   UNL     1      21.930   6.845  48.700  0.00  0.00    +0.248 C 
ATOM     36  O   UNL     1      21.138   6.197  47.959  0.00  0.00    -0.270 OA
BRANCH  35  37
ATOM     37  C   UNL     1      22.055   8.305  48.497  0.00  0.00    +0.055 A 
ATOM     38  C   UNL     1      23.175   8.812  47.815  0.00  0.00    -0.048 A 
ATOM     39  C   UNL     1      23.306  10.185  47.590  0.00  0.00    -0.061 A 
ATOM     40  C   UNL     1      22.319  11.064  48.039  0.00  0.00    -0.060 A 
ATOM     41  C   UNL     1      21.199  10.573  48.715  0.00  0.00    -0.043 A 
ATOM     42  C   UNL     1      21.059   9.200  48.946  0.00  0.00    +0.053 A 
ATOM     43 CL   UNL     1      19.651   8.645  49.848  0.00  0.00    -0.083 Cl
ENDBRANCH  35  37
ENDBRANCH   2  33
BRANCH   1  45
ATOM     44  C   UNL     1      20.060   4.641  51.102  0.00  0.00    +0.037 C 
ATOM     45  O   UNL     1      21.305   3.978  51.035  0.00  0.00    -0.373 OA
ENDBRANCH   1  45
TORSDOF 3
ENDMDL
MODEL 2
REMARK VINA RESULT:   -10.653      1.928      2.272
REMARK INTER + INTRA:         -13.089
REMARK INTER:                 -12.783
REMARK INTRA:                  -0.305
REMARK UNBOUND:                -0.567
REMARK  Name = 
REMARK  6 active torsions:
REMARK  status: ('A' for Active; 'I' for Inactive)
REMARK    1  A    between atoms: C_1  and  O_2
REMARK    2  A    between atoms: O_2  and  C_3
REMARK    3  A    between atoms: C_4  and  N_5
REMARK    4  A    between atoms: N_5  and  C_6
REMARK    5  A    between atoms: C_7  and  C_9
REMARK    6  A    between atoms: C_19  and  C_20
REMARK                            x       y       z     vdW  Elec       q    Type
REMARK                         _______ _______ _______ _____ _____    ______ ____
ROOT
ATOM      1  C   UNL     1      22.961   4.797  49.337  0.00  0.00    +0.125 C 
ATOM      2  C   UNL     1      24.454   5.153  49.259  0.00  0.00    +0.061 C 
ATOM      3  C   UNL     1      25.211   4.249  50.234  0.00  0.00    +0.014 C 
ATOM      4  C   UNL     1      24.961   2.767  49.896  0.00  0.00    +0.140 C 
ATOM      5  O   UNL     1      23.974   2.524  48.912  0.00  0.00    -0.328 OA
ATOM      6  C   UNL     1      22.758   3.264  49.009  0.00  0.00    +0.174 C 
ATOM      7  C   UNL     1      22.173   3.106  47.579  0.00  0.00    -0.014 C 
ATOM      8  N   UNL     1      21.854   2.625  50.005  0.00  0.00    -0.307 N 
ATOM      9  C   UNL     1      20.489   2.711  50.109  0.00  0.00    +0.053 A 
ATOM     10  C   UNL     1      19.601   3.525  49.385  0.00  0.00    -0.037 A 
ATOM     11  C   UNL     1      18.230   3.465  49.682  0.00  0.00    -0.060 A 
ATOM     12  C   UNL     1      17.755   2.628  50.708  0.00  0.00    -0.061 A 
ATOM     13  C   UNL     1      18.650   1.863  51.468  0.00  0.00    -0.052 A 
ATOM     14  C   UNL     1      20.008   1.933  51.150  0.00  0.00    +0.008 A 
ATOM     15  C   UNL     1      21.107   1.391  51.770  0.00  0.00    +0.015 A 
ATOM     16  C   UNL     1      21.242   0.612  52.931  0.00  0.00    -0.008 A 
ATOM     17  C   UNL     1      22.515   0.307  53.407  0.00  0.00    +0.052 A 
ATOM     18  C   UNL     1      23.653   0.806  52.737  0.00  0.00    +0.022 A 
ATOM     19  C   UNL     1      25.020   0.781  52.994  0.00  0.00    +0.008 A 
ATOM     20  C   UNL     1      25.781   0.242  54.036  0.00  0.00    -0.052 A 
ATOM     21  C   UNL     1      27.173   0.429  54.012  0.00  0.00    -0.061 A 
ATOM     22  C   UNL     1      27.780   1.154  52.969  0.00  0.00    -0.060 A 
ATOM     23  C   UNL     1      27.002   1.704  51.939  0.00  0.00    -0.037 A 
ATOM     24  C   UNL     1      25.616   1.501  51.973  0.00  0.00    +0.052 A 
ATOM     25  N   UNL     1      24.698   1.971  51.093  0.00  0.00    -0.311 N 
ATOM     26  C   UNL     1      23.503   1.558  51.566  0.00  0.00    +0.077 A 
ATOM     27  C   UNL     1      22.217   1.847  51.067  0.00  0.00    +0.077 A 
ATOM     28  C   UNL     1      22.313  -0.505  54.594  0.00  0.00    +0.245 C 
ATOM     29  O   UNL     1      23.202  -1.061  55.286  0.00  0.00    -0.270 OA
ATOM     30  N   UNL     1      20.926  -0.660  54.849  0.00  0.00    -0.307 N 
ATOM     31  C   UNL     1      20.171   0.046  53.818  0.00  0.00    +0.039 C 
ATOM     32  H   UNL     1      20.535  -1.162  55.601  0.00  0.00    +0.000 HD
ENDROOT
BRANCH   2  33
ATOM     33  N   UNL     1      24.690   6.596  49.494  0.00  0.00    -0.295 N 
ATOM     34  C   UNL     1      24.821   7.141  50.855  0.00  0.00    +0.004 C 
ATOM     35  C   UNL     1      24.809   7.474  48.352  0.00  0.00    +0.248 C 
ATOM     36  O   UNL     1      24.286   7.143  47.251  0.00  0.00    -0.270 OA
BRANCH  35  37
ATOM     37  C   UNL     1      25.571   8.741  48.421  0.00  0.00    +0.055 A 
ATOM     38  C   UNL     1      26.959   8.698  48.638  0.00  0.00    -0.048 A 
ATOM     39  C   UNL     1      27.706   9.878  48.685  0.00  0.00    -0.061 A 
ATOM     40  C   UNL     1      27.076  11.112  48.510  0.00  0.00    -0.060 A 
ATOM     41  C   UNL     1      25.698  11.168  48.290  0.00  0.00    -0.043 A 
ATOM     42  C   UNL     1      24.941   9.992  48.242  0.00  0.00    +0.053 A 
ATOM     43 CL   UNL     1      23.199  10.129  48.011  0.00  0.00    -0.083 Cl
ENDBRANCH  35  37
ENDBRANCH   2  33
BRANCH   1  45
ATOM     44  C   UNL     1      21.513   6.110  50.634  0.00  0.00    +0.037 C 
ATOM     45  O   UNL     1      22.481   5.081  50.649  0.00  0.00    -0.373 OA
ENDBRANCH   1  45
TORSDOF 3
ENDMDL
MODEL 3
REMARK VINA RESULT:   -10.112      2.794      4.252
REMARK INTER + INTRA:         -12.453
REMARK INTER:                 -11.875
REMARK INTRA:                  -0.578
REMARK UNBOUND:                -0.567
REMARK  Name = 
REMARK  6 active torsions:
REMARK  status: ('A' for Active; 'I' for Inactive)
REMARK    1  A    between atoms: C_1  and  O_2
REMARK    2  A    between atoms: O_2  and  C_3
REMARK    3  A    between atoms: C_4  and  N_5
REMARK    4  A    between atoms: N_5  and  C_6
REMARK    5  A    between atoms: C_7  and  C_9
REMARK    6  A    between atoms: C_19  and  C_20
REMARK                            x       y       z     vdW  Elec       q    Type
REMARK                         _______ _______ _______ _____ _____    ______ ____
ROOT
ATOM      1  C   UNL     1      21.759   3.970  48.990  0.00  0.00    +0.125 C 
ATOM      2  C   UNL     1      23.182   3.886  49.565  0.00  0.00    +0.061 C 
ATOM      3  C   UNL     1      23.182   2.843  50.685  0.00  0.00    +0.014 C 
ATOM      4  C   UNL     1      22.702   1.480  50.150  0.00  0.00    +0.140 C 
ATOM      5  O   UNL     1      22.194   1.489  48.830  0.00  0.00    -0.328 OA
ATOM      6  C   UNL     1      21.302   2.547  48.479  0.00  0.00    +0.174 C 
ATOM      7  C   UNL     1      21.352   2.505  46.927  0.00  0.00    -0.014 C 
ATOM      8  N   UNL     1      19.927   2.230  48.955  0.00  0.00    -0.307 N 
ATOM      9  C   UNL     1      18.726   2.703  48.494  0.00  0.00    +0.053 A 
ATOM     10  C   UNL     1      18.483   3.705  47.541  0.00  0.00    -0.037 A 
ATOM     11  C   UNL     1      17.155   4.048  47.238  0.00  0.00    -0.060 A 
ATOM     12  C   UNL     1      16.084   3.421  47.902  0.00  0.00    -0.061 A 
ATOM     13  C   UNL     1      16.332   2.465  48.896  0.00  0.00    -0.052 A 
ATOM     14  C   UNL     1      17.660   2.135  49.174  0.00  0.00    +0.008 A 
ATOM     15  C   UNL     1      18.203   1.328  50.143  0.00  0.00    +0.015 A 
ATOM     16  C   UNL     1      17.621   0.589  51.186  0.00  0.00    -0.008 A 
ATOM     17  C   UNL     1      18.440  -0.046  52.117  0.00  0.00    +0.052 A 
ATOM     18  C   UNL     1      19.843   0.083  52.021  0.00  0.00    +0.022 A 
ATOM     19  C   UNL     1      20.911  -0.318  52.815  0.00  0.00    +0.008 A 
ATOM     20  C   UNL     1      20.986  -1.009  54.029  0.00  0.00    -0.052 A 
ATOM     21  C   UNL     1      22.253  -1.225  54.597  0.00  0.00    -0.061 A 
ATOM     22  C   UNL     1      23.413  -0.743  53.963  0.00  0.00    -0.060 A 
ATOM     23  C   UNL     1      23.321  -0.036  52.755  0.00  0.00    -0.037 A 
ATOM     24  C   UNL     1      22.053   0.164  52.197  0.00  0.00    +0.052 A 
ATOM     25  N   UNL     1      21.755   0.839  51.059  0.00  0.00    -0.311 N 
ATOM     26  C   UNL     1      20.409   0.801  50.960  0.00  0.00    +0.077 A 
ATOM     27  C   UNL     1      19.584   1.423  50.002  0.00  0.00    +0.077 A 
ATOM     28  C   UNL     1      17.546  -0.720  53.041  0.00  0.00    +0.245 C 
ATOM     29  O   UNL     1      17.873  -1.477  53.988  0.00  0.00    -0.270 OA
ATOM     30  N   UNL     1      16.195  -0.465  52.687  0.00  0.00    -0.307 N 
ATOM     31  C   UNL     1      16.167   0.385  51.501  0.00  0.00    +0.039 C 
ATOM     32  H   UNL     1      15.404  -0.806  53.165  0.00  0.00    +0.000 HD
ENDROOT
BRANCH   2  33
ATOM     33  N   UNL     1      23.682   5.211  49.998  0.00  0.00    -0.295 N 
ATOM     34  C   UNL     1      23.796   5.560  51.424  0.00  0.00    +0.004 C 
ATOM     35  C   UNL     1      24.079   6.166  48.988  0.00  0.00    +0.248 C 
ATOM     36  O   UNL     1      23.601   6.078  47.823  0.00  0.00    -0.270 OA
BRANCH  35  37
ATOM     37  C   UNL     1      25.071   7.228  49.269  0.00  0.00    +0.055 A 
ATOM     38  C   UNL     1      24.623   8.503  49.654  0.00  0.00    -0.048 A 
ATOM     39  C   UNL     1      25.539   9.517  49.947  0.00  0.00    -0.061 A 
ATOM     40  C   UNL     1      26.910   9.266  49.862  0.00  0.00    -0.060 A 
ATOM     41  C   UNL     1      27.368   8.003  49.483  0.00  0.00    -0.043 A 
ATOM     42  C   UNL     1      26.459   6.980  49.187  0.00  0.00    +0.053 A 
ATOM     43 CL   UNL     1      27.095   5.422  48.666  0.00  0.00    -0.083 Cl
ENDBRANCH  35  37
ENDBRANCH   2  33
BRANCH   1  45
ATOM     44  C   UNL     1      20.429   5.747  49.750  0.00  0.00    +0.037 C 
ATOM     45  O   UNL     1      20.871   4.430  50.006  0.00  0.00    -0.373 OA
ENDBRANCH   1  45
TORSDOF 3
ENDMDL
MODEL 4
REMARK VINA RESULT:    -9.654      2.779      6.429
REMARK INTER + INTRA:         -11.913
REMARK INTER:                 -12.825
REMARK INTRA:                   0.912
REMARK UNBOUND:                -0.567
REMARK  Name = 
REMARK  6 active torsions:
REMARK  status: ('A' for Active; 'I' for Inactive)
REMARK    1  A    between atoms: C_1  and  O_2
REMARK    2  A    between atoms: O_2  and  C_3
REMARK    3  A    between atoms: C_4  and  N_5
REMARK    4  A    between atoms: N_5  and  C_6
REMARK    5  A    between atoms: C_7  and  C_9
REMARK    6  A    between atoms: C_19  and  C_20
REMARK                            x       y       z     vdW  Elec       q    Type
REMARK                         _______ _______ _______ _____ _____    ______ ____
ROOT
ATOM      1  C   UNL     1      20.706   4.277  49.942  0.00  0.00    +0.125 C 
ATOM      2  C   UNL     1      19.363   3.691  50.405  0.00  0.00    +0.061 C 
ATOM      3  C   UNL     1      19.654   2.476  51.290  0.00  0.00    +0.014 C 
ATOM      4  C   UNL     1      20.539   2.882  52.483  0.00  0.00    +0.140 C 
ATOM      5  O   UNL     1      21.053   4.199  52.442  0.00  0.00    -0.328 OA
ATOM      6  C   UNL     1      21.588   4.653  51.198  0.00  0.00    +0.174 C 
ATOM      7  C   UNL     1      21.592   6.193  51.396  0.00  0.00    -0.014 C 
ATOM      8  N   UNL     1      22.982   4.154  51.034  0.00  0.00    -0.307 N 
ATOM      9  C   UNL     1      23.993   4.664  50.260  0.00  0.00    +0.053 A 
ATOM     10  C   UNL     1      23.942   5.709  49.324  0.00  0.00    -0.037 A 
ATOM     11  C   UNL     1      25.110   6.049  48.620  0.00  0.00    -0.060 A 
ATOM     12  C   UNL     1      26.303   5.333  48.826  0.00  0.00    -0.061 A 
ATOM     13  C   UNL     1      26.334   4.251  49.717  0.00  0.00    -0.052 A 
ATOM     14  C   UNL     1      25.164   3.937  50.410  0.00  0.00    +0.008 A 
ATOM     15  C   UNL     1      24.869   2.893  51.252  0.00  0.00    +0.015 A 
ATOM     16  C   UNL     1      25.622   1.788  51.677  0.00  0.00    -0.008 A 
ATOM     17  C   UNL     1      25.013   0.796  52.444  0.00  0.00    +0.052 A 
ATOM     18  C   UNL     1      23.640   0.898  52.760  0.00  0.00    +0.022 A 
ATOM     19  C   UNL     1      22.726   0.065  53.394  0.00  0.00    +0.008 A 
ATOM     20  C   UNL     1      22.835  -1.210  53.960  0.00  0.00    -0.052 A 
ATOM     21  C   UNL     1      21.681  -1.801  54.500  0.00  0.00    -0.061 A 
ATOM     22  C   UNL     1      20.445  -1.129  54.457  0.00  0.00    -0.060 A 
ATOM     23  C   UNL     1      20.347   0.142  53.870  0.00  0.00    -0.037 A 
ATOM     24  C   UNL     1      21.508   0.722  53.344  0.00  0.00    +0.052 A 
ATOM     25  N   UNL     1      21.613   1.919  52.717  0.00  0.00    -0.311 N 
ATOM     26  C   UNL     1      22.909   2.020  52.351  0.00  0.00    +0.077 A 
ATOM     27  C   UNL     1      23.529   3.037  51.597  0.00  0.00    +0.077 A 
ATOM     28  C   UNL     1      26.046  -0.184  52.724  0.00  0.00    +0.245 C 
ATOM     29  O   UNL     1      25.942  -1.200  53.455  0.00  0.00    -0.270 OA
ATOM     30  N   UNL     1      27.263   0.199  52.102  0.00  0.00    -0.307 N 
ATOM     31  C   UNL     1      27.061   1.461  51.397  0.00  0.00    +0.039 C 
ATOM     32  H   UNL     1      28.108  -0.306  52.139  0.00  0.00    +0.000 HD
ENDROOT
BRANCH   2  33
ATOM     33  N   UNL     1      18.472   3.383  49.263  0.00  0.00    -0.295 N 
ATOM     34  C   UNL     1      19.013   3.047  47.935  0.00  0.00    +0.004 C 
ATOM     35  C   UNL     1      17.042   3.401  49.475  0.00  0.00    +0.248 C 
ATOM     36  O   UNL     1      16.558   4.083  50.421  0.00  0.00    -0.270 OA
BRANCH  35  37
ATOM     37  C   UNL     1      16.121   2.601  48.636  0.00  0.00    +0.055 A 
ATOM     38  C   UNL     1      15.288   3.257  47.713  0.00  0.00    -0.048 A 
ATOM     39  C   UNL     1      14.425   2.524  46.893  0.00  0.00    -0.061 A 
ATOM     40  C   UNL     1      14.390   1.132  46.982  0.00  0.00    -0.060 A 
ATOM     41  C   UNL     1      15.216   0.468  47.892  0.00  0.00    -0.043 A 
ATOM     42  C   UNL     1      16.083   1.192  48.719  0.00  0.00    +0.053 A 
ATOM     43 CL   UNL     1      17.064   0.304  49.882  0.00  0.00    -0.083 Cl
ENDBRANCH  35  37
ENDBRANCH   2  33
BRANCH   1  45
ATOM     44  C   UNL     1      21.688   3.826  47.860  0.00  0.00    +0.037 C 
ATOM     45  O   UNL     1      21.386   3.314  49.141  0.00  0.00    -0.373 OA
ENDBRANCH   1  45
TORSDOF 3
ENDMDL
MODEL 5
REMARK VINA RESULT:    -8.963      2.942      6.995
REMARK INTER + INTRA:         -11.102
REMARK INTER:                 -10.575
REMARK INTRA:                  -0.527
REMARK UNBOUND:                -0.567
REMARK  Name = 
REMARK  6 active torsions:
REMARK  status: ('A' for Active; 'I' for Inactive)
REMARK    1  A    between atoms: C_1  and  O_2
REMARK    2  A    between atoms: O_2  and  C_3
REMARK    3  A    between atoms: C_4  and  N_5
REMARK    4  A    between atoms: N_5  and  C_6
REMARK    5  A    between atoms: C_7  and  C_9
REMARK    6  A    between atoms: C_19  and  C_20
REMARK                            x       y       z     vdW  Elec       q    Type
REMARK                         _______ _______ _______ _____ _____    ______ ____
ROOT
ATOM      1  C   UNL     1      18.971   3.210  49.864  0.00  0.00    +0.125 C 
ATOM      2  C   UNL     1      18.086   2.248  50.673  0.00  0.00    +0.061 C 
ATOM      3  C   UNL     1      18.994   1.417  51.583  0.00  0.00    +0.014 C 
ATOM      4  C   UNL     1      19.821   2.338  52.501  0.00  0.00    +0.140 C 
ATOM      5  O   UNL     1      19.733   3.721  52.216  0.00  0.00    -0.328 OA
ATOM      6  C   UNL     1      19.817   4.113  50.846  0.00  0.00    +0.174 C 
ATOM      7  C   UNL     1      19.221   5.546  50.887  0.00  0.00    -0.014 C 
ATOM      8  N   UNL     1      21.244   4.165  50.421  0.00  0.00    -0.307 N 
ATOM      9  C   UNL     1      21.811   4.874  49.393  0.00  0.00    +0.053 A 
ATOM     10  C   UNL     1      21.178   5.634  48.395  0.00  0.00    -0.037 A 
ATOM     11  C   UNL     1      21.967   6.261  47.417  0.00  0.00    -0.060 A 
ATOM     12  C   UNL     1      23.365   6.105  47.416  0.00  0.00    -0.061 A 
ATOM     13  C   UNL     1      23.987   5.297  48.377  0.00  0.00    -0.052 A 
ATOM     14  C   UNL     1      23.183   4.690  49.344  0.00  0.00    +0.008 A 
ATOM     15  C   UNL     1      23.489   3.782  50.328  0.00  0.00    +0.015 A 
ATOM     16  C   UNL     1      24.690   3.145  50.678  0.00  0.00    -0.008 A 
ATOM     17  C   UNL     1      24.680   2.151  51.654  0.00  0.00    +0.052 A 
ATOM     18  C   UNL     1      23.461   1.775  52.261  0.00  0.00    +0.022 A 
ATOM     19  C   UNL     1      23.091   0.784  53.163  0.00  0.00    +0.008 A 
ATOM     20  C   UNL     1      23.808  -0.228  53.810  0.00  0.00    -0.052 A 
ATOM     21  C   UNL     1      23.107  -1.108  54.652  0.00  0.00    -0.061 A 
ATOM     22  C   UNL     1      21.716  -0.978  54.824  0.00  0.00    -0.060 A 
ATOM     23  C   UNL     1      21.008   0.030  54.154  0.00  0.00    -0.037 A 
ATOM     24  C   UNL     1      21.721   0.905  53.326  0.00  0.00    +0.052 A 
ATOM     25  N   UNL     1      21.218   1.918  52.578  0.00  0.00    -0.311 N 
ATOM     26  C   UNL     1      22.276   2.439  51.920  0.00  0.00    +0.077 A 
ATOM     27  C   UNL     1      22.287   3.462  50.951  0.00  0.00    +0.077 A 
ATOM     28  C   UNL     1      26.056   1.708  51.788  0.00  0.00    +0.245 C 
ATOM     29  O   UNL     1      26.503   0.879  52.618  0.00  0.00    -0.270 OA
ATOM     30  N   UNL     1      26.885   2.408  50.873  0.00  0.00    -0.307 N 
ATOM     31  C   UNL     1      26.067   3.348  50.113  0.00  0.00    +0.039 C 
ATOM     32  H   UNL     1      27.856   2.280  50.767  0.00  0.00    +0.000 HD
ENDROOT
BRANCH   2  33
ATOM     33  N   UNL     1      17.223   1.423  49.797  0.00  0.00    -0.295 N 
ATOM     34  C   UNL     1      17.453  -0.021  49.630  0.00  0.00    +0.004 C 
ATOM     35  C   UNL     1      16.122   2.061  49.109  0.00  0.00    +0.248 C 
ATOM     36  O   UNL     1      16.162   3.303  48.883  0.00  0.00    -0.270 OA
BRANCH  35  37
ATOM     37  C   UNL     1      14.919   1.305  48.697  0.00  0.00    +0.055 A 
ATOM     38  C   UNL     1      14.769   0.933  47.350  0.00  0.00    -0.048 A 
ATOM     39  C   UNL     1      13.653   0.199  46.937  0.00  0.00    -0.061 A 
ATOM     40  C   UNL     1      12.681  -0.175  47.866  0.00  0.00    -0.060 A 
ATOM     41  C   UNL     1      12.820   0.185  49.208  0.00  0.00    -0.043 A 
ATOM     42  C   UNL     1      13.933   0.921  49.631  0.00  0.00    +0.053 A 
ATOM     43 CL   UNL     1      14.028   1.389  51.327  0.00  0.00    -0.083 Cl
ENDBRANCH  35  37
ENDBRANCH   2  33
BRANCH   1  45
ATOM     44  C   UNL     1      19.580   2.688  47.660  0.00  0.00    +0.037 C 
ATOM     45  O   UNL     1      19.842   2.452  49.028  0.00  0.00    -0.373 OA
ENDBRANCH   1  45
TORSDOF 3
ENDMDL
