MODEL 1
REMARK VINA RESULT:   -10.919      0.000      0.000
REMARK INTER + INTRA:         -12.635
REMARK INTER:                 -12.514
REMARK INTRA:                  -0.121
REMARK UNBOUND:                -0.121
REMARK  Name = 
REMARK  6 active torsions:
REMARK  status: ('A' for Active; 'I' for Inactive)
REMARK    1  A    between atoms: C_1  and  N_2
REMARK    2  A    between atoms: N_2  and  C_3
REMARK    3  A    between atoms: C_7  and  C_8
REMARK    4  A    between atoms: C_9  and  O_10
REMARK    5  A    between atoms: O_10  and  C_11
REMARK    6  A    between atoms: C_32  and  O_33
REMARK                            x       y       z     vdW  Elec       q    Type
REMARK                         _______ _______ _______ _____ _____    ______ ____
ROOT
ATOM      1  C   UNL     1      19.760   2.970  49.444  0.00  0.00    +0.042 C 
ATOM      2  C   UNL     1      19.791   1.829  50.465  0.00  0.00    +0.011 C 
ATOM      3  C   UNL     1      20.387   2.319  51.801  0.00  0.00    +0.140 C 
ATOM      4  O   UNL     1      20.932   3.625  51.782  0.00  0.00    -0.328 OA
ATOM      5  C   UNL     1      21.760   3.969  50.671  0.00  0.00    +0.174 C 
ATOM      6  C   UNL     1      21.754   5.522  50.735  0.00  0.00    -0.014 C 
ATOM      7  C   UNL     1      21.196   3.490  49.276  0.00  0.00    +0.121 C 
ATOM      8  N   UNL     1      23.142   3.455  50.889  0.00  0.00    -0.307 N 
ATOM      9  C   UNL     1      24.314   3.878  50.322  0.00  0.00    +0.053 A 
ATOM     10  C   UNL     1      24.486   4.803  49.279  0.00  0.00    -0.037 A 
ATOM     11  C   UNL     1      25.777   5.043  48.789  0.00  0.00    -0.060 A 
ATOM     12  C   UNL     1      26.876   4.335  49.300  0.00  0.00    -0.061 A 
ATOM     13  C   UNL     1      26.695   3.370  50.300  0.00  0.00    -0.052 A 
ATOM     14  C   UNL     1      25.406   3.168  50.806  0.00  0.00    +0.008 A 
ATOM     15  C   UNL     1      24.903   2.226  51.683  0.00  0.00    +0.022 A 
ATOM     16  C   UNL     1      25.486   1.166  52.419  0.00  0.00    +0.054 A 
ATOM     17  C   UNL     1      24.672   0.238  53.065  0.00  0.00    +0.021 A 
ATOM     18  C   UNL     1      23.280   0.377  52.988  0.00  0.00    +0.018 A 
ATOM     19  C   UNL     1      22.237  -0.404  53.443  0.00  0.00    +0.008 A 
ATOM     20  C   UNL     1      22.208  -1.610  54.146  0.00  0.00    -0.052 A 
ATOM     21  C   UNL     1      20.954  -2.170  54.442  0.00  0.00    -0.061 A 
ATOM     22  C   UNL     1      19.767  -1.527  54.032  0.00  0.00    -0.060 A 
ATOM     23  C   UNL     1      19.820  -0.318  53.317  0.00  0.00    -0.037 A 
ATOM     24  C   UNL     1      21.078   0.228  53.033  0.00  0.00    +0.052 A 
ATOM     25  N   UNL     1      21.352   1.369  52.352  0.00  0.00    -0.311 N 
ATOM     26  C   UNL     1      22.702   1.452  52.318  0.00  0.00    +0.077 A 
ATOM     27  C   UNL     1      23.516   2.402  51.670  0.00  0.00    +0.078 A 
ATOM     28  C   UNL     1      25.491  -0.809  53.773  0.00  0.00    +0.149 C 
ATOM     29  N   UNL     1      26.870  -0.417  53.484  0.00  0.00    -0.282 N 
ATOM     30  C   UNL     1      26.856   0.777  52.715  0.00  0.00    +0.247 C 
ATOM     31  O   UNL     1      27.894   1.436  52.457  0.00  0.00    -0.270 OA
ATOM     32  H   UNL     1      27.675  -0.903  53.773  0.00  0.00    +0.000 HD
ENDROOT
BRANCH   1  34
ATOM     33  C   UNL     1      18.684   3.657  47.369  0.00  0.00    -0.015 C 
ATOM     34  N   UNL     1      19.216   2.533  48.142  0.00  0.00    -0.314 N 
ATOM     35  H   UNL     1      19.961   2.087  47.606  0.00  0.00    +0.000 HD
ATOM     36  H   UNL     1      18.451   1.883  48.322  0.00  0.00    +0.000 HD
ENDBRANCH   1  34
BRANCH   7  37
ATOM     37  O   UNL     1      22.018   2.447  48.753  0.00  0.00    -0.373 OA
ATOM     38  C   UNL     1      22.333   2.661  47.392  0.00  0.00    +0.037 C 
ENDBRANCH   7  37
BRANCH  28  39
ATOM     39  O   UNL     1      25.256  -0.791  55.158  0.00  0.00    -0.370 OA
ATOM     40  H   UNL     1      24.711  -1.556  55.402  0.00  0.00    +0.000 HD
ENDBRANCH  28  39
TORSDOF 3
ENDMDL
MODEL 2
REMARK VINA RESULT:   -10.679      1.893      5.344
REMARK INTER + INTRA:         -12.360
REMARK INTER:                 -12.206
REMARK INTRA:                  -0.154
REMARK UNBOUND:                -0.121
REMARK  Name = 
REMARK  6 active torsions:
REMARK  status: ('A' for Active; 'I' for Inactive)
REMARK    1  A    between atoms: C_1  and  N_2
REMARK    2  A    between atoms: N_2  and  C_3
REMARK    3  A    between atoms: C_7  and  C_8
REMARK    4  A    between atoms: C_9  and  O_10
REMARK    5  A    between atoms: O_10  and  C_11
REMARK    6  A    between atoms: C_32  and  O_33
REMARK                            x       y       z     vdW  Elec       q    Type
REMARK                         _______ _______ _______ _____ _____    ______ ____
ROOT
ATOM      1  C   UNL     1      23.813   4.783  49.677  0.00  0.00    +0.042 C 
ATOM      2  C   UNL     1      24.867   4.221  50.635  0.00  0.00    +0.011 C 
ATOM      3  C   UNL     1      25.102   2.722  50.359  0.00  0.00    +0.140 C 
ATOM      4  O   UNL     1      24.215   2.128  49.431  0.00  0.00    -0.328 OA
ATOM      5  C   UNL     1      22.826   2.433  49.569  0.00  0.00    +0.174 C 
ATOM      6  C   UNL     1      22.271   2.042  48.172  0.00  0.00    -0.014 C 
ATOM      7  C   UNL     1      22.529   3.958  49.855  0.00  0.00    +0.121 C 
ATOM      8  N   UNL     1      22.219   1.569  50.621  0.00  0.00    -0.307 N 
ATOM      9  C   UNL     1      20.904   1.231  50.800  0.00  0.00    +0.053 A 
ATOM     10  C   UNL     1      19.781   1.739  50.125  0.00  0.00    -0.037 A 
ATOM     11  C   UNL     1      18.504   1.312  50.514  0.00  0.00    -0.060 A 
ATOM     12  C   UNL     1      18.347   0.428  51.593  0.00  0.00    -0.061 A 
ATOM     13  C   UNL     1      19.464  -0.032  52.302  0.00  0.00    -0.052 A 
ATOM     14  C   UNL     1      20.734   0.373  51.878  0.00  0.00    +0.008 A 
ATOM     15  C   UNL     1      21.986   0.192  52.435  0.00  0.00    +0.022 A 
ATOM     16  C   UNL     1      22.456  -0.487  53.585  0.00  0.00    +0.054 A 
ATOM     17  C   UNL     1      23.771  -0.309  54.010  0.00  0.00    +0.021 A 
ATOM     18  C   UNL     1      24.618   0.536  53.280  0.00  0.00    +0.018 A 
ATOM     19  C   UNL     1      25.914   0.964  53.486  0.00  0.00    +0.008 A 
ATOM     20  C   UNL     1      26.836   0.701  54.501  0.00  0.00    -0.052 A 
ATOM     21  C   UNL     1      28.091   1.328  54.429  0.00  0.00    -0.061 A 
ATOM     22  C   UNL     1      28.396   2.200  53.363  0.00  0.00    -0.060 A 
ATOM     23  C   UNL     1      27.449   2.457  52.357  0.00  0.00    -0.037 A 
ATOM     24  C   UNL     1      26.205   1.821  52.442  0.00  0.00    +0.052 A 
ATOM     25  N   UNL     1      25.153   1.939  51.592  0.00  0.00    -0.311 N 
ATOM     26  C   UNL     1      24.181   1.157  52.114  0.00  0.00    +0.077 A 
ATOM     27  C   UNL     1      22.856   0.975  51.669  0.00  0.00    +0.078 A 
ATOM     28  C   UNL     1      24.058  -1.108  55.254  0.00  0.00    +0.149 C 
ATOM     29  N   UNL     1      22.787  -1.776  55.531  0.00  0.00    -0.282 N 
ATOM     30  C   UNL     1      21.857  -1.433  54.513  0.00  0.00    +0.247 C 
ATOM     31  O   UNL     1      20.734  -1.987  54.399  0.00  0.00    -0.270 OA
ATOM     32  H   UNL     1      22.605  -2.365  56.298  0.00  0.00    +0.000 HD
ENDROOT
BRANCH   1  34
ATOM     33  C   UNL     1      24.372   6.744  51.011  0.00  0.00    -0.015 C 
ATOM     34  N   UNL     1      23.543   6.213  49.926  0.00  0.00    -0.314 N 
ATOM     35  H   UNL     1      23.739   6.739  49.075  0.00  0.00    +0.000 HD
ATOM     36  H   UNL     1      22.565   6.307  50.200  0.00  0.00    +0.000 HD
ENDBRANCH   1  34
BRANCH   7  37
ATOM     37  O   UNL     1      22.047   4.117  51.189  0.00  0.00    -0.373 OA
ATOM     38  C   UNL     1      20.868   4.896  51.231  0.00  0.00    +0.037 C 
ENDBRANCH   7  37
BRANCH  28  39
ATOM     39  O   UNL     1      25.071  -2.054  55.032  0.00  0.00    -0.370 OA
ATOM     40  H   UNL     1      24.687  -2.945  55.036  0.00  0.00    +0.000 HD
ENDBRANCH  28  39
TORSDOF 3
ENDMDL
MODEL 3
REMARK VINA RESULT:    -9.823      1.886      5.400
REMARK INTER + INTRA:         -11.380
REMARK INTER:                 -11.321
REMARK INTRA:                  -0.059
REMARK UNBOUND:                -0.121
REMARK  Name = 
REMARK  6 active torsions:
REMARK  status: ('A' for Active; 'I' for Inactive)
REMARK    1  A    between atoms: C_1  and  N_2
REMARK    2  A    between atoms: N_2  and  C_3
REMARK    3  A    between atoms: C_7  and  C_8
REMARK    4  A    between atoms: C_9  and  O_10
REMARK    5  A    between atoms: O_10  and  C_11
REMARK    6  A    between atoms: C_32  and  O_33
REMARK                            x       y       z     vdW  Elec       q    Type
REMARK                         _______ _______ _______ _____ _____    ______ ____
ROOT
ATOM      1  C   UNL     1      24.415   5.246  49.870  0.00  0.00    +0.042 C 
ATOM      2  C   UNL     1      24.996   4.181  50.803  0.00  0.00    +0.011 C 
ATOM      3  C   UNL     1      24.702   2.768  50.257  0.00  0.00    +0.140 C 
ATOM      4  O   UNL     1      23.838   2.716  49.138  0.00  0.00    -0.328 OA
ATOM      5  C   UNL     1      22.662   3.525  49.184  0.00  0.00    +0.174 C 
ATOM      6  C   UNL     1      22.259   3.592  47.685  0.00  0.00    -0.014 C 
ATOM      7  C   UNL     1      22.906   4.984  49.738  0.00  0.00    +0.121 C 
ATOM      8  N   UNL     1      21.600   2.832  49.968  0.00  0.00    -0.307 N 
ATOM      9  C   UNL     1      20.245   3.023  49.932  0.00  0.00    +0.053 A 
ATOM     10  C   UNL     1      19.530   4.027  49.256  0.00  0.00    -0.037 A 
ATOM     11  C   UNL     1      18.138   4.092  49.411  0.00  0.00    -0.060 A 
ATOM     12  C   UNL     1      17.475   3.198  50.265  0.00  0.00    -0.061 A 
ATOM     13  C   UNL     1      18.196   2.236  50.983  0.00  0.00    -0.052 A 
ATOM     14  C   UNL     1      19.579   2.158  50.790  0.00  0.00    +0.008 A 
ATOM     15  C   UNL     1      20.553   1.416  51.431  0.00  0.00    +0.022 A 
ATOM     16  C   UNL     1      20.524   0.449  52.464  0.00  0.00    +0.054 A 
ATOM     17  C   UNL     1      21.713   0.026  53.056  0.00  0.00    +0.021 A 
ATOM     18  C   UNL     1      22.928   0.560  52.608  0.00  0.00    +0.018 A 
ATOM     19  C   UNL     1      24.231   0.403  53.035  0.00  0.00    +0.008 A 
ATOM     20  C   UNL     1      24.793  -0.348  54.069  0.00  0.00    -0.052 A 
ATOM     21  C   UNL     1      26.182  -0.269  54.261  0.00  0.00    -0.061 A 
ATOM     22  C   UNL     1      26.974   0.553  53.432  0.00  0.00    -0.060 A 
ATOM     23  C   UNL     1      26.386   1.308  52.403  0.00  0.00    -0.037 A 
ATOM     24  C   UNL     1      25.001   1.214  52.223  0.00  0.00    +0.052 A 
ATOM     25  N   UNL     1      24.238   1.861  51.305  0.00  0.00    -0.311 N 
ATOM     26  C   UNL     1      22.968   1.465  51.550  0.00  0.00    +0.077 A 
ATOM     27  C   UNL     1      21.773   1.890  50.938  0.00  0.00    +0.078 A 
ATOM     28  C   UNL     1      21.455  -0.990  54.137  0.00  0.00    +0.149 C 
ATOM     29  N   UNL     1      19.999  -1.130  54.134  0.00  0.00    -0.282 N 
ATOM     30  C   UNL     1      19.461  -0.303  53.112  0.00  0.00    +0.247 C 
ATOM     31  O   UNL     1      18.253  -0.342  52.768  0.00  0.00    -0.270 OA
ATOM     32  H   UNL     1      19.479  -1.702  54.742  0.00  0.00    +0.000 HD
ENDROOT
BRANCH   1  34
ATOM     33  C   UNL     1      25.915   7.166  49.866  0.00  0.00    -0.015 C 
ATOM     34  N   UNL     1      24.656   6.614  50.371  0.00  0.00    -0.314 N 
ATOM     35  H   UNL     1      23.889   7.216  50.073  0.00  0.00    +0.000 HD
ATOM     36  H   UNL     1      24.716   6.571  51.389  0.00  0.00    +0.000 HD
ENDBRANCH   1  34
BRANCH   7  37
ATOM     37  O   UNL     1      22.288   5.128  51.016  0.00  0.00    -0.373 OA
ATOM     38  C   UNL     1      21.550   6.329  51.108  0.00  0.00    +0.037 C 
ENDBRANCH   7  37
BRANCH  28  39
ATOM     39  O   UNL     1      22.066  -2.219  53.839  0.00  0.00    -0.370 OA
ATOM     40  H   UNL     1      22.876  -2.312  54.366  0.00  0.00    +0.000 HD
ENDBRANCH  28  39
TORSDOF 3
ENDMDL
MODEL 4
REMARK VINA RESULT:    -9.718      1.951      3.195
REMARK INTER + INTRA:         -11.259
REMARK INTER:                 -11.396
REMARK INTRA:                   0.137
REMARK UNBOUND:                -0.121
REMARK  Name = 
REMARK  6 active torsions:
REMARK  status: ('A' for Active; 'I' for Inactive)
REMARK    1  A    between atoms: C_1  and  N_2
REMARK    2  A    between atoms: N_2  and  C_3
REMARK    3  A    between atoms: C_7  and  C_8
REMARK    4  A    between atoms: C_9  and  O_10
REMARK    5  A    between atoms: O_10  and  C_11
REMARK    6  A    between atoms: C_32  and  O_33
REMARK                            x       y       z     vdW  Elec       q    Type
REMARK                         _______ _______ _______ _____ _____    ______ ____
ROOT
ATOM      1  C   UNL     1      18.502   1.766  50.426  0.00  0.00    +0.042 C 
ATOM      2  C   UNL     1      19.563   1.068  51.281  0.00  0.00    +0.011 C 
ATOM      3  C   UNL     1      20.262   2.085  52.207  0.00  0.00    +0.140 C 
ATOM      4  O   UNL     1      19.930   3.441  51.982  0.00  0.00    -0.328 OA
ATOM      5  C   UNL     1      19.901   3.888  50.626  0.00  0.00    +0.174 C 
ATOM      6  C   UNL     1      19.064   5.192  50.735  0.00  0.00    -0.014 C 
ATOM      7  C   UNL     1      19.197   2.882  49.632  0.00  0.00    +0.121 C 
ATOM      8  N   UNL     1      21.283   4.206  50.166  0.00  0.00    -0.307 N 
ATOM      9  C   UNL     1      21.680   5.017  49.137  0.00  0.00    +0.053 A 
ATOM     10  C   UNL     1      20.877   5.633  48.161  0.00  0.00    -0.037 A 
ATOM     11  C   UNL     1      21.493   6.369  47.140  0.00  0.00    -0.060 A 
ATOM     12  C   UNL     1      22.892   6.451  47.066  0.00  0.00    -0.061 A 
ATOM     13  C   UNL     1      23.692   5.788  48.005  0.00  0.00    -0.052 A 
ATOM     14  C   UNL     1      23.064   5.088  49.041  0.00  0.00    +0.008 A 
ATOM     15  C   UNL     1      23.567   4.253  50.020  0.00  0.00    +0.022 A 
ATOM     16  C   UNL     1      24.873   3.835  50.371  0.00  0.00    +0.054 A 
ATOM     17  C   UNL     1      25.050   2.802  51.289  0.00  0.00    +0.021 A 
ATOM     18  C   UNL     1      23.924   2.198  51.866  0.00  0.00    +0.018 A 
ATOM     19  C   UNL     1      23.776   1.129  52.725  0.00  0.00    +0.008 A 
ATOM     20  C   UNL     1      24.703   0.272  53.323  0.00  0.00    -0.052 A 
ATOM     21  C   UNL     1      24.214  -0.757  54.145  0.00  0.00    -0.061 A 
ATOM     22  C   UNL     1      22.827  -0.914  54.348  0.00  0.00    -0.060 A 
ATOM     23  C   UNL     1      21.911  -0.045  53.729  0.00  0.00    -0.037 A 
ATOM     24  C   UNL     1      22.416   0.976  52.915  0.00  0.00    +0.052 A 
ATOM     25  N   UNL     1      21.712   1.907  52.221  0.00  0.00    -0.311 N 
ATOM     26  C   UNL     1      22.640   2.647  51.572  0.00  0.00    +0.077 A 
ATOM     27  C   UNL     1      22.451   3.698  50.653  0.00  0.00    +0.078 A 
ATOM     28  C   UNL     1      26.511   2.506  51.507  0.00  0.00    +0.149 C 
ATOM     29  N   UNL     1      27.186   3.459  50.628  0.00  0.00    -0.282 N 
ATOM     30  C   UNL     1      26.208   4.269  49.990  0.00  0.00    +0.247 C 
ATOM     31  O   UNL     1      26.500   5.281  49.304  0.00  0.00    -0.270 OA
ATOM     32  H   UNL     1      28.159   3.527  50.498  0.00  0.00    +0.000 HD
ENDROOT
BRANCH   1  34
ATOM     33  C   UNL     1      17.066  -0.194  50.232  0.00  0.00    -0.015 C 
ATOM     34  N   UNL     1      17.825   0.827  49.508  0.00  0.00    -0.314 N 
ATOM     35  H   UNL     1      17.186   1.352  48.911  0.00  0.00    +0.000 HD
ATOM     36  H   UNL     1      18.541   0.356  48.955  0.00  0.00    +0.000 HD
ENDBRANCH   1  34
BRANCH   7  37
ATOM     37  O   UNL     1      20.166   2.307  48.756  0.00  0.00    -0.373 OA
ATOM     38  C   UNL     1      19.912   2.637  47.406  0.00  0.00    +0.037 C 
ENDBRANCH   7  37
BRANCH  28  39
ATOM     39  O   UNL     1      26.882   2.723  52.843  0.00  0.00    -0.370 OA
ATOM     40  H   UNL     1      27.562   2.079  53.097  0.00  0.00    +0.000 HD
ENDBRANCH  28  39
TORSDOF 3
ENDMDL
MODEL 5
REMARK VINA RESULT:    -9.614      2.245      5.792
REMARK INTER + INTRA:         -11.140
REMARK INTER:                 -11.016
REMARK INTRA:                  -0.124
REMARK UNBOUND:                -0.121
REMARK  Name = 
REMARK  6 active torsions:
REMARK  status: ('A' for Active; 'I' for Inactive)
REMARK    1  A    between atoms: C_1  and  N_2
REMARK    2  A    between atoms: N_2  and  C_3
REMARK    3  A    between atoms: C_7  and  C_8
REMARK    4  A    between atoms: C_9  and  O_10
REMARK    5  A    between atoms: O_10  and  C_11
REMARK    6  A    between atoms: C_32  and  O_33
REMARK                            x       y       z     vdW  Elec       q    Type
REMARK                         _______ _______ _______ _____ _____    ______ ____
ROOT
ATOM      1  C   UNL     1      23.945   3.923  50.830  0.00  0.00    +0.042 C 
ATOM      2  C   UNL     1      23.890   2.811  51.882  0.00  0.00    +0.011 C 
ATOM      3  C   UNL     1      23.462   1.478  51.235  0.00  0.00    +0.140 C 
ATOM      4  O   UNL     1      23.048   1.563  49.884  0.00  0.00    -0.328 OA
ATOM      5  C   UNL     1      22.165   2.631  49.539  0.00  0.00    +0.174 C 
ATOM      6  C   UNL     1      22.328   2.696  47.996  0.00  0.00    -0.014 C 
ATOM      7  C   UNL     1      22.557   4.021  50.178  0.00  0.00    +0.121 C 
ATOM      8  N   UNL     1      20.763   2.264  49.889  0.00  0.00    -0.307 N 
ATOM      9  C   UNL     1      19.593   2.771  49.390  0.00  0.00    +0.053 A 
ATOM     10  C   UNL     1      19.423   3.871  48.532  0.00  0.00    -0.037 A 
ATOM     11  C   UNL     1      18.125   4.277  48.197  0.00  0.00    -0.060 A 
ATOM     12  C   UNL     1      17.010   3.624  48.746  0.00  0.00    -0.061 A 
ATOM     13  C   UNL     1      17.182   2.565  49.647  0.00  0.00    -0.052 A 
ATOM     14  C   UNL     1      18.483   2.146  49.943  0.00  0.00    +0.008 A 
ATOM     15  C   UNL     1      18.965   1.236  50.865  0.00  0.00    +0.022 A 
ATOM     16  C   UNL     1      18.347   0.371  51.800  0.00  0.00    +0.054 A 
ATOM     17  C   UNL     1      19.119  -0.285  52.757  0.00  0.00    +0.021 A 
ATOM     18  C   UNL     1      20.506  -0.087  52.771  0.00  0.00    +0.018 A 
ATOM     19  C   UNL     1      21.503  -0.524  53.620  0.00  0.00    +0.008 A 
ATOM     20  C   UNL     1      21.474  -1.320  54.767  0.00  0.00    -0.052 A 
ATOM     21  C   UNL     1      22.688  -1.563  55.430  0.00  0.00    -0.061 A 
ATOM     22  C   UNL     1      23.892  -1.009  54.947  0.00  0.00    -0.060 A 
ATOM     23  C   UNL     1      23.897  -0.203  53.795  0.00  0.00    -0.037 A 
ATOM     24  C   UNL     1      22.678   0.026  53.144  0.00  0.00    +0.052 A 
ATOM     25  N   UNL     1      22.459   0.777  52.035  0.00  0.00    -0.311 N 
ATOM     26  C   UNL     1      21.127   0.712  51.815  0.00  0.00    +0.077 A 
ATOM     27  C   UNL     1      20.356   1.371  50.836  0.00  0.00    +0.078 A 
ATOM     28  C   UNL     1      18.266  -1.139  53.658  0.00  0.00    +0.149 C 
ATOM     29  N   UNL     1      16.912  -0.926  53.147  0.00  0.00    -0.282 N 
ATOM     30  C   UNL     1      16.976  -0.062  52.021  0.00  0.00    +0.247 C 
ATOM     31  O   UNL     1      15.989   0.168  51.279  0.00  0.00    -0.270 OA
ATOM     32  H   UNL     1      16.091  -1.317  53.523  0.00  0.00    +0.000 HD
ENDROOT
BRANCH   1  34
ATOM     33  C   UNL     1      24.855   6.143  50.407  0.00  0.00    -0.015 C 
ATOM     34  N   UNL     1      24.329   5.222  51.417  0.00  0.00    -0.314 N 
ATOM     35  H   UNL     1      23.509   5.644  51.852  0.00  0.00    +0.000 HD
ATOM     36  H   UNL     1      25.064   5.053  52.104  0.00  0.00    +0.000 HD
ENDBRANCH   1  34
BRANCH   7  37
ATOM     37  O   UNL     1      21.595   4.390  51.166  0.00  0.00    -0.373 OA
ATOM     38  C   UNL     1      21.178   5.731  51.015  0.00  0.00    +0.037 C 
ENDBRANCH   7  37
BRANCH  28  39
ATOM     39  O   UNL     1      18.619  -2.494  53.561  0.00  0.00    -0.370 OA
ATOM     40  H   UNL     1      19.519  -2.569  53.206  0.00  0.00    +0.000 HD
ENDBRANCH  28  39
TORSDOF 3
ENDMDL
MODEL 6
REMARK VINA RESULT:    -9.516      1.630      2.481
REMARK INTER + INTRA:         -11.027
REMARK INTER:                 -10.902
REMARK INTRA:                  -0.125
REMARK UNBOUND:                -0.121
REMARK  Name = 
REMARK  6 active torsions:
REMARK  status: ('A' for Active; 'I' for Inactive)
REMARK    1  A    between atoms: C_1  and  N_2
REMARK    2  A    between atoms: N_2  and  C_3
REMARK    3  A    between atoms: C_7  and  C_8
REMARK    4  A    between atoms: C_9  and  O_10
REMARK    5  A    between atoms: O_10  and  C_11
REMARK    6  A    between atoms: C_32  and  O_33
REMARK                            x       y       z     vdW  Elec       q    Type
REMARK                         _______ _______ _______ _____ _____    ______ ____
ROOT
ATOM      1  C   UNL     1      19.900   4.446  48.696  0.00  0.00    +0.042 C 
ATOM      2  C   UNL     1      19.134   3.366  49.466  0.00  0.00    +0.011 C 
ATOM      3  C   UNL     1      19.350   3.531  50.984  0.00  0.00    +0.140 C 
ATOM      4  O   UNL     1      20.312   4.498  51.360  0.00  0.00    -0.328 OA
ATOM      5  C   UNL     1      21.547   4.503  50.643  0.00  0.00    +0.174 C 
ATOM      6  C   UNL     1      22.100   5.918  50.964  0.00  0.00    -0.014 C 
ATOM      7  C   UNL     1      21.383   4.335  49.080  0.00  0.00    +0.121 C 
ATOM      8  N   UNL     1      22.458   3.461  51.195  0.00  0.00    -0.307 N 
ATOM      9  C   UNL     1      23.822   3.380  51.107  0.00  0.00    +0.053 A 
ATOM     10  C   UNL     1      24.689   4.181  50.344  0.00  0.00    -0.037 A 
ATOM     11  C   UNL     1      26.059   3.883  50.335  0.00  0.00    -0.060 A 
ATOM     12  C   UNL     1      26.550   2.773  51.038  0.00  0.00    -0.061 A 
ATOM     13  C   UNL     1      25.677   1.941  51.751  0.00  0.00    -0.052 A 
ATOM     14  C   UNL     1      24.318   2.272  51.782  0.00  0.00    +0.008 A 
ATOM     15  C   UNL     1      23.221   1.596  52.282  0.00  0.00    +0.022 A 
ATOM     16  C   UNL     1      23.060   0.371  52.973  0.00  0.00    +0.054 A 
ATOM     17  C   UNL     1      21.785  -0.159  53.162  0.00  0.00    +0.021 A 
ATOM     18  C   UNL     1      20.673   0.541  52.674  0.00  0.00    +0.018 A 
ATOM     19  C   UNL     1      19.326   0.245  52.638  0.00  0.00    +0.008 A 
ATOM     20  C   UNL     1      18.598  -0.862  53.080  0.00  0.00    -0.052 A 
ATOM     21  C   UNL     1      17.210  -0.865  52.865  0.00  0.00    -0.061 A 
ATOM     22  C   UNL     1      16.582   0.219  52.217  0.00  0.00    -0.060 A 
ATOM     23  C   UNL     1      17.336   1.319  51.772  0.00  0.00    -0.037 A 
ATOM     24  C   UNL     1      18.718   1.308  51.997  0.00  0.00    +0.052 A 
ATOM     25  N   UNL     1      19.623   2.254  51.641  0.00  0.00    -0.311 N 
ATOM     26  C   UNL     1      20.821   1.776  52.049  0.00  0.00    +0.077 A 
ATOM     27  C   UNL     1      22.105   2.326  51.862  0.00  0.00    +0.078 A 
ATOM     28  C   UNL     1      21.840  -1.469  53.903  0.00  0.00    +0.149 C 
ATOM     29  N   UNL     1      23.270  -1.669  54.134  0.00  0.00    -0.282 N 
ATOM     30  C   UNL     1      23.981  -0.554  53.615  0.00  0.00    +0.247 C 
ATOM     31  O   UNL     1      25.208  -0.373  53.814  0.00  0.00    -0.270 OA
ATOM     32  H   UNL     1      23.674  -2.451  54.576  0.00  0.00    +0.000 HD
ENDROOT
BRANCH   1  34
ATOM     33  C   UNL     1      18.672   3.361  46.893  0.00  0.00    -0.015 C 
ATOM     34  N   UNL     1      19.736   4.307  47.235  0.00  0.00    -0.314 N 
ATOM     35  H   UNL     1      19.506   5.219  46.840  0.00  0.00    +0.000 HD
ATOM     36  H   UNL     1      20.611   3.950  46.852  0.00  0.00    +0.000 HD
ENDBRANCH   1  34
BRANCH   7  37
ATOM     37  O   UNL     1      21.882   3.061  48.674  0.00  0.00    -0.373 OA
ATOM     38  C   UNL     1      22.656   3.154  47.495  0.00  0.00    +0.037 C 
ENDBRANCH   7  37
BRANCH  28  39
ATOM     39  O   UNL     1      21.152  -1.394  55.125  0.00  0.00    -0.370 OA
ATOM     40  H   UNL     1      21.343  -2.186  55.652  0.00  0.00    +0.000 HD
ENDBRANCH  28  39
TORSDOF 3
ENDMDL
MODEL 7
REMARK VINA RESULT:    -9.429      2.419      4.762
REMARK INTER + INTRA:         -10.928
REMARK INTER:                 -10.803
REMARK INTRA:                  -0.125
REMARK UNBOUND:                -0.121
REMARK  Name = 
REMARK  6 active torsions:
REMARK  status: ('A' for Active; 'I' for Inactive)
REMARK    1  A    between atoms: C_1  and  N_2
REMARK    2  A    between atoms: N_2  and  C_3
REMARK    3  A    between atoms: C_7  and  C_8
REMARK    4  A    between atoms: C_9  and  O_10
REMARK    5  A    between atoms: O_10  and  C_11
REMARK    6  A    between atoms: C_32  and  O_33
REMARK                            x       y       z     vdW  Elec       q    Type
REMARK                         _______ _______ _______ _____ _____    ______ ____
ROOT
ATOM      1  C   UNL     1      21.235   4.800  48.931  0.00  0.00    +0.042 C 
ATOM      2  C   UNL     1      19.890   4.087  49.100  0.00  0.00    +0.011 C 
ATOM      3  C   UNL     1      19.439   4.133  50.574  0.00  0.00    +0.140 C 
ATOM      4  O   UNL     1      20.390   4.647  51.486  0.00  0.00    -0.328 OA
ATOM      5  C   UNL     1      21.735   4.185  51.355  0.00  0.00    +0.174 C 
ATOM      6  C   UNL     1      22.525   5.271  52.135  0.00  0.00    -0.014 C 
ATOM      7  C   UNL     1      22.249   4.118  49.863  0.00  0.00    +0.121 C 
ATOM      8  N   UNL     1      21.885   2.863  52.027  0.00  0.00    -0.307 N 
ATOM      9  C   UNL     1      23.024   2.263  52.494  0.00  0.00    +0.053 A 
ATOM     10  C   UNL     1      24.355   2.679  52.320  0.00  0.00    -0.037 A 
ATOM     11  C   UNL     1      25.389   1.875  52.819  0.00  0.00    -0.060 A 
ATOM     12  C   UNL     1      25.101   0.650  53.441  0.00  0.00    -0.061 A 
ATOM     13  C   UNL     1      23.777   0.209  53.562  0.00  0.00    -0.052 A 
ATOM     14  C   UNL     1      22.753   1.039  53.093  0.00  0.00    +0.008 A 
ATOM     15  C   UNL     1      21.393   0.832  52.962  0.00  0.00    +0.022 A 
ATOM     16  C   UNL     1      20.533  -0.246  53.282  0.00  0.00    +0.054 A 
ATOM     17  C   UNL     1      19.216  -0.245  52.827  0.00  0.00    +0.021 A 
ATOM     18  C   UNL     1      18.756   0.838  52.065  0.00  0.00    +0.018 A 
ATOM     19  C   UNL     1      17.560   1.087  51.424  0.00  0.00    +0.008 A 
ATOM     20  C   UNL     1      16.385   0.340  51.311  0.00  0.00    -0.052 A 
ATOM     21  C   UNL     1      15.334   0.877  50.549  0.00  0.00    -0.061 A 
ATOM     22  C   UNL     1      15.476   2.129  49.915  0.00  0.00    -0.060 A 
ATOM     23  C   UNL     1      16.671   2.860  50.035  0.00  0.00    -0.037 A 
ATOM     24  C   UNL     1      17.707   2.311  50.801  0.00  0.00    +0.052 A 
ATOM     25  N   UNL     1      18.935   2.840  51.034  0.00  0.00    -0.311 N 
ATOM     26  C   UNL     1      19.578   1.930  51.800  0.00  0.00    +0.077 A 
ATOM     27  C   UNL     1      20.908   1.943  52.265  0.00  0.00    +0.078 A 
ATOM     28  C   UNL     1      18.484  -1.485  53.266  0.00  0.00    +0.149 C 
ATOM     29  N   UNL     1      19.492  -2.227  54.022  0.00  0.00    -0.282 N 
ATOM     30  C   UNL     1      20.690  -1.465  54.060  0.00  0.00    +0.247 C 
ATOM     31  O   UNL     1      21.675  -1.775  54.777  0.00  0.00    -0.270 OA
ATOM     32  H   UNL     1      19.361  -3.110  54.436  0.00  0.00    +0.000 HD
ENDROOT
BRANCH   1  34
ATOM     33  C   UNL     1      22.674   5.826  47.253  0.00  0.00    -0.015 C 
ATOM     34  N   UNL     1      21.713   4.757  47.534  0.00  0.00    -0.314 N 
ATOM     35  H   UNL     1      22.162   3.857  47.366  0.00  0.00    +0.000 HD
ATOM     36  H   UNL     1      20.908   4.887  46.921  0.00  0.00    +0.000 HD
ENDBRANCH   1  34
BRANCH   7  37
ATOM     37  O   UNL     1      22.413   2.756  49.467  0.00  0.00    -0.373 OA
ATOM     38  C   UNL     1      23.656   2.543  48.828  0.00  0.00    +0.037 C 
ENDBRANCH   7  37
BRANCH  28  39
ATOM     39  O   UNL     1      17.389  -1.169  54.086  0.00  0.00    -0.370 OA
ATOM     40  H   UNL     1      17.360  -0.210  54.229  0.00  0.00    +0.000 HD
ENDBRANCH  28  39
TORSDOF 3
ENDMDL
MODEL 8
REMARK VINA RESULT:    -8.446      1.944      5.648
REMARK INTER + INTRA:          -9.802
REMARK INTER:                  -9.713
REMARK INTRA:                  -0.089
REMARK UNBOUND:                -0.121
REMARK  Name = 
REMARK  6 active torsions:
REMARK  status: ('A' for Active; 'I' for Inactive)
REMARK    1  A    between atoms: C_1  and  N_2
REMARK    2  A    between atoms: N_2  and  C_3
REMARK    3  A    between atoms: C_7  and  C_8
REMARK    4  A    between atoms: C_9  and  O_10
REMARK    5  A    between atoms: O_10  and  C_11
REMARK    6  A    between atoms: C_32  and  O_33
REMARK                            x       y       z     vdW  Elec       q    Type
REMARK                         _______ _______ _______ _____ _____    ______ ____
ROOT
ATOM      1  C   UNL     1      19.531   4.852  48.921  0.00  0.00    +0.042 C 
ATOM      2  C   UNL     1      21.035   4.755  49.191  0.00  0.00    +0.011 C 
ATOM      3  C   UNL     1      21.574   3.379  48.746  0.00  0.00    +0.140 C 
ATOM      4  O   UNL     1      20.592   2.441  48.350  0.00  0.00    -0.328 OA
ATOM      5  C   UNL     1      19.437   2.317  49.181  0.00  0.00    +0.174 C 
ATOM      6  C   UNL     1      18.429   1.619  48.226  0.00  0.00    -0.014 C 
ATOM      7  C   UNL     1      18.844   3.698  49.667  0.00  0.00    +0.121 C 
ATOM      8  N   UNL     1      19.738   1.432  50.341  0.00  0.00    -0.307 N 
ATOM      9  C   UNL     1      18.869   0.728  51.132  0.00  0.00    +0.053 A 
ATOM     10  C   UNL     1      17.465   0.786  51.139  0.00  0.00    -0.037 A 
ATOM     11  C   UNL     1      16.758   0.033  52.086  0.00  0.00    -0.060 A 
ATOM     12  C   UNL     1      17.444  -0.729  53.045  0.00  0.00    -0.061 A 
ATOM     13  C   UNL     1      18.844  -0.739  53.074  0.00  0.00    -0.052 A 
ATOM     14  C   UNL     1      19.536  -0.014  52.098  0.00  0.00    +0.008 A 
ATOM     15  C   UNL     1      20.881   0.264  51.945  0.00  0.00    +0.022 A 
ATOM     16  C   UNL     1      22.044  -0.104  52.664  0.00  0.00    +0.054 A 
ATOM     17  C   UNL     1      23.260   0.518  52.387  0.00  0.00    +0.021 A 
ATOM     18  C   UNL     1      23.316   1.494  51.384  0.00  0.00    +0.018 A 
ATOM     19  C   UNL     1      24.329   2.321  50.941  0.00  0.00    +0.008 A 
ATOM     20  C   UNL     1      25.658   2.471  51.344  0.00  0.00    -0.052 A 
ATOM     21  C   UNL     1      26.437   3.442  50.693  0.00  0.00    -0.061 A 
ATOM     22  C   UNL     1      25.882   4.239  49.670  0.00  0.00    -0.060 A 
ATOM     23  C   UNL     1      24.539   4.077  49.288  0.00  0.00    -0.037 A 
ATOM     24  C   UNL     1      23.777   3.103  49.945  0.00  0.00    +0.052 A 
ATOM     25  N   UNL     1      22.471   2.794  49.740  0.00  0.00    -0.311 N 
ATOM     26  C   UNL     1      22.191   1.815  50.630  0.00  0.00    +0.077 A 
ATOM     27  C   UNL     1      20.959   1.185  50.895  0.00  0.00    +0.078 A 
ATOM     28  C   UNL     1      24.358  -0.008  53.273  0.00  0.00    +0.149 C 
ATOM     29  N   UNL     1      23.679  -1.000  54.106  0.00  0.00    -0.282 N 
ATOM     30  C   UNL     1      22.317  -1.077  53.709  0.00  0.00    +0.247 C 
ATOM     31  O   UNL     1      21.530  -1.959  54.138  0.00  0.00    -0.270 OA
ATOM     32  H   UNL     1      24.098  -1.526  54.825  0.00  0.00    +0.000 HD
ENDROOT
BRANCH   1  34
ATOM     33  C   UNL     1      20.021   7.148  49.573  0.00  0.00    -0.015 C 
ATOM     34  N   UNL     1      18.973   6.149  49.356  0.00  0.00    -0.314 N 
ATOM     35  H   UNL     1      18.335   6.491  48.638  0.00  0.00    +0.000 HD
ATOM     36  H   UNL     1      18.488   6.003  50.241  0.00  0.00    +0.000 HD
ENDBRANCH   1  34
BRANCH   7  37
ATOM     37  O   UNL     1      19.055   3.849  51.070  0.00  0.00    -0.373 OA
ATOM     38  C   UNL     1      17.845   4.099  51.757  0.00  0.00    +0.037 C 
ENDBRANCH   7  37
BRANCH  28  39
ATOM     39  O   UNL     1      25.376  -0.615  52.519  0.00  0.00    -0.370 OA
ATOM     40  H   UNL     1      26.101  -0.876  53.108  0.00  0.00    +0.000 HD
ENDBRANCH  28  39
TORSDOF 3
ENDMDL
