MODEL 1
REMARK VINA RESULT:    -7.818      0.000      0.000
REMARK INTER + INTRA:         -12.322
REMARK INTER:                 -11.475
REMARK INTRA:                  -0.847
REMARK UNBOUND:                -0.847
REMARK  Name = 
REMARK  9 active torsions:
REMARK  status: ('A' for Active; 'I' for Inactive)
REMARK    1  A    between atoms: O_1  and  C_2
REMARK    2  A    between atoms: C_2  and  C_3
REMARK    3  A    between atoms: C_3  and  N_4
REMARK    4  A    between atoms: N_4  and  C_5
REMARK    5  A    between atoms: N_4  and  C_8
REMARK    6  A    between atoms: C_5  and  C_6
REMARK    7  A    between atoms: C_6  and  O_7
REMARK    8  A    between atoms: C_14  and  N_15
REMARK    9  A    between atoms: N_15  and  C_16
REMARK                            x       y       z     vdW  Elec       q    Type
REMARK                         _______ _______ _______ _____ _____    ______ ____
ROOT
ATOM      1  C   UNL     1      26.150   0.016  53.606  0.00  0.00    +0.123 A 
ATOM      2  C   UNL     1      25.172  -0.737  54.277  0.00  0.00    +0.004 A 
ATOM      3  C   UNL     1      23.822  -0.428  54.101  0.00  0.00    +0.081 A 
ATOM      4  N   UNL     1      22.871  -1.162  54.734  0.00  0.00    -0.235 NA
ATOM      5  C   UNL     1      21.553  -0.885  54.574  0.00  0.00    +0.119 A 
ATOM      6  N   UNL     1      21.165   0.144  53.778  0.00  0.00    -0.220 NA
ATOM      7  C   UNL     1      22.069   0.915  53.113  0.00  0.00    +0.135 A 
ATOM      8  C   UNL     1      23.444   0.639  53.261  0.00  0.00    +0.059 A 
ATOM      9  C   UNL     1      24.451   1.353  52.592  0.00  0.00    +0.042 A 
ATOM     10  N   UNL     1      25.758   1.026  52.781  0.00  0.00    -0.239 NA
ENDROOT
BRANCH   7  11
ATOM     11  N   UNL     1      21.603   2.024  52.324  0.00  0.00    -0.299 N 
ATOM     12  H   UNL     1      21.200   2.792  52.791  0.00  0.00    +0.000 HD
BRANCH  11  13
ATOM     13  C   UNL     1      21.696   2.069  50.890  0.00  0.00    +0.033 A 
ATOM     14  C   UNL     1      21.416   0.937  50.102  0.00  0.00    -0.040 A 
ATOM     15  C   UNL     1      21.535   0.999  48.710  0.00  0.00    -0.059 A 
ATOM     16  C   UNL     1      21.943   2.184  48.093  0.00  0.00    -0.048 A 
ATOM     17  C   UNL     1      22.242   3.309  48.868  0.00  0.00    +0.020 A 
ATOM     18 BR   UNL     1      22.813   4.924  48.025  0.00  0.00    -0.050 Br
ATOM     19  C   UNL     1      22.125   3.249  50.261  0.00  0.00    -0.027 A 
ENDBRANCH  11  13
ENDBRANCH   7  11
BRANCH   1  20
ATOM     20  N   UNL     1      27.557  -0.284  53.750  0.00  0.00    -0.311 N 
BRANCH  20  21
ATOM     21  C   UNL     1      28.379   0.408  54.757  0.00  0.00    +0.037 C 
BRANCH  21  22
ATOM     22  C   UNL     1      29.042   1.661  54.176  0.00  0.00    +0.060 C 
BRANCH  22  23
ATOM     23  O   UNL     1      28.159   2.748  54.196  0.00  0.00    -0.393 OA
ATOM     24  H   UNL     1      27.353   2.520  53.705  0.00  0.00    +0.000 HD
ENDBRANCH  22  23
ENDBRANCH  21  22
ENDBRANCH  20  21
BRANCH  20  25
ATOM     25  C   UNL     1      28.222  -1.152  52.763  0.00  0.00    +0.037 C 
BRANCH  25  26
ATOM     26  C   UNL     1      29.218  -2.095  53.440  0.00  0.00    +0.060 C 
BRANCH  26  27
ATOM     27  O   UNL     1      28.705  -3.398  53.481  0.00  0.00    -0.393 OA
ATOM     28  H   UNL     1      27.738  -3.366  53.432  0.00  0.00    +0.000 HD
ENDBRANCH  26  27
ENDBRANCH  25  26
ENDBRANCH  20  25
ENDBRANCH   1  20
TORSDOF 9
ENDMDL
MODEL 2
REMARK VINA RESULT:    -7.685      3.667      4.625
REMARK INTER + INTRA:         -12.127
REMARK INTER:                 -11.282
REMARK INTRA:                  -0.845
REMARK UNBOUND:                -0.847
REMARK  Name = 
REMARK  9 active torsions:
REMARK  status: ('A' for Active; 'I' for Inactive)
REMARK    1  A    between atoms: O_1  and  C_2
REMARK    2  A    between atoms: C_2  and  C_3
REMARK    3  A    between atoms: C_3  and  N_4
REMARK    4  A    between atoms: N_4  and  C_5
REMARK    5  A    between atoms: N_4  and  C_8
REMARK    6  A    between atoms: C_5  and  C_6
REMARK    7  A    between atoms: C_6  and  O_7
REMARK    8  A    between atoms: C_14  and  N_15
REMARK    9  A    between atoms: N_15  and  C_16
REMARK                            x       y       z     vdW  Elec       q    Type
REMARK                         _______ _______ _______ _____ _____    ______ ____
ROOT
ATOM      1  C   UNL     1      26.698   0.929  52.897  0.00  0.00    +0.123 A 
ATOM      2  C   UNL     1      25.711   1.738  53.484  0.00  0.00    +0.004 A 
ATOM      3  C   UNL     1      25.076   2.718  52.717  0.00  0.00    +0.081 A 
ATOM      4  N   UNL     1      24.110   3.492  53.274  0.00  0.00    -0.235 NA
ATOM      5  C   UNL     1      23.474   4.446  52.548  0.00  0.00    +0.119 A 
ATOM      6  N   UNL     1      23.805   4.644  51.247  0.00  0.00    -0.220 NA
ATOM      7  C   UNL     1      24.762   3.898  50.629  0.00  0.00    +0.135 A 
ATOM      8  C   UNL     1      25.430   2.897  51.365  0.00  0.00    +0.059 A 
ATOM      9  C   UNL     1      26.407   2.054  50.811  0.00  0.00    +0.042 A 
ATOM     10  N   UNL     1      27.005   1.106  51.582  0.00  0.00    -0.239 NA
ENDROOT
BRANCH   7  11
ATOM     11  N   UNL     1      25.107   4.187  49.263  0.00  0.00    -0.299 N 
ATOM     12  H   UNL     1      24.703   3.636  48.553  0.00  0.00    +0.000 HD
BRANCH  11  13
ATOM     13  C   UNL     1      26.012   5.236  48.880  0.00  0.00    +0.033 A 
ATOM     14  C   UNL     1      25.555   6.545  48.638  0.00  0.00    -0.040 A 
ATOM     15  C   UNL     1      26.450   7.545  48.245  0.00  0.00    -0.059 A 
ATOM     16  C   UNL     1      27.805   7.246  48.078  0.00  0.00    -0.048 A 
ATOM     17  C   UNL     1      28.266   5.945  48.297  0.00  0.00    +0.020 A 
ATOM     18 BR   UNL     1      30.116   5.534  48.057  0.00  0.00    -0.050 Br
ATOM     19  C   UNL     1      27.372   4.943  48.691  0.00  0.00    -0.027 A 
ENDBRANCH  11  13
ENDBRANCH   7  11
BRANCH   1  20
ATOM     20  N   UNL     1      27.367  -0.107  53.653  0.00  0.00    -0.311 N 
BRANCH  20  21
ATOM     21  C   UNL     1      28.285   0.233  54.753  0.00  0.00    +0.037 C 
BRANCH  21  22
ATOM     22  C   UNL     1      29.384   1.193  54.289  0.00  0.00    +0.060 C 
BRANCH  22  23
ATOM     23  O   UNL     1      29.462   2.308  55.134  0.00  0.00    -0.393 OA
ATOM     24  H   UNL     1      29.170   2.060  56.025  0.00  0.00    +0.000 HD
ENDBRANCH  22  23
ENDBRANCH  21  22
ENDBRANCH  20  21
BRANCH  20  25
ATOM     25  C   UNL     1      27.277  -1.508  53.207  0.00  0.00    +0.037 C 
BRANCH  25  26
ATOM     26  C   UNL     1      28.667  -2.126  53.048  0.00  0.00    +0.060 C 
BRANCH  26  27
ATOM     27  O   UNL     1      28.637  -3.486  53.383  0.00  0.00    -0.393 OA
ATOM     28  H   UNL     1      27.943  -3.929  52.870  0.00  0.00    +0.000 HD
ENDBRANCH  26  27
ENDBRANCH  25  26
ENDBRANCH  20  25
ENDBRANCH   1  20
TORSDOF 9
ENDMDL
MODEL 3
REMARK VINA RESULT:    -7.521      1.448      1.968
REMARK INTER + INTRA:         -11.886
REMARK INTER:                 -11.174
REMARK INTRA:                  -0.712
REMARK UNBOUND:                -0.847
REMARK  Name = 
REMARK  9 active torsions:
REMARK  status: ('A' for Active; 'I' for Inactive)
REMARK    1  A    between atoms: O_1  and  C_2
REMARK    2  A    between atoms: C_2  and  C_3
REMARK    3  A    between atoms: C_3  and  N_4
REMARK    4  A    between atoms: N_4  and  C_5
REMARK    5  A    between atoms: N_4  and  C_8
REMARK    6  A    between atoms: C_5  and  C_6
REMARK    7  A    between atoms: C_6  and  O_7
REMARK    8  A    between atoms: C_14  and  N_15
REMARK    9  A    between atoms: N_15  and  C_16
REMARK                            x       y       z     vdW  Elec       q    Type
REMARK                         _______ _______ _______ _____ _____    ______ ____
ROOT
ATOM      1  C   UNL     1      26.664  -0.003  53.457  0.00  0.00    +0.123 A 
ATOM      2  C   UNL     1      25.550  -0.542  54.121  0.00  0.00    +0.004 A 
ATOM      3  C   UNL     1      24.265  -0.272  53.645  0.00  0.00    +0.081 A 
ATOM      4  N   UNL     1      23.184  -0.803  54.273  0.00  0.00    -0.235 NA
ATOM      5  C   UNL     1      21.927  -0.560  53.825  0.00  0.00    +0.119 A 
ATOM      6  N   UNL     1      21.731   0.229  52.739  0.00  0.00    -0.220 NA
ATOM      7  C   UNL     1      22.772   0.788  52.063  0.00  0.00    +0.135 A 
ATOM      8  C   UNL     1      24.088   0.544  52.508  0.00  0.00    +0.059 A 
ATOM      9  C   UNL     1      25.229   1.045  51.861  0.00  0.00    +0.042 A 
ATOM     10  N   UNL     1      26.467   0.762  52.346  0.00  0.00    -0.239 NA
ENDROOT
BRANCH   7  11
ATOM     11  N   UNL     1      22.504   1.658  50.950  0.00  0.00    -0.299 N 
ATOM     12  H   UNL     1      22.171   1.257  50.114  0.00  0.00    +0.000 HD
BRANCH  11  13
ATOM     13  C   UNL     1      22.695   3.083  50.994  0.00  0.00    +0.033 A 
ATOM     14  C   UNL     1      21.919   3.900  51.837  0.00  0.00    -0.040 A 
ATOM     15  C   UNL     1      22.109   5.285  51.847  0.00  0.00    -0.059 A 
ATOM     16  C   UNL     1      23.063   5.868  51.008  0.00  0.00    -0.048 A 
ATOM     17  C   UNL     1      23.825   5.068  50.153  0.00  0.00    +0.020 A 
ATOM     18 BR   UNL     1      25.120   5.866  48.999  0.00  0.00    -0.050 Br
ATOM     19  C   UNL     1      23.637   3.681  50.141  0.00  0.00    -0.027 A 
ENDBRANCH  11  13
ENDBRANCH   7  11
BRANCH   1  20
ATOM     20  N   UNL     1      28.010  -0.272  53.909  0.00  0.00    -0.311 N 
BRANCH  20  21
ATOM     21  C   UNL     1      28.618   0.520  54.991  0.00  0.00    +0.037 C 
BRANCH  21  22
ATOM     22  C   UNL     1      29.265   1.800  54.453  0.00  0.00    +0.060 C 
BRANCH  22  23
ATOM     23  O   UNL     1      28.297   2.782  54.202  0.00  0.00    -0.393 OA
ATOM     24  H   UNL     1      28.674   3.659  54.374  0.00  0.00    +0.000 HD
ENDBRANCH  22  23
ENDBRANCH  21  22
ENDBRANCH  20  21
BRANCH  20  25
ATOM     25  C   UNL     1      28.853  -1.223  53.164  0.00  0.00    +0.037 C 
BRANCH  25  26
ATOM     26  C   UNL     1      28.084  -2.507  52.844  0.00  0.00    +0.060 C 
BRANCH  26  27
ATOM     27  O   UNL     1      28.690  -3.606  53.466  0.00  0.00    -0.393 OA
ATOM     28  H   UNL     1      29.375  -3.969  52.883  0.00  0.00    +0.000 HD
ENDBRANCH  26  27
ENDBRANCH  25  26
ENDBRANCH  20  25
ENDBRANCH   1  20
TORSDOF 9
ENDMDL
MODEL 4
REMARK VINA RESULT:    -7.358      3.941      5.393
REMARK INTER + INTRA:         -11.646
REMARK INTER:                 -10.796
REMARK INTRA:                  -0.850
REMARK UNBOUND:                -0.847
REMARK  Name = 
REMARK  9 active torsions:
REMARK  status: ('A' for Active; 'I' for Inactive)
REMARK    1  A    between atoms: O_1  and  C_2
REMARK    2  A    between atoms: C_2  and  C_3
REMARK    3  A    between atoms: C_3  and  N_4
REMARK    4  A    between atoms: N_4  and  C_5
REMARK    5  A    between atoms: N_4  and  C_8
REMARK    6  A    between atoms: C_5  and  C_6
REMARK    7  A    between atoms: C_6  and  O_7
REMARK    8  A    between atoms: C_14  and  N_15
REMARK    9  A    between atoms: N_15  and  C_16
REMARK                            x       y       z     vdW  Elec       q    Type
REMARK                         _______ _______ _______ _____ _____    ______ ____
ROOT
ATOM      1  C   UNL     1      26.278   1.207  52.820  0.00  0.00    +0.123 A 
ATOM      2  C   UNL     1      25.243   2.039  53.277  0.00  0.00    +0.004 A 
ATOM      3  C   UNL     1      24.757   3.054  52.449  0.00  0.00    +0.081 A 
ATOM      4  N   UNL     1      23.746   3.852  52.879  0.00  0.00    -0.235 NA
ATOM      5  C   UNL     1      23.252   4.840  52.091  0.00  0.00    +0.119 A 
ATOM      6  N   UNL     1      23.772   5.050  50.855  0.00  0.00    -0.220 NA
ATOM      7  C   UNL     1      24.784   4.281  50.365  0.00  0.00    +0.135 A 
ATOM      8  C   UNL     1      25.307   3.245  51.166  0.00  0.00    +0.059 A 
ATOM      9  C   UNL     1      26.326   2.377  50.739  0.00  0.00    +0.042 A 
ATOM     10  N   UNL     1      26.776   1.397  51.566  0.00  0.00    -0.239 NA
ENDROOT
BRANCH   7  11
ATOM     11  N   UNL     1      25.331   4.581  49.069  0.00  0.00    -0.299 N 
ATOM     12  H   UNL     1      24.974   4.099  48.288  0.00  0.00    +0.000 HD
BRANCH  11  13
ATOM     13  C   UNL     1      26.373   5.549  48.854  0.00  0.00    +0.033 A 
ATOM     14  C   UNL     1      26.110   6.931  48.906  0.00  0.00    -0.040 A 
ATOM     15  C   UNL     1      27.135   7.854  48.672  0.00  0.00    -0.059 A 
ATOM     16  C   UNL     1      28.425   7.408  48.373  0.00  0.00    -0.048 A 
ATOM     17  C   UNL     1      28.692   6.038  48.300  0.00  0.00    +0.020 A 
ATOM     18 BR   UNL     1      30.452   5.429  47.879  0.00  0.00    -0.050 Br
ATOM     19  C   UNL     1      27.668   5.112  48.533  0.00  0.00    -0.027 A 
ENDBRANCH  11  13
ENDBRANCH   7  11
BRANCH   1  20
ATOM     20  N   UNL     1      26.797   0.135  53.640  0.00  0.00    -0.311 N 
BRANCH  20  21
ATOM     21  C   UNL     1      26.293  -1.241  53.495  0.00  0.00    +0.037 C 
BRANCH  21  22
ATOM     22  C   UNL     1      27.115  -2.033  52.473  0.00  0.00    +0.060 C 
BRANCH  22  23
ATOM     23  O   UNL     1      27.929  -2.977  53.111  0.00  0.00    -0.393 OA
ATOM     24  H   UNL     1      28.137  -2.673  54.008  0.00  0.00    +0.000 HD
ENDBRANCH  22  23
ENDBRANCH  21  22
ENDBRANCH  20  21
BRANCH  20  25
ATOM     25  C   UNL     1      27.704   0.448  54.758  0.00  0.00    +0.037 C 
BRANCH  25  26
ATOM     26  C   UNL     1      28.990   1.108  54.255  0.00  0.00    +0.060 C 
BRANCH  26  27
ATOM     27  O   UNL     1      29.110   2.403  54.777  0.00  0.00    -0.393 OA
ATOM     28  H   UNL     1      28.311   2.623  55.280  0.00  0.00    +0.000 HD
ENDBRANCH  26  27
ENDBRANCH  25  26
ENDBRANCH  20  25
ENDBRANCH   1  20
TORSDOF 9
ENDMDL
MODEL 5
REMARK VINA RESULT:    -7.330      5.088      7.235
REMARK INTER + INTRA:         -11.605
REMARK INTER:                 -10.726
REMARK INTRA:                  -0.879
REMARK UNBOUND:                -0.847
REMARK  Name = 
REMARK  9 active torsions:
REMARK  status: ('A' for Active; 'I' for Inactive)
REMARK    1  A    between atoms: O_1  and  C_2
REMARK    2  A    between atoms: C_2  and  C_3
REMARK    3  A    between atoms: C_3  and  N_4
REMARK    4  A    between atoms: N_4  and  C_5
REMARK    5  A    between atoms: N_4  and  C_8
REMARK    6  A    between atoms: C_5  and  C_6
REMARK    7  A    between atoms: C_6  and  O_7
REMARK    8  A    between atoms: C_14  and  N_15
REMARK    9  A    between atoms: N_15  and  C_16
REMARK                            x       y       z     vdW  Elec       q    Type
REMARK                         _______ _______ _______ _____ _____    ______ ____
ROOT
ATOM      1  C   UNL     1      26.495   6.394  49.243  0.00  0.00    +0.123 A 
ATOM      2  C   UNL     1      25.408   6.787  50.041  0.00  0.00    +0.004 A 
ATOM      3  C   UNL     1      24.599   5.814  50.632  0.00  0.00    +0.081 A 
ATOM      4  N   UNL     1      23.555   6.186  51.417  0.00  0.00    -0.235 NA
ATOM      5  C   UNL     1      22.760   5.260  52.008  0.00  0.00    +0.119 A 
ATOM      6  N   UNL     1      22.994   3.937  51.814  0.00  0.00    -0.220 NA
ATOM      7  C   UNL     1      24.026   3.499  51.041  0.00  0.00    +0.135 A 
ATOM      8  C   UNL     1      24.869   4.446  50.423  0.00  0.00    +0.059 A 
ATOM      9  C   UNL     1      25.979   4.096  49.637  0.00  0.00    +0.042 A 
ATOM     10  N   UNL     1      26.750   5.067  49.077  0.00  0.00    -0.239 NA
ENDROOT
BRANCH   7  11
ATOM     11  N   UNL     1      24.197   2.087  50.828  0.00  0.00    -0.299 N 
ATOM     12  H   UNL     1      24.087   1.736  49.914  0.00  0.00    +0.000 HD
BRANCH  11  13
ATOM     13  C   UNL     1      24.518   1.160  51.880  0.00  0.00    +0.033 A 
ATOM     14  C   UNL     1      25.848   0.780  52.140  0.00  0.00    -0.040 A 
ATOM     15  C   UNL     1      26.134  -0.139  53.154  0.00  0.00    -0.059 A 
ATOM     16  C   UNL     1      25.098  -0.696  53.908  0.00  0.00    -0.048 A 
ATOM     17  C   UNL     1      23.772  -0.339  53.646  0.00  0.00    +0.020 A 
ATOM     18 BR   UNL     1      22.355  -1.110  54.668  0.00  0.00    -0.050 Br
ATOM     19  C   UNL     1      23.483   0.580  52.631  0.00  0.00    -0.027 A 
ENDBRANCH  11  13
ENDBRANCH   7  11
BRANCH   1  20
ATOM     20  N   UNL     1      27.365   7.371  48.627  0.00  0.00    -0.311 N 
BRANCH  20  21
ATOM     21  C   UNL     1      27.134   8.814  48.813  0.00  0.00    +0.037 C 
BRANCH  21  22
ATOM     22  C   UNL     1      28.053   9.394  49.892  0.00  0.00    +0.060 C 
BRANCH  22  23
ATOM     23  O   UNL     1      27.321   9.759  51.029  0.00  0.00    -0.393 OA
ATOM     24  H   UNL     1      26.536   9.192  51.105  0.00  0.00    +0.000 HD
ENDBRANCH  22  23
ENDBRANCH  21  22
ENDBRANCH  20  21
BRANCH  20  25
ATOM     25  C   UNL     1      28.382   6.932  47.656  0.00  0.00    +0.037 C 
BRANCH  25  26
ATOM     26  C   UNL     1      29.753   6.791  48.320  0.00  0.00    +0.060 C 
BRANCH  26  27
ATOM     27  O   UNL     1      29.795   5.637  49.113  0.00  0.00    -0.393 OA
ATOM     28  H   UNL     1      29.913   4.859  48.546  0.00  0.00    +0.000 HD
ENDBRANCH  26  27
ENDBRANCH  25  26
ENDBRANCH  20  25
ENDBRANCH   1  20
TORSDOF 9
ENDMDL
MODEL 6
REMARK VINA RESULT:    -7.169      2.797      3.807
REMARK INTER + INTRA:         -11.369
REMARK INTER:                 -10.787
REMARK INTRA:                  -0.582
REMARK UNBOUND:                -0.847
REMARK  Name = 
REMARK  9 active torsions:
REMARK  status: ('A' for Active; 'I' for Inactive)
REMARK    1  A    between atoms: O_1  and  C_2
REMARK    2  A    between atoms: C_2  and  C_3
REMARK    3  A    between atoms: C_3  and  N_4
REMARK    4  A    between atoms: N_4  and  C_5
REMARK    5  A    between atoms: N_4  and  C_8
REMARK    6  A    between atoms: C_5  and  C_6
REMARK    7  A    between atoms: C_6  and  O_7
REMARK    8  A    between atoms: C_14  and  N_15
REMARK    9  A    between atoms: N_15  and  C_16
REMARK                            x       y       z     vdW  Elec       q    Type
REMARK                         _______ _______ _______ _____ _____    ______ ____
ROOT
ATOM      1  C   UNL     1      26.623   0.930  52.973  0.00  0.00    +0.123 A 
ATOM      2  C   UNL     1      26.838   1.500  51.707  0.00  0.00    +0.004 A 
ATOM      3  C   UNL     1      25.951   2.465  51.225  0.00  0.00    +0.081 A 
ATOM      4  N   UNL     1      26.162   3.031  50.009  0.00  0.00    -0.235 NA
ATOM      5  C   UNL     1      25.319   3.976  49.522  0.00  0.00    +0.119 A 
ATOM      6  N   UNL     1      24.240   4.365  50.248  0.00  0.00    -0.220 NA
ATOM      7  C   UNL     1      23.976   3.839  51.476  0.00  0.00    +0.135 A 
ATOM      8  C   UNL     1      24.844   2.860  52.003  0.00  0.00    +0.059 A 
ATOM      9  C   UNL     1      24.678   2.282  53.272  0.00  0.00    +0.042 A 
ATOM     10  N   UNL     1      25.560   1.347  53.715  0.00  0.00    -0.239 NA
ENDROOT
BRANCH   7  11
ATOM     11  N   UNL     1      22.791   4.251  52.178  0.00  0.00    -0.299 N 
ATOM     12  H   UNL     1      22.878   4.941  52.876  0.00  0.00    +0.000 HD
BRANCH  11  13
ATOM     13  C   UNL     1      21.485   3.709  51.915  0.00  0.00    +0.033 A 
ATOM     14  C   UNL     1      20.480   4.483  51.306  0.00  0.00    -0.040 A 
ATOM     15  C   UNL     1      19.211   3.941  51.080  0.00  0.00    -0.059 A 
ATOM     16  C   UNL     1      18.930   2.629  51.468  0.00  0.00    -0.048 A 
ATOM     17  C   UNL     1      19.916   1.857  52.091  0.00  0.00    +0.020 A 
ATOM     18 BR   UNL     1      19.527   0.068  52.633  0.00  0.00    -0.050 Br
ATOM     19  C   UNL     1      21.186   2.398  52.319  0.00  0.00    -0.027 A 
ENDBRANCH  11  13
ENDBRANCH   7  11
BRANCH   1  20
ATOM     20  N   UNL     1      27.527  -0.060  53.514  0.00  0.00    -0.311 N 
BRANCH  20  21
ATOM     21  C   UNL     1      28.439   0.272  54.622  0.00  0.00    +0.037 C 
BRANCH  21  22
ATOM     22  C   UNL     1      29.318   1.479  54.282  0.00  0.00    +0.060 C 
BRANCH  22  23
ATOM     23  O   UNL     1      28.603   2.674  54.426  0.00  0.00    -0.393 OA
ATOM     24  H   UNL     1      28.949   3.170  55.185  0.00  0.00    +0.000 HD
ENDBRANCH  22  23
ENDBRANCH  21  22
ENDBRANCH  20  21
BRANCH  20  25
ATOM     25  C   UNL     1      27.674  -1.359  52.836  0.00  0.00    +0.037 C 
BRANCH  25  26
ATOM     26  C   UNL     1      28.953  -2.073  53.282  0.00  0.00    +0.060 C 
BRANCH  26  27
ATOM     27  O   UNL     1      28.742  -3.456  53.346  0.00  0.00    -0.393 OA
ATOM     28  H   UNL     1      27.826  -3.655  53.099  0.00  0.00    +0.000 HD
ENDBRANCH  26  27
ENDBRANCH  25  26
ENDBRANCH  20  25
ENDBRANCH   1  20
TORSDOF 9
ENDMDL
MODEL 7
REMARK VINA RESULT:    -7.128      5.084      7.502
REMARK INTER + INTRA:         -11.309
REMARK INTER:                 -10.554
REMARK INTRA:                  -0.755
REMARK UNBOUND:                -0.847
REMARK  Name = 
REMARK  9 active torsions:
REMARK  status: ('A' for Active; 'I' for Inactive)
REMARK    1  A    between atoms: O_1  and  C_2
REMARK    2  A    between atoms: C_2  and  C_3
REMARK    3  A    between atoms: C_3  and  N_4
REMARK    4  A    between atoms: N_4  and  C_5
REMARK    5  A    between atoms: N_4  and  C_8
REMARK    6  A    between atoms: C_5  and  C_6
REMARK    7  A    between atoms: C_6  and  O_7
REMARK    8  A    between atoms: C_14  and  N_15
REMARK    9  A    between atoms: N_15  and  C_16
REMARK                            x       y       z     vdW  Elec       q    Type
REMARK                         _______ _______ _______ _____ _____    ______ ____
ROOT
ATOM      1  C   UNL     1      26.483   6.316  49.179  0.00  0.00    +0.123 A 
ATOM      2  C   UNL     1      25.389   6.684  49.979  0.00  0.00    +0.004 A 
ATOM      3  C   UNL     1      24.647   5.697  50.632  0.00  0.00    +0.081 A 
ATOM      4  N   UNL     1      23.598   6.049  51.419  0.00  0.00    -0.235 NA
ATOM      5  C   UNL     1      22.867   5.109  52.069  0.00  0.00    +0.119 A 
ATOM      6  N   UNL     1      23.173   3.793  51.933  0.00  0.00    -0.220 NA
ATOM      7  C   UNL     1      24.215   3.377  51.161  0.00  0.00    +0.135 A 
ATOM      8  C   UNL     1      24.992   4.339  50.482  0.00  0.00    +0.059 A 
ATOM      9  C   UNL     1      26.105   4.014  49.691  0.00  0.00    +0.042 A 
ATOM     10  N   UNL     1      26.810   4.998  49.070  0.00  0.00    -0.239 NA
ENDROOT
BRANCH   7  11
ATOM     11  N   UNL     1      24.462   1.968  51.012  0.00  0.00    -0.299 N 
ATOM     12  H   UNL     1      24.252   1.546  50.147  0.00  0.00    +0.000 HD
BRANCH  11  13
ATOM     13  C   UNL     1      24.999   1.143  52.060  0.00  0.00    +0.033 A 
ATOM     14  C   UNL     1      24.158   0.408  52.917  0.00  0.00    -0.040 A 
ATOM     15  C   UNL     1      24.703  -0.370  53.943  0.00  0.00    -0.059 A 
ATOM     16  C   UNL     1      26.087  -0.413  54.131  0.00  0.00    -0.048 A 
ATOM     17  C   UNL     1      26.930   0.328  53.298  0.00  0.00    +0.020 A 
ATOM     18 BR   UNL     1      28.820   0.279  53.563  0.00  0.00    -0.050 Br
ATOM     19  C   UNL     1      26.387   1.108  52.270  0.00  0.00    -0.027 A 
ENDBRANCH  11  13
ENDBRANCH   7  11
BRANCH   1  20
ATOM     20  N   UNL     1      27.285   7.309  48.500  0.00  0.00    -0.311 N 
BRANCH  20  21
ATOM     21  C   UNL     1      28.407   6.912  47.633  0.00  0.00    +0.037 C 
BRANCH  21  22
ATOM     22  C   UNL     1      29.718   6.822  48.420  0.00  0.00    +0.060 C 
BRANCH  22  23
ATOM     23  O   UNL     1      29.805   5.605  49.108  0.00  0.00    -0.393 OA
ATOM     24  H   UNL     1      30.738   5.368  49.232  0.00  0.00    +0.000 HD
ENDBRANCH  22  23
ENDBRANCH  21  22
ENDBRANCH  20  21
BRANCH  20  25
ATOM     25  C   UNL     1      27.100   8.736  48.817  0.00  0.00    +0.037 C 
BRANCH  25  26
ATOM     26  C   UNL     1      28.147   9.216  49.824  0.00  0.00    +0.060 C 
BRANCH  26  27
ATOM     27  O   UNL     1      27.553   9.454  51.070  0.00  0.00    -0.393 OA
ATOM     28  H   UNL     1      26.812  10.070  50.962  0.00  0.00    +0.000 HD
ENDBRANCH  26  27
ENDBRANCH  25  26
ENDBRANCH  20  25
ENDBRANCH   1  20
TORSDOF 9
ENDMDL
MODEL 8
REMARK VINA RESULT:    -7.080      2.272      4.203
REMARK INTER + INTRA:         -11.239
REMARK INTER:                 -10.805
REMARK INTRA:                  -0.433
REMARK UNBOUND:                -0.847
REMARK  Name = 
REMARK  9 active torsions:
REMARK  status: ('A' for Active; 'I' for Inactive)
REMARK    1  A    between atoms: O_1  and  C_2
REMARK    2  A    between atoms: C_2  and  C_3
REMARK    3  A    between atoms: C_3  and  N_4
REMARK    4  A    between atoms: N_4  and  C_5
REMARK    5  A    between atoms: N_4  and  C_8
REMARK    6  A    between atoms: C_5  and  C_6
REMARK    7  A    between atoms: C_6  and  O_7
REMARK    8  A    between atoms: C_14  and  N_15
REMARK    9  A    between atoms: N_15  and  C_16
REMARK                            x       y       z     vdW  Elec       q    Type
REMARK                         _______ _______ _______ _____ _____    ______ ____
ROOT
ATOM      1  C   UNL     1      26.260   0.677  52.777  0.00  0.00    +0.123 A 
ATOM      2  C   UNL     1      26.223   1.426  51.589  0.00  0.00    +0.004 A 
ATOM      3  C   UNL     1      25.072   2.148  51.263  0.00  0.00    +0.081 A 
ATOM      4  N   UNL     1      25.036   2.886  50.124  0.00  0.00    -0.235 NA
ATOM      5  C   UNL     1      23.933   3.601  49.790  0.00  0.00    +0.119 A 
ATOM      6  N   UNL     1      22.839   3.581  50.594  0.00  0.00    -0.220 NA
ATOM      7  C   UNL     1      22.814   2.865  51.751  0.00  0.00    +0.135 A 
ATOM      8  C   UNL     1      23.953   2.119  52.120  0.00  0.00    +0.059 A 
ATOM      9  C   UNL     1      24.039   1.376  53.309  0.00  0.00    +0.042 A 
ATOM     10  N   UNL     1      25.174   0.686  53.600  0.00  0.00    -0.239 NA
ENDROOT
BRANCH   7  11
ATOM     11  N   UNL     1      21.610   2.839  52.538  0.00  0.00    -0.299 N 
ATOM     12  H   UNL     1      21.428   3.600  53.137  0.00  0.00    +0.000 HD
BRANCH  11  13
ATOM     13  C   UNL     1      20.659   1.762  52.496  0.00  0.00    +0.033 A 
ATOM     14  C   UNL     1      20.689   0.722  53.444  0.00  0.00    -0.040 A 
ATOM     15  C   UNL     1      19.767  -0.328  53.369  0.00  0.00    -0.059 A 
ATOM     16  C   UNL     1      18.818  -0.356  52.344  0.00  0.00    -0.048 A 
ATOM     17  C   UNL     1      18.793   0.663  51.386  0.00  0.00    +0.020 A 
ATOM     18 BR   UNL     1      17.503   0.618  49.979  0.00  0.00    -0.050 Br
ATOM     19  C   UNL     1      19.714   1.714  51.459  0.00  0.00    -0.027 A 
ENDBRANCH  11  13
ENDBRANCH   7  11
BRANCH   1  20
ATOM     20  N   UNL     1      27.438  -0.070  53.157  0.00  0.00    -0.311 N 
BRANCH  20  21
ATOM     21  C   UNL     1      27.615  -1.470  52.733  0.00  0.00    +0.037 C 
BRANCH  21  22
ATOM     22  C   UNL     1      28.917  -2.061  53.282  0.00  0.00    +0.060 C 
BRANCH  22  23
ATOM     23  O   UNL     1      28.795  -3.443  53.477  0.00  0.00    -0.393 OA
ATOM     24  H   UNL     1      27.924  -3.641  53.856  0.00  0.00    +0.000 HD
ENDBRANCH  22  23
ENDBRANCH  21  22
ENDBRANCH  20  21
BRANCH  20  25
ATOM     25  C   UNL     1      28.385   0.506  54.126  0.00  0.00    +0.037 C 
BRANCH  25  26
ATOM     26  C   UNL     1      28.711   1.960  53.781  0.00  0.00    +0.060 C 
BRANCH  26  27
ATOM     27  O   UNL     1      29.569   2.509  54.743  0.00  0.00    -0.393 OA
ATOM     28  H   UNL     1      29.411   3.464  54.809  0.00  0.00    +0.000 HD
ENDBRANCH  26  27
ENDBRANCH  25  26
ENDBRANCH  20  25
ENDBRANCH   1  20
TORSDOF 9
ENDMDL
MODEL 9
REMARK VINA RESULT:    -6.965      2.675      4.224
REMARK INTER + INTRA:         -11.069
REMARK INTER:                 -10.371
REMARK INTRA:                  -0.698
REMARK UNBOUND:                -0.847
REMARK  Name = 
REMARK  9 active torsions:
REMARK  status: ('A' for Active; 'I' for Inactive)
REMARK    1  A    between atoms: O_1  and  C_2
REMARK    2  A    between atoms: C_2  and  C_3
REMARK    3  A    between atoms: C_3  and  N_4
REMARK    4  A    between atoms: N_4  and  C_5
REMARK    5  A    between atoms: N_4  and  C_8
REMARK    6  A    between atoms: C_5  and  C_6
REMARK    7  A    between atoms: C_6  and  O_7
REMARK    8  A    between atoms: C_14  and  N_15
REMARK    9  A    between atoms: N_15  and  C_16
REMARK                            x       y       z     vdW  Elec       q    Type
REMARK                         _______ _______ _______ _____ _____    ______ ____
ROOT
ATOM      1  C   UNL     1      26.638   1.007  52.877  0.00  0.00    +0.123 A 
ATOM      2  C   UNL     1      26.857   1.527  51.590  0.00  0.00    +0.004 A 
ATOM      3  C   UNL     1      26.022   2.534  51.101  0.00  0.00    +0.081 A 
ATOM      4  N   UNL     1      26.238   3.051  49.864  0.00  0.00    -0.235 NA
ATOM      5  C   UNL     1      25.446   4.035  49.370  0.00  0.00    +0.119 A 
ATOM      6  N   UNL     1      24.413   4.513  50.110  0.00  0.00    -0.220 NA
ATOM      7  C   UNL     1      24.146   4.039  51.358  0.00  0.00    +0.135 A 
ATOM      8  C   UNL     1      24.962   3.021  51.893  0.00  0.00    +0.059 A 
ATOM      9  C   UNL     1      24.791   2.490  53.181  0.00  0.00    +0.042 A 
ATOM     10  N   UNL     1      25.622   1.512  53.631  0.00  0.00    -0.239 NA
ENDROOT
BRANCH   7  11
ATOM     11  N   UNL     1      23.007   4.547  52.076  0.00  0.00    -0.299 N 
ATOM     12  H   UNL     1      23.164   5.193  52.802  0.00  0.00    +0.000 HD
BRANCH  11  13
ATOM     13  C   UNL     1      21.653   4.160  51.787  0.00  0.00    +0.033 A 
ATOM     14  C   UNL     1      21.048   3.070  52.441  0.00  0.00    -0.040 A 
ATOM     15  C   UNL     1      19.737   2.698  52.128  0.00  0.00    -0.059 A 
ATOM     16  C   UNL     1      19.023   3.400  51.153  0.00  0.00    -0.048 A 
ATOM     17  C   UNL     1      19.621   4.472  50.484  0.00  0.00    +0.020 A 
ATOM     18 BR   UNL     1      18.649   5.424  49.144  0.00  0.00    -0.050 Br
ATOM     19  C   UNL     1      20.933   4.846  50.796  0.00  0.00    -0.027 A 
ENDBRANCH  11  13
ENDBRANCH   7  11
BRANCH   1  20
ATOM     20  N   UNL     1      27.490  -0.025  53.425  0.00  0.00    -0.311 N 
BRANCH  20  21
ATOM     21  C   UNL     1      27.466  -1.393  52.881  0.00  0.00    +0.037 C 
BRANCH  21  22
ATOM     22  C   UNL     1      28.741  -2.162  53.243  0.00  0.00    +0.060 C 
BRANCH  22  23
ATOM     23  O   UNL     1      28.559  -3.540  53.071  0.00  0.00    -0.393 OA
ATOM     24  H   UNL     1      28.673  -3.991  53.923  0.00  0.00    +0.000 HD
ENDBRANCH  22  23
ENDBRANCH  21  22
ENDBRANCH  20  21
BRANCH  20  25
ATOM     25  C   UNL     1      28.255   0.240  54.655  0.00  0.00    +0.037 C 
BRANCH  25  26
ATOM     26  C   UNL     1      29.290   1.345  54.434  0.00  0.00    +0.060 C 
BRANCH  26  27
ATOM     27  O   UNL     1      28.675   2.603  54.470  0.00  0.00    -0.393 OA
ATOM     28  H   UNL     1      29.167   3.219  53.905  0.00  0.00    +0.000 HD
ENDBRANCH  26  27
ENDBRANCH  25  26
ENDBRANCH  20  25
ENDBRANCH   1  20
TORSDOF 9
ENDMDL
