MODEL 1
REMARK VINA RESULT:   -10.159      0.000      0.000
REMARK INTER + INTRA:         -17.602
REMARK INTER:                 -15.504
REMARK INTRA:                  -2.098
REMARK UNBOUND:                -2.098
REMARK  Name = 
REMARK  11 active torsions:
REMARK  status: ('A' for Active; 'I' for Inactive)
REMARK    1  A    between atoms: C_1  and  N_2
REMARK    2  A    between atoms: C_3  and  S_4
REMARK    3  A    between atoms: S_4  and  S_5
REMARK    4  A    between atoms: S_5  and  C_6
REMARK    5  A    between atoms: C_7  and  C_8
REMARK    6  A    between atoms: N_10  and  C_11
REMARK    7  A    between atoms: C_19  and  N_20
REMARK    8  A    between atoms: N_26  and  C_27
REMARK    9  A    between atoms: C_28  and  C_29
REMARK   10  A    between atoms: N_31  and  C_32
REMARK   11  A    between atoms: C_40  and  N_41
REMARK                            x       y       z     vdW  Elec       q    Type
REMARK                         _______ _______ _______ _____ _____    ______ ____
ROOT
ATOM      1  S   UNL     1      22.830   3.310  48.933  0.00  0.00    -0.032 S 
ENDROOT
BRANCH   1   4
ATOM      2  C   UNL     1      20.478   5.316  47.889  0.00  0.00    +0.013 C 
ATOM      3  N   UNL     1      20.192   4.200  48.793  0.00  0.00    -0.337 N 
ATOM      4  C   UNL     1      21.069   3.276  49.265  0.00  0.00    +0.100 A 
ATOM      5  C   UNL     1      20.455   2.473  50.223  0.00  0.00    +0.077 A 
ATOM      6  C   UNL     1      19.162   2.935  50.327  0.00  0.00    +0.015 A 
ATOM      7  C   UNL     1      18.123   2.545  51.171  0.00  0.00    -0.022 A 
ATOM      8  C   UNL     1      16.896   3.245  51.096  0.00  0.00    +0.127 A 
ATOM      9  C   UNL     1      16.761   4.308  50.166  0.00  0.00    -0.030 A 
ATOM     10  C   UNL     1      17.827   4.671  49.326  0.00  0.00    -0.035 A 
ATOM     11  C   UNL     1      19.029   3.971  49.441  0.00  0.00    +0.051 A 
BRANCH   5  12
ATOM     12  C   UNL     1      21.075   1.400  51.012  0.00  0.00    +0.251 C 
ATOM     13  O   UNL     1      21.215   0.253  50.491  0.00  0.00    -0.270 OA
ATOM     14  N   UNL     1      21.532   1.660  52.347  0.00  0.00    -0.281 N 
ATOM     15  H   UNL     1      21.555   2.592  52.662  0.00  0.00    +0.000 HD
BRANCH  14  16
ATOM     16  C   UNL     1      21.961   0.621  53.242  0.00  0.00    +0.034 A 
ATOM     17  C   UNL     1      21.002  -0.158  53.913  0.00  0.00    -0.040 A 
ATOM     18  C   UNL     1      21.401  -1.171  54.788  0.00  0.00    -0.060 A 
ATOM     19  C   UNL     1      22.759  -1.432  54.980  0.00  0.00    -0.062 A 
ATOM     20  C   UNL     1      23.718  -0.683  54.295  0.00  0.00    -0.060 A 
ATOM     21  C   UNL     1      23.327   0.340  53.424  0.00  0.00    -0.040 A 
ENDBRANCH  14  16
ENDBRANCH   5  12
BRANCH   8  22
ATOM     22  N   UNL     1      15.803   2.899  51.968  0.00  0.00    +0.056 N 
ATOM     23  O   UNL     1      15.451   3.667  52.888  0.00  0.00    -0.126 OA
ATOM     24  O   UNL     1      15.123   1.714  51.797  0.00  0.00    -0.126 OA
ENDBRANCH   8  22
ENDBRANCH   1   4
BRANCH   1  25
ATOM     25  S   UNL     1      23.374   4.320  50.728  0.00  0.00    -0.032 S 
BRANCH  25  26
ATOM     26  C   UNL     1      24.824   5.089  49.988  0.00  0.00    +0.100 A 
ATOM     27  C   UNL     1      26.043   4.454  49.750  0.00  0.00    +0.077 A 
ATOM     28  C   UNL     1      26.838   5.393  49.127  0.00  0.00    +0.015 A 
ATOM     29  C   UNL     1      28.132   5.298  48.623  0.00  0.00    -0.022 A 
ATOM     30  C   UNL     1      28.687   6.435  47.988  0.00  0.00    +0.127 A 
ATOM     31  C   UNL     1      27.926   7.630  47.903  0.00  0.00    -0.030 A 
ATOM     32  C   UNL     1      26.626   7.694  48.430  0.00  0.00    -0.035 A 
ATOM     33  C   UNL     1      26.106   6.549  49.034  0.00  0.00    +0.051 A 
ATOM     34  N   UNL     1      24.880   6.383  49.575  0.00  0.00    -0.337 N 
ATOM     35  C   UNL     1      23.813   7.385  49.618  0.00  0.00    +0.013 C 
BRANCH  27  36
ATOM     36  C   UNL     1      26.482   3.146  50.249  0.00  0.00    +0.251 C 
ATOM     37  O   UNL     1      26.319   2.123  49.537  0.00  0.00    -0.270 OA
ATOM     38  N   UNL     1      27.131   3.042  51.520  0.00  0.00    -0.281 N 
ATOM     39  H   UNL     1      27.534   3.853  51.905  0.00  0.00    +0.000 HD
BRANCH  38  40
ATOM     40  C   UNL     1      27.229   1.818  52.268  0.00  0.00    +0.034 A 
ATOM     41  C   UNL     1      27.712   1.842  53.587  0.00  0.00    -0.040 A 
ATOM     42  C   UNL     1      27.780   0.664  54.335  0.00  0.00    -0.060 A 
ATOM     43  C   UNL     1      27.342  -0.543  53.785  0.00  0.00    -0.062 A 
ATOM     44  C   UNL     1      26.851  -0.576  52.480  0.00  0.00    -0.060 A 
ATOM     45  C   UNL     1      26.789   0.599  51.720  0.00  0.00    -0.040 A 
ENDBRANCH  38  40
ENDBRANCH  27  36
BRANCH  30  46
ATOM     46  N   UNL     1      30.007   6.380  47.414  0.00  0.00    +0.056 N 
ATOM     47  O   UNL     1      30.517   7.392  46.893  0.00  0.00    -0.126 OA
ATOM     48  O   UNL     1      30.742   5.212  47.471  0.00  0.00    -0.126 OA
ENDBRANCH  30  46
ENDBRANCH  25  26
ENDBRANCH   1  25
TORSDOF 9
ENDMDL
MODEL 2
REMARK VINA RESULT:   -10.117      2.554      3.263
REMARK INTER + INTRA:         -17.538
REMARK INTER:                 -15.250
REMARK INTRA:                  -2.289
REMARK UNBOUND:                -2.098
REMARK  Name = 
REMARK  11 active torsions:
REMARK  status: ('A' for Active; 'I' for Inactive)
REMARK    1  A    between atoms: C_1  and  N_2
REMARK    2  A    between atoms: C_3  and  S_4
REMARK    3  A    between atoms: S_4  and  S_5
REMARK    4  A    between atoms: S_5  and  C_6
REMARK    5  A    between atoms: C_7  and  C_8
REMARK    6  A    between atoms: N_10  and  C_11
REMARK    7  A    between atoms: C_19  and  N_20
REMARK    8  A    between atoms: N_26  and  C_27
REMARK    9  A    between atoms: C_28  and  C_29
REMARK   10  A    between atoms: N_31  and  C_32
REMARK   11  A    between atoms: C_40  and  N_41
REMARK                            x       y       z     vdW  Elec       q    Type
REMARK                         _______ _______ _______ _____ _____    ______ ____
ROOT
ATOM      1  S   UNL     1      20.722   2.886  50.892  0.00  0.00    -0.032 S 
ENDROOT
BRANCH   1   4
ATOM      2  C   UNL     1      18.074   2.545  49.016  0.00  0.00    +0.013 C 
ATOM      3  N   UNL     1      18.411   1.569  50.055  0.00  0.00    -0.337 N 
ATOM      4  C   UNL     1      19.498   1.575  50.869  0.00  0.00    +0.100 A 
ATOM      5  C   UNL     1      19.388   0.574  51.831  0.00  0.00    +0.077 A 
ATOM      6  C   UNL     1      18.188  -0.055  51.580  0.00  0.00    +0.015 A 
ATOM      7  C   UNL     1      17.542  -1.085  52.264  0.00  0.00    -0.022 A 
ATOM      8  C   UNL     1      16.270  -1.501  51.806  0.00  0.00    +0.127 A 
ATOM      9  C   UNL     1      15.701  -0.869  50.670  0.00  0.00    -0.030 A 
ATOM     10  C   UNL     1      16.383   0.161  50.001  0.00  0.00    -0.035 A 
ATOM     11  C   UNL     1      17.627   0.560  50.492  0.00  0.00    +0.051 A 
BRANCH   5  12
ATOM     12  C   UNL     1      20.321   0.289  52.929  0.00  0.00    +0.251 C 
ATOM     13  O   UNL     1      20.099   0.787  54.073  0.00  0.00    -0.270 OA
ATOM     14  N   UNL     1      21.455  -0.561  52.707  0.00  0.00    -0.281 N 
ATOM     15  H   UNL     1      21.511  -1.058  51.858  0.00  0.00    +0.000 HD
BRANCH  14  16
ATOM     16  C   UNL     1      22.510  -0.723  53.668  0.00  0.00    +0.034 A 
ATOM     17  C   UNL     1      22.294  -1.507  54.814  0.00  0.00    -0.040 A 
ATOM     18  C   UNL     1      23.308  -1.674  55.760  0.00  0.00    -0.060 A 
ATOM     19  C   UNL     1      24.555  -1.079  55.556  0.00  0.00    -0.062 A 
ATOM     20  C   UNL     1      24.789  -0.323  54.405  0.00  0.00    -0.060 A 
ATOM     21  C   UNL     1      23.775  -0.144  53.459  0.00  0.00    -0.040 A 
ENDBRANCH  14  16
ENDBRANCH   5  12
BRANCH   8  22
ATOM     22  N   UNL     1      15.550  -2.540  52.496  0.00  0.00    +0.056 N 
ATOM     23  O   UNL     1      14.301  -2.562  52.493  0.00  0.00    -0.126 OA
ATOM     24  O   UNL     1      16.229  -3.532  53.168  0.00  0.00    -0.126 OA
ENDBRANCH   8  22
ENDBRANCH   1   4
BRANCH   1  25
ATOM     25  S   UNL     1      22.138   1.888  49.652  0.00  0.00    -0.032 S 
BRANCH  25  26
ATOM     26  C   UNL     1      23.126   3.370  49.395  0.00  0.00    +0.100 A 
ATOM     27  C   UNL     1      24.343   3.648  50.016  0.00  0.00    +0.077 A 
ATOM     28  C   UNL     1      24.767   4.849  49.487  0.00  0.00    +0.015 A 
ATOM     29  C   UNL     1      25.932   5.578  49.706  0.00  0.00    -0.022 A 
ATOM     30  C   UNL     1      26.116   6.778  48.979  0.00  0.00    +0.127 A 
ATOM     31  C   UNL     1      25.112   7.209  48.073  0.00  0.00    -0.030 A 
ATOM     32  C   UNL     1      23.944   6.453  47.882  0.00  0.00    -0.035 A 
ATOM     33  C   UNL     1      23.804   5.268  48.605  0.00  0.00    +0.051 A 
ATOM     34  N   UNL     1      22.785   4.383  48.554  0.00  0.00    -0.337 N 
ATOM     35  C   UNL     1      21.604   4.475  47.694  0.00  0.00    +0.013 C 
BRANCH  27  36
ATOM     36  C   UNL     1      24.948   2.944  51.152  0.00  0.00    +0.251 C 
ATOM     37  O   UNL     1      24.586   3.227  52.322  0.00  0.00    -0.270 OA
ATOM     38  N   UNL     1      25.913   1.911  50.928  0.00  0.00    -0.281 N 
ATOM     39  H   UNL     1      25.943   1.488  50.040  0.00  0.00    +0.000 HD
BRANCH  38  40
ATOM     40  C   UNL     1      26.841   1.456  51.927  0.00  0.00    +0.034 A 
ATOM     41  C   UNL     1      27.095   0.082  52.070  0.00  0.00    -0.040 A 
ATOM     42  C   UNL     1      28.021  -0.370  53.014  0.00  0.00    -0.060 A 
ATOM     43  C   UNL     1      28.721   0.545  53.804  0.00  0.00    -0.062 A 
ATOM     44  C   UNL     1      28.483   1.912  53.663  0.00  0.00    -0.060 A 
ATOM     45  C   UNL     1      27.550   2.372  52.726  0.00  0.00    -0.040 A 
ENDBRANCH  38  40
ENDBRANCH  27  36
BRANCH  30  46
ATOM     46  N   UNL     1      27.321   7.551  49.138  0.00  0.00    +0.056 N 
ATOM     47  O   UNL     1      28.367   7.232  48.537  0.00  0.00    -0.126 OA
ATOM     48  O   UNL     1      27.321   8.684  49.927  0.00  0.00    -0.126 OA
ENDBRANCH  30  46
ENDBRANCH  25  26
ENDBRANCH   1  25
TORSDOF 9
ENDMDL
MODEL 3
REMARK VINA RESULT:   -10.053      1.298      8.940
REMARK INTER + INTRA:         -17.440
REMARK INTER:                 -15.043
REMARK INTRA:                  -2.397
REMARK UNBOUND:                -2.098
REMARK  Name = 
REMARK  11 active torsions:
REMARK  status: ('A' for Active; 'I' for Inactive)
REMARK    1  A    between atoms: C_1  and  N_2
REMARK    2  A    between atoms: C_3  and  S_4
REMARK    3  A    between atoms: S_4  and  S_5
REMARK    4  A    between atoms: S_5  and  C_6
REMARK    5  A    between atoms: C_7  and  C_8
REMARK    6  A    between atoms: N_10  and  C_11
REMARK    7  A    between atoms: C_19  and  N_20
REMARK    8  A    between atoms: N_26  and  C_27
REMARK    9  A    between atoms: C_28  and  C_29
REMARK   10  A    between atoms: N_31  and  C_32
REMARK   11  A    between atoms: C_40  and  N_41
REMARK                            x       y       z     vdW  Elec       q    Type
REMARK                         _______ _______ _______ _____ _____    ______ ____
ROOT
ATOM      1  S   UNL     1      21.801   4.841  51.031  0.00  0.00    -0.032 S 
ENDROOT
BRANCH   1   4
ATOM      2  C   UNL     1      22.406   7.657  49.497  0.00  0.00    +0.013 C 
ATOM      3  N   UNL     1      23.468   6.687  49.770  0.00  0.00    -0.337 N 
ATOM      4  C   UNL     1      23.355   5.505  50.431  0.00  0.00    +0.100 A 
ATOM      5  C   UNL     1      24.547   4.790  50.349  0.00  0.00    +0.077 A 
ATOM      6  C   UNL     1      25.405   5.574  49.611  0.00  0.00    +0.015 A 
ATOM      7  C   UNL     1      26.705   5.332  49.170  0.00  0.00    -0.022 A 
ATOM      8  C   UNL     1      27.336   6.310  48.366  0.00  0.00    +0.127 A 
ATOM      9  C   UNL     1      26.635   7.501  48.046  0.00  0.00    -0.030 A 
ATOM     10  C   UNL     1      25.328   7.716  48.513  0.00  0.00    -0.035 A 
ATOM     11  C   UNL     1      24.729   6.721  49.286  0.00  0.00    +0.051 A 
BRANCH   5  12
ATOM     12  C   UNL     1      24.815   3.446  50.879  0.00  0.00    +0.251 C 
ATOM     13  O   UNL     1      24.028   2.497  50.584  0.00  0.00    -0.270 OA
ATOM     14  N   UNL     1      25.968   3.214  51.700  0.00  0.00    -0.281 N 
ATOM     15  H   UNL     1      26.642   3.928  51.778  0.00  0.00    +0.000 HD
BRANCH  14  16
ATOM     16  C   UNL     1      26.185   1.985  52.413  0.00  0.00    +0.034 A 
ATOM     17  C   UNL     1      26.473   0.809  51.699  0.00  0.00    -0.040 A 
ATOM     18  C   UNL     1      26.685  -0.395  52.375  0.00  0.00    -0.060 A 
ATOM     19  C   UNL     1      26.637  -0.429  53.770  0.00  0.00    -0.062 A 
ATOM     20  C   UNL     1      26.382   0.742  54.489  0.00  0.00    -0.060 A 
ATOM     21  C   UNL     1      26.159   1.949  53.819  0.00  0.00    -0.040 A 
ENDBRANCH  14  16
ENDBRANCH   5  12
BRANCH   8  22
ATOM     22  N   UNL     1      28.668   6.093  47.861  0.00  0.00    +0.056 N 
ATOM     23  O   UNL     1      29.229   4.986  47.995  0.00  0.00    -0.126 OA
ATOM     24  O   UNL     1      29.344   7.106  47.217  0.00  0.00    -0.126 OA
ENDBRANCH   8  22
ENDBRANCH   1   4
BRANCH   1  25
ATOM     25  S   UNL     1      21.119   4.132  49.141  0.00  0.00    -0.032 S 
BRANCH  25  26
ATOM     26  C   UNL     1      19.479   3.726  49.760  0.00  0.00    +0.100 A 
ATOM     27  C   UNL     1      19.188   2.720  50.681  0.00  0.00    +0.077 A 
ATOM     28  C   UNL     1      17.830   2.800  50.906  0.00  0.00    +0.015 A 
ATOM     29  C   UNL     1      17.007   2.076  51.764  0.00  0.00    -0.022 A 
ATOM     30  C   UNL     1      15.633   2.413  51.813  0.00  0.00    +0.127 A 
ATOM     31  C   UNL     1      15.137   3.452  50.984  0.00  0.00    -0.030 A 
ATOM     32  C   UNL     1      15.993   4.157  50.124  0.00  0.00    -0.035 A 
ATOM     33  C   UNL     1      17.344   3.808  50.114  0.00  0.00    +0.051 A 
ATOM     34  N   UNL     1      18.338   4.369  49.392  0.00  0.00    -0.337 N 
ATOM     35  C   UNL     1      18.204   5.499  48.470  0.00  0.00    +0.013 C 
BRANCH  27  36
ATOM     36  C   UNL     1      20.079   1.652  51.147  0.00  0.00    +0.251 C 
ATOM     37  O   UNL     1      20.358   0.697  50.379  0.00  0.00    -0.270 OA
ATOM     38  N   UNL     1      20.659   1.718  52.454  0.00  0.00    -0.281 N 
ATOM     39  H   UNL     1      20.697   2.593  52.902  0.00  0.00    +0.000 HD
BRANCH  38  40
ATOM     40  C   UNL     1      21.192   0.578  53.149  0.00  0.00    +0.034 A 
ATOM     41  C   UNL     1      22.579   0.459  53.335  0.00  0.00    -0.040 A 
ATOM     42  C   UNL     1      23.106  -0.627  54.039  0.00  0.00    -0.060 A 
ATOM     43  C   UNL     1      22.253  -1.589  54.586  0.00  0.00    -0.062 A 
ATOM     44  C   UNL     1      20.874  -1.474  54.417  0.00  0.00    -0.060 A 
ATOM     45  C   UNL     1      20.339  -0.394  53.704  0.00  0.00    -0.040 A 
ENDBRANCH  38  40
ENDBRANCH  27  36
BRANCH  30  46
ATOM     46  N   UNL     1      14.743   1.722  52.710  0.00  0.00    +0.056 N 
ATOM     47  O   UNL     1      14.917   0.515  52.976  0.00  0.00    -0.126 OA
ATOM     48  O   UNL     1      13.707   2.400  53.321  0.00  0.00    -0.126 OA
ENDBRANCH  30  46
ENDBRANCH  25  26
ENDBRANCH   1  25
TORSDOF 9
ENDMDL
MODEL 4
REMARK VINA RESULT:    -9.975      2.555      9.095
REMARK INTER + INTRA:         -17.321
REMARK INTER:                 -14.996
REMARK INTRA:                  -2.325
REMARK UNBOUND:                -2.098
REMARK  Name = 
REMARK  11 active torsions:
REMARK  status: ('A' for Active; 'I' for Inactive)
REMARK    1  A    between atoms: C_1  and  N_2
REMARK    2  A    between atoms: C_3  and  S_4
REMARK    3  A    between atoms: S_4  and  S_5
REMARK    4  A    between atoms: S_5  and  C_6
REMARK    5  A    between atoms: C_7  and  C_8
REMARK    6  A    between atoms: N_10  and  C_11
REMARK    7  A    between atoms: C_19  and  N_20
REMARK    8  A    between atoms: N_26  and  C_27
REMARK    9  A    between atoms: C_28  and  C_29
REMARK   10  A    between atoms: N_31  and  C_32
REMARK   11  A    between atoms: C_40  and  N_41
REMARK                            x       y       z     vdW  Elec       q    Type
REMARK                         _______ _______ _______ _____ _____    ______ ____
ROOT
ATOM      1  S   UNL     1      22.052   2.110  50.236  0.00  0.00    -0.032 S 
ENDROOT
BRANCH   1   4
ATOM      2  C   UNL     1      21.585   4.458  48.019  0.00  0.00    +0.013 C 
ATOM      3  N   UNL     1      22.766   4.442  48.884  0.00  0.00    -0.337 N 
ATOM      4  C   UNL     1      23.056   3.549  49.866  0.00  0.00    +0.100 A 
ATOM      5  C   UNL     1      24.340   3.770  50.357  0.00  0.00    +0.077 A 
ATOM      6  C   UNL     1      24.836   4.837  49.641  0.00  0.00    +0.015 A 
ATOM      7  C   UNL     1      26.091   5.446  49.669  0.00  0.00    -0.022 A 
ATOM      8  C   UNL     1      26.345   6.504  48.766  0.00  0.00    +0.127 A 
ATOM      9  C   UNL     1      25.321   6.915  47.874  0.00  0.00    -0.030 A 
ATOM     10  C   UNL     1      24.067   6.283  47.876  0.00  0.00    -0.035 A 
ATOM     11  C   UNL     1      23.857   5.229  48.766  0.00  0.00    +0.051 A 
BRANCH   5  12
ATOM     12  C   UNL     1      25.048   2.988  51.379  0.00  0.00    +0.251 C 
ATOM     13  O   UNL     1      24.629   3.011  52.575  0.00  0.00    -0.270 OA
ATOM     14  N   UNL     1      26.186   2.193  51.015  0.00  0.00    -0.281 N 
ATOM     15  H   UNL     1      26.387   2.070  50.059  0.00  0.00    +0.000 HD
BRANCH  14  16
ATOM     16  C   UNL     1      27.042   1.566  51.984  0.00  0.00    +0.034 A 
ATOM     17  C   UNL     1      27.165   0.166  52.001  0.00  0.00    -0.040 A 
ATOM     18  C   UNL     1      27.993  -0.460  52.936  0.00  0.00    -0.060 A 
ATOM     19  C   UNL     1      28.723   0.307  53.846  0.00  0.00    -0.062 A 
ATOM     20  C   UNL     1      28.630   1.701  53.816  0.00  0.00    -0.060 A 
ATOM     21  C   UNL     1      27.797   2.335  52.888  0.00  0.00    -0.040 A 
ENDBRANCH  14  16
ENDBRANCH   5  12
BRANCH   8  22
ATOM     22  N   UNL     1      27.634   7.145  48.736  0.00  0.00    +0.056 N 
ATOM     23  O   UNL     1      28.648   6.526  48.349  0.00  0.00    -0.126 OA
ATOM     24  O   UNL     1      27.771   8.457  49.132  0.00  0.00    -0.126 OA
ENDBRANCH   8  22
ENDBRANCH   1   4
BRANCH   1  25
ATOM     25  S   UNL     1      20.768   3.087  51.627  0.00  0.00    -0.032 S 
BRANCH  25  26
ATOM     26  C   UNL     1      19.523   1.789  51.560  0.00  0.00    +0.100 A 
ATOM     27  C   UNL     1      19.405   0.735  52.466  0.00  0.00    +0.077 A 
ATOM     28  C   UNL     1      18.292   0.023  52.068  0.00  0.00    +0.015 A 
ATOM     29  C   UNL     1      17.679  -1.093  52.629  0.00  0.00    -0.022 A 
ATOM     30  C   UNL     1      16.506  -1.591  52.013  0.00  0.00    +0.127 A 
ATOM     31  C   UNL     1      16.006  -0.958  50.845  0.00  0.00    -0.030 A 
ATOM     32  C   UNL     1      16.654   0.162  50.301  0.00  0.00    -0.035 A 
ATOM     33  C   UNL     1      17.799   0.634  50.944  0.00  0.00    +0.051 A 
ATOM     34  N   UNL     1      18.554   1.703  50.610  0.00  0.00    -0.337 N 
ATOM     35  C   UNL     1      18.307   2.620  49.496  0.00  0.00    +0.013 C 
BRANCH  27  36
ATOM     36  C   UNL     1      20.371   0.324  53.490  0.00  0.00    +0.251 C 
ATOM     37  O   UNL     1      20.287   0.800  54.650  0.00  0.00    -0.270 OA
ATOM     38  N   UNL     1      21.377  -0.646  53.182  0.00  0.00    -0.281 N 
ATOM     39  H   UNL     1      21.235  -1.232  52.404  0.00  0.00    +0.000 HD
BRANCH  38  40
ATOM     40  C   UNL     1      22.584  -0.814  53.945  0.00  0.00    +0.034 A 
ATOM     41  C   UNL     1      23.771  -0.194  53.521  0.00  0.00    -0.040 A 
ATOM     42  C   UNL     1      24.942  -0.322  54.272  0.00  0.00    -0.060 A 
ATOM     43  C   UNL     1      24.933  -1.047  55.467  0.00  0.00    -0.062 A 
ATOM     44  C   UNL     1      23.757  -1.658  55.902  0.00  0.00    -0.060 A 
ATOM     45  C   UNL     1      22.582  -1.542  55.149  0.00  0.00    -0.040 A 
ENDBRANCH  38  40
ENDBRANCH  27  36
BRANCH  30  46
ATOM     46  N   UNL     1      15.809  -2.720  52.573  0.00  0.00    +0.056 N 
ATOM     47  O   UNL     1      14.574  -2.836  52.438  0.00  0.00    -0.126 OA
ATOM     48  O   UNL     1      16.508  -3.710  53.234  0.00  0.00    -0.126 OA
ENDBRANCH  30  46
ENDBRANCH  25  26
ENDBRANCH   1  25
TORSDOF 9
ENDMDL
MODEL 5
REMARK VINA RESULT:    -9.571      3.149      9.330
REMARK INTER + INTRA:         -16.705
REMARK INTER:                 -13.619
REMARK INTRA:                  -3.086
REMARK UNBOUND:                -2.098
REMARK  Name = 
REMARK  11 active torsions:
REMARK  status: ('A' for Active; 'I' for Inactive)
REMARK    1  A    between atoms: C_1  and  N_2
REMARK    2  A    between atoms: C_3  and  S_4
REMARK    3  A    between atoms: S_4  and  S_5
REMARK    4  A    between atoms: S_5  and  C_6
REMARK    5  A    between atoms: C_7  and  C_8
REMARK    6  A    between atoms: N_10  and  C_11
REMARK    7  A    between atoms: C_19  and  N_20
REMARK    8  A    between atoms: N_26  and  C_27
REMARK    9  A    between atoms: C_28  and  C_29
REMARK   10  A    between atoms: N_31  and  C_32
REMARK   11  A    between atoms: C_40  and  N_41
REMARK                            x       y       z     vdW  Elec       q    Type
REMARK                         _______ _______ _______ _____ _____    ______ ____
ROOT
ATOM      1  S   UNL     1      20.752   1.894  52.511  0.00  0.00    -0.032 S 
ENDROOT
BRANCH   1   4
ATOM      2  C   UNL     1      22.115  -0.958  53.319  0.00  0.00    +0.013 C 
ATOM      3  N   UNL     1      22.925   0.230  53.044  0.00  0.00    -0.337 N 
ATOM      4  C   UNL     1      22.485   1.457  52.662  0.00  0.00    +0.100 A 
ATOM      5  C   UNL     1      23.538   2.368  52.653  0.00  0.00    +0.077 A 
ATOM      6  C   UNL     1      24.651   1.657  53.045  0.00  0.00    +0.015 A 
ATOM      7  C   UNL     1      25.963   2.073  53.269  0.00  0.00    -0.022 A 
ATOM      8  C   UNL     1      26.902   1.121  53.729  0.00  0.00    +0.127 A 
ATOM      9  C   UNL     1      26.484  -0.219  53.938  0.00  0.00    -0.030 A 
ATOM     10  C   UNL     1      25.155  -0.606  53.696  0.00  0.00    -0.035 A 
ATOM     11  C   UNL     1      24.251   0.364  53.262  0.00  0.00    +0.051 A 
BRANCH   5  12
ATOM     12  C   UNL     1      23.469   3.804  52.355  0.00  0.00    +0.251 C 
ATOM     13  O   UNL     1      23.572   4.638  53.305  0.00  0.00    -0.270 OA
ATOM     14  N   UNL     1      23.310   4.251  51.001  0.00  0.00    -0.281 N 
ATOM     15  H   UNL     1      23.394   3.592  50.275  0.00  0.00    +0.000 HD
BRANCH  14  16
ATOM     16  C   UNL     1      23.035   5.619  50.658  0.00  0.00    +0.034 A 
ATOM     17  C   UNL     1      23.987   6.360  49.936  0.00  0.00    -0.040 A 
ATOM     18  C   UNL     1      23.737   7.691  49.595  0.00  0.00    -0.060 A 
ATOM     19  C   UNL     1      22.525   8.286  49.949  0.00  0.00    -0.062 A 
ATOM     20  C   UNL     1      21.560   7.548  50.640  0.00  0.00    -0.060 A 
ATOM     21  C   UNL     1      21.807   6.218  50.993  0.00  0.00    -0.040 A 
ENDBRANCH  14  16
ENDBRANCH   5  12
BRANCH   8  22
ATOM     22  N   UNL     1      28.261   1.508  54.003  0.00  0.00    +0.056 N 
ATOM     23  O   UNL     1      28.709   2.601  53.595  0.00  0.00    -0.126 OA
ATOM     24  O   UNL     1      29.091   0.680  54.726  0.00  0.00    -0.126 OA
ENDBRANCH   8  22
ENDBRANCH   1   4
BRANCH   1  25
ATOM     25  S   UNL     1      20.422   0.860  50.678  0.00  0.00    -0.032 S 
BRANCH  25  26
ATOM     26  C   UNL     1      20.265   2.376  49.721  0.00  0.00    +0.100 A 
ATOM     27  C   UNL     1      19.195   3.268  49.790  0.00  0.00    +0.077 A 
ATOM     28  C   UNL     1      19.516   4.304  48.937  0.00  0.00    +0.015 A 
ATOM     29  C   UNL     1      18.840   5.485  48.648  0.00  0.00    -0.022 A 
ATOM     30  C   UNL     1      19.442   6.395  47.746  0.00  0.00    +0.127 A 
ATOM     31  C   UNL     1      20.692   6.073  47.156  0.00  0.00    -0.030 A 
ATOM     32  C   UNL     1      21.343   4.868  47.464  0.00  0.00    -0.035 A 
ATOM     33  C   UNL     1      20.727   4.003  48.369  0.00  0.00    +0.051 A 
ATOM     34  N   UNL     1      21.187   2.817  48.823  0.00  0.00    -0.337 N 
ATOM     35  C   UNL     1      22.464   2.194  48.472  0.00  0.00    +0.013 C 
BRANCH  27  36
ATOM     36  C   UNL     1      17.899   3.060  50.445  0.00  0.00    +0.251 C 
ATOM     37  O   UNL     1      17.296   1.968  50.295  0.00  0.00    -0.270 OA
ATOM     38  N   UNL     1      17.345   4.078  51.285  0.00  0.00    -0.281 N 
ATOM     39  H   UNL     1      17.952   4.764  51.646  0.00  0.00    +0.000 HD
BRANCH  38  40
ATOM     40  C   UNL     1      15.953   4.156  51.633  0.00  0.00    +0.034 A 
ATOM     41  C   UNL     1      14.981   4.198  50.620  0.00  0.00    -0.040 A 
ATOM     42  C   UNL     1      13.623   4.239  50.946  0.00  0.00    -0.060 A 
ATOM     43  C   UNL     1      13.222   4.210  52.284  0.00  0.00    -0.062 A 
ATOM     44  C   UNL     1      14.179   4.157  53.297  0.00  0.00    -0.060 A 
ATOM     45  C   UNL     1      15.542   4.126  52.978  0.00  0.00    -0.040 A 
ENDBRANCH  38  40
ENDBRANCH  27  36
BRANCH  30  46
ATOM     46  N   UNL     1      18.805   7.650  47.441  0.00  0.00    +0.056 N 
ATOM     47  O   UNL     1      19.484   8.681  47.258  0.00  0.00    -0.126 OA
ATOM     48  O   UNL     1      17.433   7.718  47.305  0.00  0.00    -0.126 OA
ENDBRANCH  30  46
ENDBRANCH  25  26
ENDBRANCH   1  25
TORSDOF 9
ENDMDL
MODEL 6
REMARK VINA RESULT:    -9.394      1.131      1.505
REMARK INTER + INTRA:         -16.434
REMARK INTER:                 -14.221
REMARK INTRA:                  -2.213
REMARK UNBOUND:                -2.098
REMARK  Name = 
REMARK  11 active torsions:
REMARK  status: ('A' for Active; 'I' for Inactive)
REMARK    1  A    between atoms: C_1  and  N_2
REMARK    2  A    between atoms: C_3  and  S_4
REMARK    3  A    between atoms: S_4  and  S_5
REMARK    4  A    between atoms: S_5  and  C_6
REMARK    5  A    between atoms: C_7  and  C_8
REMARK    6  A    between atoms: N_10  and  C_11
REMARK    7  A    between atoms: C_19  and  N_20
REMARK    8  A    between atoms: N_26  and  C_27
REMARK    9  A    between atoms: C_28  and  C_29
REMARK   10  A    between atoms: N_31  and  C_32
REMARK   11  A    between atoms: C_40  and  N_41
REMARK                            x       y       z     vdW  Elec       q    Type
REMARK                         _______ _______ _______ _____ _____    ______ ____
ROOT
ATOM      1  S   UNL     1      22.216   4.662  50.763  0.00  0.00    -0.032 S 
ENDROOT
BRANCH   1   4
ATOM      2  C   UNL     1      19.666   6.349  49.626  0.00  0.00    +0.013 C 
ATOM      3  N   UNL     1      19.543   4.945  50.023  0.00  0.00    -0.337 N 
ATOM      4  C   UNL     1      20.530   4.126  50.471  0.00  0.00    +0.100 A 
ATOM      5  C   UNL     1      19.995   2.914  50.899  0.00  0.00    +0.077 A 
ATOM      6  C   UNL     1      18.636   3.012  50.699  0.00  0.00    +0.015 A 
ATOM      7  C   UNL     1      17.607   2.122  51.002  0.00  0.00    -0.022 A 
ATOM      8  C   UNL     1      16.275   2.517  50.732  0.00  0.00    +0.127 A 
ATOM      9  C   UNL     1      16.033   3.791  50.157  0.00  0.00    -0.030 A 
ATOM     10  C   UNL     1      17.095   4.660  49.858  0.00  0.00    -0.035 A 
ATOM     11  C   UNL     1      18.394   4.247  50.156  0.00  0.00    +0.051 A 
BRANCH   5  12
ATOM     12  C   UNL     1      20.719   1.787  51.503  0.00  0.00    +0.251 C 
ATOM     13  O   UNL     1      21.354   0.987  50.753  0.00  0.00    -0.270 OA
ATOM     14  N   UNL     1      20.720   1.614  52.927  0.00  0.00    -0.281 N 
ATOM     15  H   UNL     1      20.355   2.336  53.489  0.00  0.00    +0.000 HD
BRANCH  14  16
ATOM     16  C   UNL     1      21.231   0.436  53.570  0.00  0.00    +0.034 A 
ATOM     17  C   UNL     1      20.373  -0.649  53.819  0.00  0.00    -0.040 A 
ATOM     18  C   UNL     1      20.853  -1.802  54.445  0.00  0.00    -0.060 A 
ATOM     19  C   UNL     1      22.200  -1.892  54.804  0.00  0.00    -0.062 A 
ATOM     20  C   UNL     1      23.067  -0.830  54.532  0.00  0.00    -0.060 A 
ATOM     21  C   UNL     1      22.591   0.331  53.915  0.00  0.00    -0.040 A 
ENDBRANCH  14  16
ENDBRANCH   5  12
BRANCH   8  22
ATOM     22  N   UNL     1      15.175   1.645  51.055  0.00  0.00    +0.056 N 
ATOM     23  O   UNL     1      14.526   1.074  50.154  0.00  0.00    -0.126 OA
ATOM     24  O   UNL     1      14.823   1.423  52.369  0.00  0.00    -0.126 OA
ENDBRANCH   8  22
ENDBRANCH   1   4
BRANCH   1  25
ATOM     25  S   UNL     1      23.067   3.625  49.107  0.00  0.00    -0.032 S 
BRANCH  25  26
ATOM     26  C   UNL     1      24.363   4.849  48.862  0.00  0.00    +0.100 A 
ATOM     27  C   UNL     1      25.722   4.645  49.095  0.00  0.00    +0.077 A 
ATOM     28  C   UNL     1      26.346   5.818  48.724  0.00  0.00    +0.015 A 
ATOM     29  C   UNL     1      27.694   6.162  48.700  0.00  0.00    -0.022 A 
ATOM     30  C   UNL     1      28.047   7.448  48.225  0.00  0.00    +0.127 A 
ATOM     31  C   UNL     1      27.028   8.345  47.811  0.00  0.00    -0.030 A 
ATOM     32  C   UNL     1      25.676   7.969  47.856  0.00  0.00    -0.035 A 
ATOM     33  C   UNL     1      25.367   6.688  48.315  0.00  0.00    +0.051 A 
ATOM     34  N   UNL     1      24.148   6.115  48.414  0.00  0.00    -0.337 N 
ATOM     35  C   UNL     1      22.875   6.725  48.027  0.00  0.00    +0.013 C 
BRANCH  27  36
ATOM     36  C   UNL     1      26.350   3.518  49.794  0.00  0.00    +0.251 C 
ATOM     37  O   UNL     1      26.855   2.579  49.129  0.00  0.00    -0.270 OA
ATOM     38  N   UNL     1      26.425   3.509  51.223  0.00  0.00    -0.281 N 
ATOM     39  H   UNL     1      26.328   4.365  51.699  0.00  0.00    +0.000 HD
BRANCH  38  40
ATOM     40  C   UNL     1      26.634   2.320  52.004  0.00  0.00    +0.034 A 
ATOM     41  C   UNL     1      25.801   1.205  51.816  0.00  0.00    -0.040 A 
ATOM     42  C   UNL     1      26.016   0.033  52.544  0.00  0.00    -0.060 A 
ATOM     43  C   UNL     1      27.080  -0.047  53.446  0.00  0.00    -0.062 A 
ATOM     44  C   UNL     1      27.920   1.051  53.632  0.00  0.00    -0.060 A 
ATOM     45  C   UNL     1      27.704   2.232  52.913  0.00  0.00    -0.040 A 
ENDBRANCH  38  40
ENDBRANCH  27  36
BRANCH  30  46
ATOM     46  N   UNL     1      29.429   7.843  48.142  0.00  0.00    +0.056 N 
ATOM     47  O   UNL     1      29.933   8.585  49.010  0.00  0.00    -0.126 OA
ATOM     48  O   UNL     1      30.227   7.370  47.119  0.00  0.00    -0.126 OA
ENDBRANCH  30  46
ENDBRANCH  25  26
ENDBRANCH   1  25
TORSDOF 9
ENDMDL
MODEL 7
REMARK VINA RESULT:    -9.355      1.920      9.680
REMARK INTER + INTRA:         -16.375
REMARK INTER:                 -14.076
REMARK INTRA:                  -2.299
REMARK UNBOUND:                -2.098
REMARK  Name = 
REMARK  11 active torsions:
REMARK  status: ('A' for Active; 'I' for Inactive)
REMARK    1  A    between atoms: C_1  and  N_2
REMARK    2  A    between atoms: C_3  and  S_4
REMARK    3  A    between atoms: S_4  and  S_5
REMARK    4  A    between atoms: S_5  and  C_6
REMARK    5  A    between atoms: C_7  and  C_8
REMARK    6  A    between atoms: N_10  and  C_11
REMARK    7  A    between atoms: C_19  and  N_20
REMARK    8  A    between atoms: N_26  and  C_27
REMARK    9  A    between atoms: C_28  and  C_29
REMARK   10  A    between atoms: N_31  and  C_32
REMARK   11  A    between atoms: C_40  and  N_41
REMARK                            x       y       z     vdW  Elec       q    Type
REMARK                         _______ _______ _______ _____ _____    ______ ____
ROOT
ATOM      1  S   UNL     1      23.644   4.375  50.413  0.00  0.00    -0.032 S 
ENDROOT
BRANCH   1   4
ATOM      2  C   UNL     1      26.475   3.056  49.469  0.00  0.00    +0.013 C 
ATOM      3  N   UNL     1      26.169   4.469  49.234  0.00  0.00    -0.337 N 
ATOM      4  C   UNL     1      25.019   5.124  49.540  0.00  0.00    +0.100 A 
ATOM      5  C   UNL     1      25.165   6.490  49.309  0.00  0.00    +0.077 A 
ATOM      6  C   UNL     1      26.452   6.656  48.847  0.00  0.00    +0.015 A 
ATOM      7  C   UNL     1      27.157   7.813  48.517  0.00  0.00    -0.022 A 
ATOM      8  C   UNL     1      28.508   7.687  48.117  0.00  0.00    +0.127 A 
ATOM      9  C   UNL     1      29.095   6.397  48.057  0.00  0.00    -0.030 A 
ATOM     10  C   UNL     1      28.354   5.251  48.391  0.00  0.00    -0.035 A 
ATOM     11  C   UNL     1      27.030   5.415  48.800  0.00  0.00    +0.051 A 
BRANCH   5  12
ATOM     12  C   UNL     1      24.178   7.546  49.569  0.00  0.00    +0.251 C 
ATOM     13  O   UNL     1      24.337   8.308  50.570  0.00  0.00    -0.270 OA
ATOM     14  N   UNL     1      23.063   7.722  48.684  0.00  0.00    -0.281 N 
ATOM     15  H   UNL     1      23.053   7.224  47.835  0.00  0.00    +0.000 HD
BRANCH  14  16
ATOM     16  C   UNL     1      21.960   8.593  48.982  0.00  0.00    +0.034 A 
ATOM     17  C   UNL     1      21.940   9.895  48.454  0.00  0.00    -0.040 A 
ATOM     18  C   UNL     1      20.876  10.756  48.734  0.00  0.00    -0.060 A 
ATOM     19  C   UNL     1      19.811  10.315  49.522  0.00  0.00    -0.062 A 
ATOM     20  C   UNL     1      19.808   9.012  50.026  0.00  0.00    -0.060 A 
ATOM     21  C   UNL     1      20.874   8.148  49.757  0.00  0.00    -0.040 A 
ENDBRANCH  14  16
ENDBRANCH   5  12
BRANCH   8  22
ATOM     22  N   UNL     1      29.286   8.855  47.795  0.00  0.00    +0.056 N 
ATOM     23  O   UNL     1      28.793   9.787  47.125  0.00  0.00    -0.126 OA
ATOM     24  O   UNL     1      30.590   8.966  48.226  0.00  0.00    -0.126 OA
ENDBRANCH   8  22
ENDBRANCH   1   4
BRANCH   1  25
ATOM     25  S   UNL     1      22.882   3.297  48.741  0.00  0.00    -0.032 S 
BRANCH  25  26
ATOM     26  C   UNL     1      21.175   3.419  49.298  0.00  0.00    +0.100 A 
ATOM     27  C   UNL     1      20.615   2.697  50.352  0.00  0.00    +0.077 A 
ATOM     28  C   UNL     1      19.314   3.144  50.461  0.00  0.00    +0.015 A 
ATOM     29  C   UNL     1      18.312   2.808  51.366  0.00  0.00    -0.022 A 
ATOM     30  C   UNL     1      17.065   3.470  51.258  0.00  0.00    +0.127 A 
ATOM     31  C   UNL     1      16.870   4.430  50.230  0.00  0.00    -0.030 A 
ATOM     32  C   UNL     1      17.900   4.739  49.328  0.00  0.00    -0.035 A 
ATOM     33  C   UNL     1      19.120   4.078  49.476  0.00  0.00    +0.051 A 
ATOM     34  N   UNL     1      20.243   4.240  48.744  0.00  0.00    -0.337 N 
ATOM     35  C   UNL     1      20.423   5.182  47.637  0.00  0.00    +0.013 C 
BRANCH  27  36
ATOM     36  C   UNL     1      21.195   1.549  51.057  0.00  0.00    +0.251 C 
ATOM     37  O   UNL     1      21.070   0.396  50.572  0.00  0.00    -0.270 OA
ATOM     38  N   UNL     1      21.936   1.745  52.265  0.00  0.00    -0.281 N 
ATOM     39  H   UNL     1      22.295   2.643  52.450  0.00  0.00    +0.000 HD
BRANCH  38  40
ATOM     40  C   UNL     1      22.187   0.705  53.225  0.00  0.00    +0.034 A 
ATOM     41  C   UNL     1      21.123   0.168  53.967  0.00  0.00    -0.040 A 
ATOM     42  C   UNL     1      21.350  -0.867  54.878  0.00  0.00    -0.060 A 
ATOM     43  C   UNL     1      22.634  -1.393  55.037  0.00  0.00    -0.062 A 
ATOM     44  C   UNL     1      23.696  -0.874  54.297  0.00  0.00    -0.060 A 
ATOM     45  C   UNL     1      23.478   0.170  53.389  0.00  0.00    -0.040 A 
ENDBRANCH  38  40
ENDBRANCH  27  36
BRANCH  30  46
ATOM     46  N   UNL     1      16.005   3.190  52.191  0.00  0.00    +0.056 N 
ATOM     47  O   UNL     1      15.554   4.089  52.930  0.00  0.00    -0.126 OA
ATOM     48  O   UNL     1      15.447   1.929  52.251  0.00  0.00    -0.126 OA
ENDBRANCH  30  46
ENDBRANCH  25  26
ENDBRANCH   1  25
TORSDOF 9
ENDMDL
MODEL 8
REMARK VINA RESULT:    -9.264      3.157      9.031
REMARK INTER + INTRA:         -16.236
REMARK INTER:                 -14.366
REMARK INTRA:                  -1.869
REMARK UNBOUND:                -2.098
REMARK  Name = 
REMARK  11 active torsions:
REMARK  status: ('A' for Active; 'I' for Inactive)
REMARK    1  A    between atoms: C_1  and  N_2
REMARK    2  A    between atoms: C_3  and  S_4
REMARK    3  A    between atoms: S_4  and  S_5
REMARK    4  A    between atoms: S_5  and  C_6
REMARK    5  A    between atoms: C_7  and  C_8
REMARK    6  A    between atoms: N_10  and  C_11
REMARK    7  A    between atoms: C_19  and  N_20
REMARK    8  A    between atoms: N_26  and  C_27
REMARK    9  A    between atoms: C_28  and  C_29
REMARK   10  A    between atoms: N_31  and  C_32
REMARK   11  A    between atoms: C_40  and  N_41
REMARK                            x       y       z     vdW  Elec       q    Type
REMARK                         _______ _______ _______ _____ _____    ______ ____
ROOT
ATOM      1  S   UNL     1      21.307   1.489  50.892  0.00  0.00    -0.032 S 
ENDROOT
BRANCH   1   4
ATOM      2  C   UNL     1      21.719  -0.719  53.259  0.00  0.00    +0.013 C 
ATOM      3  N   UNL     1      22.845   0.036  52.708  0.00  0.00    -0.337 N 
ATOM      4  C   UNL     1      22.813   0.948  51.701  0.00  0.00    +0.100 A 
ATOM      5  C   UNL     1      24.053   1.567  51.569  0.00  0.00    +0.077 A 
ATOM      6  C   UNL     1      24.858   1.003  52.534  0.00  0.00    +0.015 A 
ATOM      7  C   UNL     1      26.175   1.284  52.897  0.00  0.00    -0.022 A 
ATOM      8  C   UNL     1      26.739   0.574  53.982  0.00  0.00    +0.127 A 
ATOM      9  C   UNL     1      25.957  -0.399  54.656  0.00  0.00    -0.030 A 
ATOM     10  C   UNL     1      24.635  -0.662  54.260  0.00  0.00    -0.035 A 
ATOM     11  C   UNL     1      24.104   0.072  53.198  0.00  0.00    +0.051 A 
BRANCH   5  12
ATOM     12  C   UNL     1      24.413   2.647  50.641  0.00  0.00    +0.251 C 
ATOM     13  O   UNL     1      23.805   2.738  49.533  0.00  0.00    -0.270 OA
ATOM     14  N   UNL     1      25.426   3.597  51.001  0.00  0.00    -0.281 N 
ATOM     15  H   UNL     1      25.764   3.596  51.926  0.00  0.00    +0.000 HD
BRANCH  14  16
ATOM     16  C   UNL     1      25.968   4.550  50.073  0.00  0.00    +0.034 A 
ATOM     17  C   UNL     1      25.375   5.819  49.954  0.00  0.00    -0.040 A 
ATOM     18  C   UNL     1      25.888   6.758  49.055  0.00  0.00    -0.060 A 
ATOM     19  C   UNL     1      27.012   6.447  48.287  0.00  0.00    -0.062 A 
ATOM     20  C   UNL     1      27.626   5.199  48.421  0.00  0.00    -0.060 A 
ATOM     21  C   UNL     1      27.113   4.251  49.312  0.00  0.00    -0.040 A 
ENDBRANCH  14  16
ENDBRANCH   5  12
BRANCH   8  22
ATOM     22  N   UNL     1      28.085   0.849  54.414  0.00  0.00    +0.056 N 
ATOM     23  O   UNL     1      28.700   0.043  55.144  0.00  0.00    -0.126 OA
ATOM     24  O   UNL     1      28.720   2.008  54.024  0.00  0.00    -0.126 OA
ENDBRANCH   8  22
ENDBRANCH   1   4
BRANCH   1  25
ATOM     25  S   UNL     1      20.601   2.678  52.514  0.00  0.00    -0.032 S 
BRANCH  25  26
ATOM     26  C   UNL     1      20.725   4.216  51.588  0.00  0.00    +0.100 A 
ATOM     27  C   UNL     1      19.793   4.676  50.657  0.00  0.00    +0.077 A 
ATOM     28  C   UNL     1      20.258   5.907  50.241  0.00  0.00    +0.015 A 
ATOM     29  C   UNL     1      19.710   6.834  49.360  0.00  0.00    -0.022 A 
ATOM     30  C   UNL     1      20.404   8.050  49.153  0.00  0.00    +0.127 A 
ATOM     31  C   UNL     1      21.633   8.277  49.825  0.00  0.00    -0.030 A 
ATOM     32  C   UNL     1      22.162   7.316  50.702  0.00  0.00    -0.035 A 
ATOM     33  C   UNL     1      21.442   6.137  50.893  0.00  0.00    +0.051 A 
ATOM     34  N   UNL     1      21.750   5.102  51.704  0.00  0.00    -0.337 N 
ATOM     35  C   UNL     1      22.914   5.014  52.587  0.00  0.00    +0.013 C 
BRANCH  27  36
ATOM     36  C   UNL     1      18.677   3.931  50.067  0.00  0.00    +0.251 C 
ATOM     37  O   UNL     1      18.810   3.407  48.932  0.00  0.00    -0.270 OA
ATOM     38  N   UNL     1      17.457   3.763  50.797  0.00  0.00    -0.281 N 
ATOM     39  H   UNL     1      17.479   3.886  51.773  0.00  0.00    +0.000 HD
BRANCH  38  40
ATOM     40  C   UNL     1      16.201   3.424  50.185  0.00  0.00    +0.034 A 
ATOM     41  C   UNL     1      15.488   4.399  49.468  0.00  0.00    -0.040 A 
ATOM     42  C   UNL     1      14.283   4.072  48.840  0.00  0.00    -0.060 A 
ATOM     43  C   UNL     1      13.793   2.765  48.900  0.00  0.00    -0.062 A 
ATOM     44  C   UNL     1      14.499   1.788  49.600  0.00  0.00    -0.060 A 
ATOM     45  C   UNL     1      15.702   2.110  50.240  0.00  0.00    -0.040 A 
ENDBRANCH  38  40
ENDBRANCH  27  36
BRANCH  30  46
ATOM     46  N   UNL     1      19.863   9.061  48.282  0.00  0.00    +0.056 N 
ATOM     47  O   UNL     1      19.038   8.762  47.394  0.00  0.00    -0.126 OA
ATOM     48  O   UNL     1      20.222  10.384  48.446  0.00  0.00    -0.126 OA
ENDBRANCH  30  46
ENDBRANCH  25  26
ENDBRANCH   1  25
TORSDOF 9
ENDMDL
MODEL 9
REMARK VINA RESULT:    -9.181      1.965      4.696
REMARK INTER + INTRA:         -16.109
REMARK INTER:                 -14.182
REMARK INTRA:                  -1.926
REMARK UNBOUND:                -2.098
REMARK  Name = 
REMARK  11 active torsions:
REMARK  status: ('A' for Active; 'I' for Inactive)
REMARK    1  A    between atoms: C_1  and  N_2
REMARK    2  A    between atoms: C_3  and  S_4
REMARK    3  A    between atoms: S_4  and  S_5
REMARK    4  A    between atoms: S_5  and  C_6
REMARK    5  A    between atoms: C_7  and  C_8
REMARK    6  A    between atoms: N_10  and  C_11
REMARK    7  A    between atoms: C_19  and  N_20
REMARK    8  A    between atoms: N_26  and  C_27
REMARK    9  A    between atoms: C_28  and  C_29
REMARK   10  A    between atoms: N_31  and  C_32
REMARK   11  A    between atoms: C_40  and  N_41
REMARK                            x       y       z     vdW  Elec       q    Type
REMARK                         _______ _______ _______ _____ _____    ______ ____
ROOT
ATOM      1  S   UNL     1      22.666   3.491  51.953  0.00  0.00    -0.032 S 
ENDROOT
BRANCH   1   4
ATOM      2  C   UNL     1      23.467   0.822  53.652  0.00  0.00    +0.013 C 
ATOM      3  N   UNL     1      22.088   1.081  53.232  0.00  0.00    -0.337 N 
ATOM      4  C   UNL     1      21.621   2.167  52.561  0.00  0.00    +0.100 A 
ATOM      5  C   UNL     1      20.289   1.977  52.203  0.00  0.00    +0.077 A 
ATOM      6  C   UNL     1      19.946   0.731  52.680  0.00  0.00    +0.015 A 
ATOM      7  C   UNL     1      18.762   0.005  52.557  0.00  0.00    -0.022 A 
ATOM      8  C   UNL     1      18.711  -1.297  53.108  0.00  0.00    +0.127 A 
ATOM      9  C   UNL     1      19.854  -1.814  53.770  0.00  0.00    -0.030 A 
ATOM     10  C   UNL     1      21.029  -1.053  53.881  0.00  0.00    -0.035 A 
ATOM     11  C   UNL     1      21.051   0.219  53.308  0.00  0.00    +0.051 A 
BRANCH   5  12
ATOM     12  C   UNL     1      19.441   2.886  51.420  0.00  0.00    +0.251 C 
ATOM     13  O   UNL     1      18.769   3.776  52.022  0.00  0.00    -0.270 OA
ATOM     14  N   UNL     1      19.396   2.775  49.991  0.00  0.00    -0.281 N 
ATOM     15  H   UNL     1      20.046   2.185  49.544  0.00  0.00    +0.000 HD
BRANCH  14  16
ATOM     16  C   UNL     1      18.447   3.488  49.181  0.00  0.00    +0.034 A 
ATOM     17  C   UNL     1      17.254   2.857  48.789  0.00  0.00    -0.040 A 
ATOM     18  C   UNL     1      16.321   3.535  48.001  0.00  0.00    -0.060 A 
ATOM     19  C   UNL     1      16.560   4.857  47.620  0.00  0.00    -0.062 A 
ATOM     20  C   UNL     1      17.729   5.502  48.031  0.00  0.00    -0.060 A 
ATOM     21  C   UNL     1      18.672   4.827  48.812  0.00  0.00    -0.040 A 
ENDBRANCH  14  16
ENDBRANCH   5  12
BRANCH   8  22
ATOM     22  N   UNL     1      17.520  -2.097  52.981  0.00  0.00    +0.056 N 
ATOM     23  O   UNL     1      17.475  -3.254  53.451  0.00  0.00    -0.126 OA
ATOM     24  O   UNL     1      16.408  -1.597  52.342  0.00  0.00    -0.126 OA
ENDBRANCH   8  22
ENDBRANCH   1   4
BRANCH   1  25
ATOM     25  S   UNL     1      23.089   2.591  50.069  0.00  0.00    -0.032 S 
BRANCH  25  26
ATOM     26  C   UNL     1      24.142   3.948  49.531  0.00  0.00    +0.100 A 
ATOM     27  C   UNL     1      25.537   3.938  49.533  0.00  0.00    +0.077 A 
ATOM     28  C   UNL     1      25.919   5.149  48.993  0.00  0.00    +0.015 A 
ATOM     29  C   UNL     1      27.183   5.660  48.713  0.00  0.00    -0.022 A 
ATOM     30  C   UNL     1      27.268   6.938  48.111  0.00  0.00    +0.127 A 
ATOM     31  C   UNL     1      26.080   7.661  47.833  0.00  0.00    -0.030 A 
ATOM     32  C   UNL     1      24.820   7.120  48.136  0.00  0.00    -0.035 A 
ATOM     33  C   UNL     1      24.775   5.851  48.714  0.00  0.00    +0.051 A 
ATOM     34  N   UNL     1      23.681   5.137  49.057  0.00  0.00    -0.337 N 
ATOM     35  C   UNL     1      22.288   5.546  48.867  0.00  0.00    +0.013 C 
BRANCH  27  36
ATOM     36  C   UNL     1      26.423   2.961  50.173  0.00  0.00    +0.251 C 
ATOM     37  O   UNL     1      26.878   2.002  49.500  0.00  0.00    -0.270 OA
ATOM     38  N   UNL     1      26.802   3.121  51.543  0.00  0.00    -0.281 N 
ATOM     39  H   UNL     1      26.712   4.013  51.949  0.00  0.00    +0.000 HD
BRANCH  38  40
ATOM     40  C   UNL     1      27.307   2.053  52.362  0.00  0.00    +0.034 A 
ATOM     41  C   UNL     1      26.813   0.749  52.193  0.00  0.00    -0.040 A 
ATOM     42  C   UNL     1      27.320  -0.303  52.960  0.00  0.00    -0.060 A 
ATOM     43  C   UNL     1      28.344  -0.069  53.881  0.00  0.00    -0.062 A 
ATOM     44  C   UNL     1      28.850   1.220  54.049  0.00  0.00    -0.060 A 
ATOM     45  C   UNL     1      28.339   2.281  53.291  0.00  0.00    -0.040 A 
ENDBRANCH  38  40
ENDBRANCH  27  36
BRANCH  30  46
ATOM     46  N   UNL     1      28.549   7.499  47.764  0.00  0.00    +0.056 N 
ATOM     47  O   UNL     1      28.624   8.554  47.103  0.00  0.00    -0.126 OA
ATOM     48  O   UNL     1      29.713   6.894  48.196  0.00  0.00    -0.126 OA
ENDBRANCH  30  46
ENDBRANCH  25  26
ENDBRANCH   1  25
TORSDOF 9
ENDMDL
