MODEL 1
REMARK VINA RESULT:    -8.191      0.000      0.000
REMARK INTER + INTRA:         -12.551
REMARK INTER:                 -11.543
REMARK INTRA:                  -1.008
REMARK UNBOUND:                -1.008
REMARK  Name = 
REMARK  9 active torsions:
REMARK  status: ('A' for Active; 'I' for Inactive)
REMARK    1  A    between atoms: C_1  and  O_2
REMARK    2  A    between atoms: O_2  and  C_3
REMARK    3  A    between atoms: C_6  and  N_7
REMARK    4  A    between atoms: N_7  and  C_8
REMARK    5  A    between atoms: C_21  and  O_22
REMARK    6  A    between atoms: O_22  and  C_23
REMARK    7  A    between atoms: C_23  and  C_24
REMARK    8  A    between atoms: C_24  and  N_25
REMARK    9  A    between atoms: N_28  and  C_29
REMARK                            x       y       z     vdW  Elec       q    Type
REMARK                         _______ _______ _______ _____ _____    ______ ____
ROOT
ATOM      1  C   UNL     1      24.617   4.156  50.526  0.00  0.00    +0.162 A 
ATOM      2  C   UNL     1      24.035   3.299  51.482  0.00  0.00    -0.004 A 
ATOM      3  C   UNL     1      24.704   2.137  51.903  0.00  0.00    +0.044 A 
ATOM      4  C   UNL     1      24.164   1.240  52.851  0.00  0.00    +0.134 A 
ATOM      5  N   UNL     1      24.863   0.118  53.178  0.00  0.00    -0.220 NA
ATOM      6  C   UNL     1      26.064  -0.163  52.614  0.00  0.00    +0.119 A 
ATOM      7  N   UNL     1      26.606   0.687  51.706  0.00  0.00    -0.235 NA
ATOM      8  C   UNL     1      25.959   1.824  51.338  0.00  0.00    +0.080 A 
ATOM      9  C   UNL     1      26.539   2.675  50.394  0.00  0.00    +0.010 A 
ATOM     10  C   UNL     1      25.871   3.844  49.981  0.00  0.00    +0.164 A 
ENDROOT
BRANCH   1  12
ATOM     11  C   UNL     1      23.918   6.542  50.827  0.00  0.00    +0.079 C 
ATOM     12  O   UNL     1      23.977   5.327  50.088  0.00  0.00    -0.491 OA
ENDBRANCH   1  12
BRANCH   4  13
ATOM     13  N   UNL     1      22.922   1.512  53.522  0.00  0.00    -0.297 N 
ATOM     14  H   UNL     1      22.923   2.158  54.266  0.00  0.00    +0.000 HD
BRANCH  13  15
ATOM     15  C   UNL     1      21.677   0.889  53.160  0.00  0.00    +0.068 A 
ATOM     16  C   UNL     1      20.987   1.268  51.993  0.00  0.00    -0.036 A 
ATOM     17  C   UNL     1      19.765   0.673  51.669  0.00  0.00    -0.041 A 
ATOM     18  C   UNL     1      19.213  -0.299  52.508  0.00  0.00    +0.044 A 
ATOM     19 CL   UNL     1      17.677  -1.042  52.101  0.00  0.00    -0.083 Cl
ATOM     20  C   UNL     1      19.882  -0.671  53.677  0.00  0.00    -0.006 A 
ATOM     21  C   UNL     1      21.105  -0.078  54.008  0.00  0.00    +0.146 A 
ATOM     22  F   UNL     1      21.738  -0.454  55.147  0.00  0.00    -0.203 F 
ENDBRANCH  13  15
ENDBRANCH   4  13
BRANCH  10  23
ATOM     23  O   UNL     1      26.417   4.725  49.032  0.00  0.00    -0.487 OA
BRANCH  23  24
ATOM     24  C   UNL     1      27.809   4.923  48.783  0.00  0.00    +0.102 C 
BRANCH  24  25
ATOM     25  C   UNL     1      28.042   6.246  48.044  0.00  0.00    +0.033 C 
BRANCH  25  26
ATOM     26  N   UNL     1      28.247   7.352  49.006  0.00  0.00    -0.297 N 
ATOM     27  C   UNL     1      26.981   8.073  49.235  0.00  0.00    +0.012 C 
ATOM     28  C   UNL     1      27.181   9.190  50.270  0.00  0.00    +0.011 C 
ATOM     29  N   UNL     1      28.262  10.123  49.892  0.00  0.00    -0.303 N 
ATOM     30  C   UNL     1      27.844  11.073  48.846  0.00  0.00    -0.013 C 
ATOM     31  C   UNL     1      29.507   9.410  49.543  0.00  0.00    +0.011 C 
ATOM     32  C   UNL     1      29.272   8.295  48.514  0.00  0.00    +0.012 C 
ATOM     33  H   UNL     1      28.569   6.948  49.886  0.00  0.00    +0.000 HD
ATOM     34  H   UNL     1      28.467  10.686  50.718  0.00  0.00    +0.000 HD
ENDBRANCH  25  26
ENDBRANCH  24  25
ENDBRANCH  23  24
ENDBRANCH  10  23
TORSDOF 7
ENDMDL
MODEL 2
REMARK VINA RESULT:    -8.153      6.098      9.962
REMARK INTER + INTRA:         -12.497
REMARK INTER:                 -11.742
REMARK INTRA:                  -0.755
REMARK UNBOUND:                -1.008
REMARK  Name = 
REMARK  9 active torsions:
REMARK  status: ('A' for Active; 'I' for Inactive)
REMARK    1  A    between atoms: C_1  and  O_2
REMARK    2  A    between atoms: O_2  and  C_3
REMARK    3  A    between atoms: C_6  and  N_7
REMARK    4  A    between atoms: N_7  and  C_8
REMARK    5  A    between atoms: C_21  and  O_22
REMARK    6  A    between atoms: O_22  and  C_23
REMARK    7  A    between atoms: C_23  and  C_24
REMARK    8  A    between atoms: C_24  and  N_25
REMARK    9  A    between atoms: N_28  and  C_29
REMARK                            x       y       z     vdW  Elec       q    Type
REMARK                         _______ _______ _______ _____ _____    ______ ____
ROOT
ATOM      1  C   UNL     1      20.175   0.753  51.190  0.00  0.00    +0.162 A 
ATOM      2  C   UNL     1      21.508   0.709  51.648  0.00  0.00    -0.004 A 
ATOM      3  C   UNL     1      21.843  -0.016  52.805  0.00  0.00    +0.044 A 
ATOM      4  C   UNL     1      23.160  -0.088  53.311  0.00  0.00    +0.134 A 
ATOM      5  N   UNL     1      23.393  -0.783  54.459  0.00  0.00    -0.220 NA
ATOM      6  C   UNL     1      22.393  -1.406  55.130  0.00  0.00    +0.119 A 
ATOM      7  N   UNL     1      21.121  -1.357  54.659  0.00  0.00    -0.235 NA
ATOM      8  C   UNL     1      20.823  -0.681  53.519  0.00  0.00    +0.080 A 
ATOM      9  C   UNL     1      19.503  -0.641  53.064  0.00  0.00    +0.010 A 
ATOM     10  C   UNL     1      19.171   0.077  51.899  0.00  0.00    +0.164 A 
ENDROOT
BRANCH   1  12
ATOM     11  C   UNL     1      20.651   1.665  48.907  0.00  0.00    +0.079 C 
ATOM     12  O   UNL     1      19.807   1.463  50.035  0.00  0.00    -0.491 OA
ENDBRANCH   1  12
BRANCH   4  13
ATOM     13  N   UNL     1      24.268   0.506  52.614  0.00  0.00    -0.297 N 
ATOM     14  H   UNL     1      24.077   1.162  51.904  0.00  0.00    +0.000 HD
BRANCH  13  15
ATOM     15  C   UNL     1      25.642   0.191  52.903  0.00  0.00    +0.068 A 
ATOM     16  C   UNL     1      26.213  -1.023  52.477  0.00  0.00    -0.036 A 
ATOM     17  C   UNL     1      27.541  -1.327  52.788  0.00  0.00    -0.041 A 
ATOM     18  C   UNL     1      28.310  -0.430  53.535  0.00  0.00    +0.044 A 
ATOM     19 CL   UNL     1      29.976  -0.814  53.927  0.00  0.00    -0.083 Cl
ATOM     20  C   UNL     1      27.747   0.771  53.976  0.00  0.00    -0.006 A 
ATOM     21  C   UNL     1      26.418   1.080  53.668  0.00  0.00    +0.146 A 
ATOM     22  F   UNL     1      25.891   2.252  54.105  0.00  0.00    -0.203 F 
ENDBRANCH  13  15
ENDBRANCH   4  13
BRANCH  10  23
ATOM     23  O   UNL     1      17.855   0.146  51.408  0.00  0.00    -0.487 OA
BRANCH  23  24
ATOM     24  C   UNL     1      16.670  -0.095  52.167  0.00  0.00    +0.102 C 
BRANCH  24  25
ATOM     25  C   UNL     1      15.489   0.691  51.586  0.00  0.00    +0.033 C 
BRANCH  25  26
ATOM     26  N   UNL     1      14.967   1.657  52.578  0.00  0.00    -0.297 N 
ATOM     27  C   UNL     1      13.498   1.557  52.665  0.00  0.00    +0.012 C 
ATOM     28  C   UNL     1      12.958   2.525  53.729  0.00  0.00    +0.011 C 
ATOM     29  N   UNL     1      13.381   3.920  53.490  0.00  0.00    -0.303 N 
ATOM     30  C   UNL     1      12.609   4.565  52.413  0.00  0.00    -0.013 C 
ATOM     31  C   UNL     1      14.839   4.024  53.280  0.00  0.00    +0.011 C 
ATOM     32  C   UNL     1      15.348   3.038  52.218  0.00  0.00    +0.012 C 
ATOM     33  H   UNL     1      15.376   1.430  53.484  0.00  0.00    +0.000 HD
ATOM     34  H   UNL     1      13.168   4.442  54.340  0.00  0.00    +0.000 HD
ENDBRANCH  25  26
ENDBRANCH  24  25
ENDBRANCH  23  24
ENDBRANCH  10  23
TORSDOF 7
ENDMDL
MODEL 3
REMARK VINA RESULT:    -8.058      5.036      8.808
REMARK INTER + INTRA:         -12.365
REMARK INTER:                 -11.385
REMARK INTRA:                  -0.980
REMARK UNBOUND:                -1.008
REMARK  Name = 
REMARK  9 active torsions:
REMARK  status: ('A' for Active; 'I' for Inactive)
REMARK    1  A    between atoms: C_1  and  O_2
REMARK    2  A    between atoms: O_2  and  C_3
REMARK    3  A    between atoms: C_6  and  N_7
REMARK    4  A    between atoms: N_7  and  C_8
REMARK    5  A    between atoms: C_21  and  O_22
REMARK    6  A    between atoms: O_22  and  C_23
REMARK    7  A    between atoms: C_23  and  C_24
REMARK    8  A    between atoms: C_24  and  N_25
REMARK    9  A    between atoms: N_28  and  C_29
REMARK                            x       y       z     vdW  Elec       q    Type
REMARK                         _______ _______ _______ _____ _____    ______ ____
ROOT
ATOM      1  C   UNL     1      21.829   0.744  53.097  0.00  0.00    +0.162 A 
ATOM      2  C   UNL     1      23.143   1.249  53.018  0.00  0.00    -0.004 A 
ATOM      3  C   UNL     1      23.582   1.924  51.866  0.00  0.00    +0.044 A 
ATOM      4  C   UNL     1      24.889   2.443  51.731  0.00  0.00    +0.134 A 
ATOM      5  N   UNL     1      25.244   3.054  50.567  0.00  0.00    -0.220 NA
ATOM      6  C   UNL     1      24.376   3.175  49.532  0.00  0.00    +0.119 A 
ATOM      7  N   UNL     1      23.114   2.691  49.642  0.00  0.00    -0.235 NA
ATOM      8  C   UNL     1      22.697   2.072  50.777  0.00  0.00    +0.080 A 
ATOM      9  C   UNL     1      21.393   1.576  50.856  0.00  0.00    +0.010 A 
ATOM     10  C   UNL     1      20.952   0.908  52.014  0.00  0.00    +0.164 A 
ENDROOT
BRANCH   1  12
ATOM     11  C   UNL     1      21.915  -1.135  54.751  0.00  0.00    +0.079 C 
ATOM     12  O   UNL     1      21.358   0.069  54.235  0.00  0.00    -0.491 OA
ENDBRANCH   1  12
BRANCH   4  13
ATOM     13  N   UNL     1      25.834   2.393  52.813  0.00  0.00    -0.297 N 
ATOM     14  H   UNL     1      25.827   3.122  53.476  0.00  0.00    +0.000 HD
BRANCH  13  15
ATOM     15  C   UNL     1      26.789   1.330  52.978  0.00  0.00    +0.068 A 
ATOM     16  C   UNL     1      26.450  -0.004  52.681  0.00  0.00    -0.036 A 
ATOM     17  C   UNL     1      27.379  -1.030  52.871  0.00  0.00    -0.041 A 
ATOM     18  C   UNL     1      28.653  -0.739  53.368  0.00  0.00    +0.044 A 
ATOM     19 CL   UNL     1      29.817  -2.028  53.610  0.00  0.00    -0.083 Cl
ATOM     20  C   UNL     1      28.995   0.580  53.681  0.00  0.00    -0.006 A 
ATOM     21  C   UNL     1      28.067   1.610  53.494  0.00  0.00    +0.146 A 
ATOM     22  F   UNL     1      28.420   2.883  53.803  0.00  0.00    -0.203 F 
ENDBRANCH  13  15
ENDBRANCH   4  13
BRANCH  10  23
ATOM     23  O   UNL     1      19.651   0.391  52.134  0.00  0.00    -0.487 OA
BRANCH  23  24
ATOM     24  C   UNL     1      18.750   0.144  51.054  0.00  0.00    +0.102 C 
BRANCH  24  25
ATOM     25  C   UNL     1      17.350   0.671  51.388  0.00  0.00    +0.033 C 
BRANCH  25  26
ATOM     26  N   UNL     1      17.305   2.146  51.267  0.00  0.00    -0.297 N 
ATOM     27  C   UNL     1      16.085   2.674  51.905  0.00  0.00    +0.012 C 
ATOM     28  C   UNL     1      16.060   4.208  51.823  0.00  0.00    +0.011 C 
ATOM     29  N   UNL     1      16.190   4.702  50.437  0.00  0.00    -0.303 N 
ATOM     30  C   UNL     1      14.937   4.572  49.674  0.00  0.00    -0.013 C 
ATOM     31  C   UNL     1      17.341   4.091  49.742  0.00  0.00    +0.011 C 
ATOM     32  C   UNL     1      17.342   2.559  49.849  0.00  0.00    +0.012 C 
ATOM     33  H   UNL     1      18.125   2.526  51.740  0.00  0.00    +0.000 HD
ATOM     34  H   UNL     1      16.380   5.703  50.498  0.00  0.00    +0.000 HD
ENDBRANCH  25  26
ENDBRANCH  24  25
ENDBRANCH  23  24
ENDBRANCH  10  23
TORSDOF 7
ENDMDL
MODEL 4
REMARK VINA RESULT:    -7.951      6.002     10.261
REMARK INTER + INTRA:         -12.213
REMARK INTER:                 -11.405
REMARK INTRA:                  -0.808
REMARK UNBOUND:                -1.008
REMARK  Name = 
REMARK  9 active torsions:
REMARK  status: ('A' for Active; 'I' for Inactive)
REMARK    1  A    between atoms: C_1  and  O_2
REMARK    2  A    between atoms: O_2  and  C_3
REMARK    3  A    between atoms: C_6  and  N_7
REMARK    4  A    between atoms: N_7  and  C_8
REMARK    5  A    between atoms: C_21  and  O_22
REMARK    6  A    between atoms: O_22  and  C_23
REMARK    7  A    between atoms: C_23  and  C_24
REMARK    8  A    between atoms: C_24  and  N_25
REMARK    9  A    between atoms: N_28  and  C_29
REMARK                            x       y       z     vdW  Elec       q    Type
REMARK                         _______ _______ _______ _____ _____    ______ ____
ROOT
ATOM      1  C   UNL     1      20.689   0.819  51.018  0.00  0.00    +0.162 A 
ATOM      2  C   UNL     1      21.990   0.772  51.558  0.00  0.00    -0.004 A 
ATOM      3  C   UNL     1      22.245   0.074  52.751  0.00  0.00    +0.044 A 
ATOM      4  C   UNL     1      23.527   0.000  53.340  0.00  0.00    +0.134 A 
ATOM      5  N   UNL     1      23.680  -0.668  54.516  0.00  0.00    -0.220 NA
ATOM      6  C   UNL     1      22.633  -1.263  55.140  0.00  0.00    +0.119 A 
ATOM      7  N   UNL     1      21.394  -1.212  54.589  0.00  0.00    -0.235 NA
ATOM      8  C   UNL     1      21.175  -0.562  53.417  0.00  0.00    +0.080 A 
ATOM      9  C   UNL     1      19.886  -0.519  52.880  0.00  0.00    +0.010 A 
ATOM     10  C   UNL     1      19.635   0.173  51.680  0.00  0.00    +0.164 A 
ENDROOT
BRANCH   1  12
ATOM     11  C   UNL     1      21.138   2.620  49.336  0.00  0.00    +0.079 C 
ATOM     12  O   UNL     1      20.402   1.504  49.825  0.00  0.00    -0.491 OA
ENDBRANCH   1  12
BRANCH   4  13
ATOM     13  N   UNL     1      24.683   0.565  52.698  0.00  0.00    -0.297 N 
ATOM     14  H   UNL     1      24.547   1.276  52.031  0.00  0.00    +0.000 HD
BRANCH  13  15
ATOM     15  C   UNL     1      26.029   0.142  52.983  0.00  0.00    +0.068 A 
ATOM     16  C   UNL     1      26.512  -1.099  52.527  0.00  0.00    -0.036 A 
ATOM     17  C   UNL     1      27.812  -1.508  52.834  0.00  0.00    -0.041 A 
ATOM     18  C   UNL     1      28.640  -0.690  53.608  0.00  0.00    +0.044 A 
ATOM     19 CL   UNL     1      30.271  -1.207  53.996  0.00  0.00    -0.083 Cl
ATOM     20  C   UNL     1      28.164   0.536  54.080  0.00  0.00    -0.006 A 
ATOM     21  C   UNL     1      26.863   0.950  53.776  0.00  0.00    +0.146 A 
ATOM     22  F   UNL     1      26.422   2.145  54.243  0.00  0.00    -0.203 F 
ENDBRANCH  13  15
ENDBRANCH   4  13
BRANCH  10  23
ATOM     23  O   UNL     1      18.353   0.243  51.107  0.00  0.00    -0.487 OA
BRANCH  23  24
ATOM     24  C   UNL     1      17.230   0.929  51.662  0.00  0.00    +0.102 C 
BRANCH  24  25
ATOM     25  C   UNL     1      16.255  -0.066  52.302  0.00  0.00    +0.033 C 
BRANCH  25  26
ATOM     26  N   UNL     1      15.168   0.650  53.007  0.00  0.00    -0.297 N 
ATOM     27  C   UNL     1      13.915  -0.125  52.935  0.00  0.00    +0.012 C 
ATOM     28  C   UNL     1      12.798   0.593  53.709  0.00  0.00    +0.011 C 
ATOM     29  N   UNL     1      12.591   1.979  53.246  0.00  0.00    -0.303 N 
ATOM     30  C   UNL     1      11.847   2.043  51.975  0.00  0.00    -0.013 C 
ATOM     31  C   UNL     1      13.857   2.737  53.196  0.00  0.00    +0.011 C 
ATOM     32  C   UNL     1      14.955   1.991  52.425  0.00  0.00    +0.012 C 
ATOM     33  H   UNL     1      15.444   0.757  53.983  0.00  0.00    +0.000 HD
ATOM     34  H   UNL     1      12.001   2.437  53.940  0.00  0.00    +0.000 HD
ENDBRANCH  25  26
ENDBRANCH  24  25
ENDBRANCH  23  24
ENDBRANCH  10  23
TORSDOF 7
ENDMDL
MODEL 5
REMARK VINA RESULT:    -7.929      3.783      6.018
REMARK INTER + INTRA:         -12.182
REMARK INTER:                 -10.474
REMARK INTRA:                  -1.708
REMARK UNBOUND:                -1.008
REMARK  Name = 
REMARK  9 active torsions:
REMARK  status: ('A' for Active; 'I' for Inactive)
REMARK    1  A    between atoms: C_1  and  O_2
REMARK    2  A    between atoms: O_2  and  C_3
REMARK    3  A    between atoms: C_6  and  N_7
REMARK    4  A    between atoms: N_7  and  C_8
REMARK    5  A    between atoms: C_21  and  O_22
REMARK    6  A    between atoms: O_22  and  C_23
REMARK    7  A    between atoms: C_23  and  C_24
REMARK    8  A    between atoms: C_24  and  N_25
REMARK    9  A    between atoms: N_28  and  C_29
REMARK                            x       y       z     vdW  Elec       q    Type
REMARK                         _______ _______ _______ _____ _____    ______ ____
ROOT
ATOM      1  C   UNL     1      21.899   2.042  50.483  0.00  0.00    +0.162 A 
ATOM      2  C   UNL     1      22.708   1.182  51.253  0.00  0.00    -0.004 A 
ATOM      3  C   UNL     1      22.232   0.643  52.461  0.00  0.00    +0.044 A 
ATOM      4  C   UNL     1      23.003  -0.217  53.275  0.00  0.00    +0.134 A 
ATOM      5  N   UNL     1      22.479  -0.667  54.448  0.00  0.00    -0.220 NA
ATOM      6  C   UNL     1      21.237  -0.309  54.858  0.00  0.00    +0.119 A 
ATOM      7  N   UNL     1      20.476   0.511  54.090  0.00  0.00    -0.235 NA
ATOM      8  C   UNL     1      20.940   0.993  52.908  0.00  0.00    +0.080 A 
ATOM      9  C   UNL     1      20.136   1.842  52.144  0.00  0.00    +0.010 A 
ATOM     10  C   UNL     1      20.610   2.373  50.929  0.00  0.00    +0.164 A 
ENDROOT
BRANCH   1  12
ATOM     11  C   UNL     1      22.312   1.920  48.016  0.00  0.00    +0.079 C 
ATOM     12  O   UNL     1      22.342   2.593  49.269  0.00  0.00    -0.491 OA
ENDBRANCH   1  12
BRANCH   4  13
ATOM     13  N   UNL     1      24.303  -0.675  52.866  0.00  0.00    -0.297 N 
ATOM     14  H   UNL     1      24.362  -1.497  52.327  0.00  0.00    +0.000 HD
BRANCH  13  15
ATOM     15  C   UNL     1      25.523   0.011  53.204  0.00  0.00    +0.068 A 
ATOM     16  C   UNL     1      26.218   0.771  52.245  0.00  0.00    -0.036 A 
ATOM     17  C   UNL     1      27.415   1.409  52.580  0.00  0.00    -0.041 A 
ATOM     18  C   UNL     1      27.937   1.287  53.871  0.00  0.00    +0.044 A 
ATOM     19 CL   UNL     1      29.442   2.085  54.290  0.00  0.00    -0.083 Cl
ATOM     20  C   UNL     1      27.262   0.522  54.826  0.00  0.00    -0.006 A 
ATOM     21  C   UNL     1      26.064  -0.120  54.495  0.00  0.00    +0.146 A 
ATOM     22  F   UNL     1      25.425  -0.858  55.438  0.00  0.00    -0.203 F 
ENDBRANCH  13  15
ENDBRANCH   4  13
BRANCH  10  23
ATOM     23  O   UNL     1      19.836   3.233  50.131  0.00  0.00    -0.487 OA
BRANCH  23  24
ATOM     24  C   UNL     1      19.572   4.609  50.405  0.00  0.00    +0.102 C 
BRANCH  24  25
ATOM     25  C   UNL     1      20.326   5.509  49.418  0.00  0.00    +0.033 C 
BRANCH  25  26
ATOM     26  N   UNL     1      21.784   5.439  49.659  0.00  0.00    -0.297 N 
ATOM     27  C   UNL     1      22.094   5.848  51.042  0.00  0.00    +0.012 C 
ATOM     28  C   UNL     1      23.603   5.730  51.309  0.00  0.00    +0.011 C 
ATOM     29  N   UNL     1      24.410   6.494  50.337  0.00  0.00    -0.303 N 
ATOM     30  C   UNL     1      24.404   7.940  50.615  0.00  0.00    -0.013 C 
ATOM     31  C   UNL     1      24.030   6.185  48.944  0.00  0.00    +0.011 C 
ATOM     32  C   UNL     1      22.516   6.303  48.711  0.00  0.00    +0.012 C 
ATOM     33  H   UNL     1      22.081   4.473  49.518  0.00  0.00    +0.000 HD
ATOM     34  H   UNL     1      25.377   6.189  50.453  0.00  0.00    +0.000 HD
ENDBRANCH  25  26
ENDBRANCH  24  25
ENDBRANCH  23  24
ENDBRANCH  10  23
TORSDOF 7
ENDMDL
MODEL 6
REMARK VINA RESULT:    -7.782      3.796      5.743
REMARK INTER + INTRA:         -11.975
REMARK INTER:                 -10.720
REMARK INTRA:                  -1.254
REMARK UNBOUND:                -1.008
REMARK  Name = 
REMARK  9 active torsions:
REMARK  status: ('A' for Active; 'I' for Inactive)
REMARK    1  A    between atoms: C_1  and  O_2
REMARK    2  A    between atoms: O_2  and  C_3
REMARK    3  A    between atoms: C_6  and  N_7
REMARK    4  A    between atoms: N_7  and  C_8
REMARK    5  A    between atoms: C_21  and  O_22
REMARK    6  A    between atoms: O_22  and  C_23
REMARK    7  A    between atoms: C_23  and  C_24
REMARK    8  A    between atoms: C_24  and  N_25
REMARK    9  A    between atoms: N_28  and  C_29
REMARK                            x       y       z     vdW  Elec       q    Type
REMARK                         _______ _______ _______ _____ _____    ______ ____
ROOT
ATOM      1  C   UNL     1      23.813   3.143  49.426  0.00  0.00    +0.162 A 
ATOM      2  C   UNL     1      24.047   2.617  50.713  0.00  0.00    -0.004 A 
ATOM      3  C   UNL     1      23.177   1.658  51.262  0.00  0.00    +0.044 A 
ATOM      4  C   UNL     1      23.360   1.103  52.549  0.00  0.00    +0.134 A 
ATOM      5  N   UNL     1      22.450   0.206  53.020  0.00  0.00    -0.220 NA
ATOM      6  C   UNL     1      21.372  -0.167  52.287  0.00  0.00    +0.119 A 
ATOM      7  N   UNL     1      21.180   0.347  51.047  0.00  0.00    -0.235 NA
ATOM      8  C   UNL     1      22.051   1.246  50.519  0.00  0.00    +0.080 A 
ATOM      9  C   UNL     1      21.822   1.763  49.242  0.00  0.00    +0.010 A 
ATOM     10  C   UNL     1      22.699   2.716  48.689  0.00  0.00    +0.164 A 
ENDROOT
BRANCH   1  12
ATOM     11  C   UNL     1      25.940   4.464  49.362  0.00  0.00    +0.079 C 
ATOM     12  O   UNL     1      24.665   4.098  48.846  0.00  0.00    -0.491 OA
ENDBRANCH   1  12
BRANCH   4  13
ATOM     13  N   UNL     1      24.512   1.420  53.348  0.00  0.00    -0.297 N 
ATOM     14  H   UNL     1      24.461   2.192  53.958  0.00  0.00    +0.000 HD
BRANCH  13  15
ATOM     15  C   UNL     1      25.735   0.664  53.303  0.00  0.00    +0.068 A 
ATOM     16  C   UNL     1      25.738  -0.691  52.921  0.00  0.00    -0.036 A 
ATOM     17  C   UNL     1      26.930  -1.420  52.908  0.00  0.00    -0.041 A 
ATOM     18  C   UNL     1      28.130  -0.809  53.284  0.00  0.00    +0.044 A 
ATOM     19 CL   UNL     1      29.625  -1.727  53.270  0.00  0.00    -0.083 Cl
ATOM     20  C   UNL     1      28.135   0.531  53.680  0.00  0.00    -0.006 A 
ATOM     21  C   UNL     1      26.944   1.265  53.696  0.00  0.00    +0.146 A 
ATOM     22  F   UNL     1      26.973   2.565  54.083  0.00  0.00    -0.203 F 
ENDBRANCH  13  15
ENDBRANCH   4  13
BRANCH  10  23
ATOM     23  O   UNL     1      22.503   3.265  47.410  0.00  0.00    -0.487 OA
BRANCH  23  24
ATOM     24  C   UNL     1      22.077   4.599  47.133  0.00  0.00    +0.102 C 
BRANCH  24  25
ATOM     25  C   UNL     1      20.902   4.987  48.039  0.00  0.00    +0.033 C 
BRANCH  25  26
ATOM     26  N   UNL     1      21.255   6.151  48.882  0.00  0.00    -0.297 N 
ATOM     27  C   UNL     1      22.556   6.707  48.466  0.00  0.00    +0.012 C 
ATOM     28  C   UNL     1      22.903   7.945  49.308  0.00  0.00    +0.011 C 
ATOM     29  N   UNL     1      22.885   7.665  50.758  0.00  0.00    -0.303 N 
ATOM     30  C   UNL     1      24.086   6.940  51.206  0.00  0.00    -0.013 C 
ATOM     31  C   UNL     1      21.635   6.998  51.173  0.00  0.00    +0.011 C 
ATOM     32  C   UNL     1      21.312   5.770  50.308  0.00  0.00    +0.012 C 
ATOM     33  H   UNL     1      20.531   6.859  48.761  0.00  0.00    +0.000 HD
ATOM     34  H   UNL     1      22.908   8.568  51.233  0.00  0.00    +0.000 HD
ENDBRANCH  25  26
ENDBRANCH  24  25
ENDBRANCH  23  24
ENDBRANCH  10  23
TORSDOF 7
ENDMDL
MODEL 7
REMARK VINA RESULT:    -7.708      4.700      9.644
REMARK INTER + INTRA:         -11.870
REMARK INTER:                 -10.775
REMARK INTRA:                  -1.095
REMARK UNBOUND:                -1.008
REMARK  Name = 
REMARK  9 active torsions:
REMARK  status: ('A' for Active; 'I' for Inactive)
REMARK    1  A    between atoms: C_1  and  O_2
REMARK    2  A    between atoms: O_2  and  C_3
REMARK    3  A    between atoms: C_6  and  N_7
REMARK    4  A    between atoms: N_7  and  C_8
REMARK    5  A    between atoms: C_21  and  O_22
REMARK    6  A    between atoms: O_22  and  C_23
REMARK    7  A    between atoms: C_23  and  C_24
REMARK    8  A    between atoms: C_24  and  N_25
REMARK    9  A    between atoms: N_28  and  C_29
REMARK                            x       y       z     vdW  Elec       q    Type
REMARK                         _______ _______ _______ _____ _____    ______ ____
ROOT
ATOM      1  C   UNL     1      21.949   0.596  51.912  0.00  0.00    +0.162 A 
ATOM      2  C   UNL     1      23.210   1.138  52.235  0.00  0.00    -0.004 A 
ATOM      3  C   UNL     1      23.852   2.026  51.355  0.00  0.00    +0.044 A 
ATOM      4  C   UNL     1      25.119   2.593  51.625  0.00  0.00    +0.134 A 
ATOM      5  N   UNL     1      25.687   3.417  50.703  0.00  0.00    -0.220 NA
ATOM      6  C   UNL     1      25.071   3.708  49.530  0.00  0.00    +0.119 A 
ATOM      7  N   UNL     1      23.852   3.181  49.252  0.00  0.00    -0.235 NA
ATOM      8  C   UNL     1      23.231   2.352  50.131  0.00  0.00    +0.080 A 
ATOM      9  C   UNL     1      21.979   1.818  49.813  0.00  0.00    +0.010 A 
ATOM     10  C   UNL     1      21.332   0.937  50.699  0.00  0.00    +0.164 A 
ENDROOT
BRANCH   1  12
ATOM     11  C   UNL     1      20.673   0.080  54.005  0.00  0.00    +0.079 C 
ATOM     12  O   UNL     1      21.278  -0.291  52.771  0.00  0.00    -0.491 OA
ENDBRANCH   1  12
BRANCH   4  13
ATOM     13  N   UNL     1      25.794   2.365  52.873  0.00  0.00    -0.297 N 
ATOM     14  H   UNL     1      25.549   2.924  53.647  0.00  0.00    +0.000 HD
BRANCH  13  15
ATOM     15  C   UNL     1      26.809   1.361  53.049  0.00  0.00    +0.068 A 
ATOM     16  C   UNL     1      26.550   0.008  52.759  0.00  0.00    -0.036 A 
ATOM     17  C   UNL     1      27.537  -0.961  52.960  0.00  0.00    -0.041 A 
ATOM     18  C   UNL     1      28.788  -0.593  53.462  0.00  0.00    +0.044 A 
ATOM     19 CL   UNL     1      30.025  -1.810  53.718  0.00  0.00    -0.083 Cl
ATOM     20  C   UNL     1      29.051   0.745  53.769  0.00  0.00    -0.006 A 
ATOM     21  C   UNL     1      28.065   1.719  53.570  0.00  0.00    +0.146 A 
ATOM     22  F   UNL     1      28.341   3.012  53.874  0.00  0.00    -0.203 F 
ENDBRANCH  13  15
ENDBRANCH   4  13
BRANCH  10  23
ATOM     23  O   UNL     1      20.075   0.375  50.417  0.00  0.00    -0.487 OA
BRANCH  23  24
ATOM     24  C   UNL     1      18.874   1.106  50.170  0.00  0.00    +0.102 C 
BRANCH  24  25
ATOM     25  C   UNL     1      18.284   1.633  51.483  0.00  0.00    +0.033 C 
BRANCH  25  26
ATOM     26  N   UNL     1      16.948   1.045  51.729  0.00  0.00    -0.297 N 
ATOM     27  C   UNL     1      17.076  -0.376  52.105  0.00  0.00    +0.012 C 
ATOM     28  C   UNL     1      15.694  -0.975  52.407  0.00  0.00    +0.011 C 
ATOM     29  N   UNL     1      14.748  -0.807  51.287  0.00  0.00    -0.303 N 
ATOM     30  C   UNL     1      14.998  -1.760  50.191  0.00  0.00    -0.013 C 
ATOM     31  C   UNL     1      14.696   0.592  50.817  0.00  0.00    +0.011 C 
ATOM     32  C   UNL     1      16.092   1.165  50.531  0.00  0.00    +0.012 C 
ATOM     33  H   UNL     1      16.514   1.559  52.495  0.00  0.00    +0.000 HD
ATOM     34  H   UNL     1      13.820  -1.031  51.648  0.00  0.00    +0.000 HD
ENDBRANCH  25  26
ENDBRANCH  24  25
ENDBRANCH  23  24
ENDBRANCH  10  23
TORSDOF 7
ENDMDL
MODEL 8
REMARK VINA RESULT:    -7.519      5.448      9.523
REMARK INTER + INTRA:         -11.604
REMARK INTER:                 -10.489
REMARK INTRA:                  -1.115
REMARK UNBOUND:                -1.008
REMARK  Name = 
REMARK  9 active torsions:
REMARK  status: ('A' for Active; 'I' for Inactive)
REMARK    1  A    between atoms: C_1  and  O_2
REMARK    2  A    between atoms: O_2  and  C_3
REMARK    3  A    between atoms: C_6  and  N_7
REMARK    4  A    between atoms: N_7  and  C_8
REMARK    5  A    between atoms: C_21  and  O_22
REMARK    6  A    between atoms: O_22  and  C_23
REMARK    7  A    between atoms: C_23  and  C_24
REMARK    8  A    between atoms: C_24  and  N_25
REMARK    9  A    between atoms: N_28  and  C_29
REMARK                            x       y       z     vdW  Elec       q    Type
REMARK                         _______ _______ _______ _____ _____    ______ ____
ROOT
ATOM      1  C   UNL     1      21.826   2.310  51.043  0.00  0.00    +0.162 A 
ATOM      2  C   UNL     1      22.819   1.453  51.559  0.00  0.00    -0.004 A 
ATOM      3  C   UNL     1      22.567   0.674  52.702  0.00  0.00    +0.044 A 
ATOM      4  C   UNL     1      23.528  -0.196  53.265  0.00  0.00    +0.134 A 
ATOM      5  N   UNL     1      23.215  -0.889  54.395  0.00  0.00    -0.220 NA
ATOM      6  C   UNL     1      22.005  -0.764  54.995  0.00  0.00    +0.119 A 
ATOM      7  N   UNL     1      21.065   0.060  54.468  0.00  0.00    -0.235 NA
ATOM      8  C   UNL     1      21.314   0.778  53.342  0.00  0.00    +0.080 A 
ATOM      9  C   UNL     1      20.329   1.624  52.829  0.00  0.00    +0.010 A 
ATOM     10  C   UNL     1      20.579   2.396  51.678  0.00  0.00    +0.164 A 
ENDROOT
BRANCH   1  12
ATOM     11  C   UNL     1      23.042   2.842  48.918  0.00  0.00    +0.079 C 
ATOM     12  O   UNL     1      22.043   3.098  49.900  0.00  0.00    -0.491 OA
ENDBRANCH   1  12
BRANCH   4  13
ATOM     13  N   UNL     1      24.806  -0.410  52.642  0.00  0.00    -0.297 N 
ATOM     14  H   UNL     1      24.850  -1.001  51.856  0.00  0.00    +0.000 HD
BRANCH  13  15
ATOM     15  C   UNL     1      26.023   0.197  53.111  0.00  0.00    +0.068 A 
ATOM     16  C   UNL     1      26.630  -0.224  54.309  0.00  0.00    -0.036 A 
ATOM     17  C   UNL     1      27.798   0.393  54.766  0.00  0.00    -0.041 A 
ATOM     18  C   UNL     1      28.366   1.443  54.039  0.00  0.00    +0.044 A 
ATOM     19 CL   UNL     1      29.830   2.219  54.615  0.00  0.00    -0.083 Cl
ATOM     20  C   UNL     1      27.762   1.879  52.856  0.00  0.00    -0.006 A 
ATOM     21  C   UNL     1      26.593   1.265  52.395  0.00  0.00    +0.146 A 
ATOM     22  F   UNL     1      26.024   1.704  51.244  0.00  0.00    -0.203 F 
ENDBRANCH  13  15
ENDBRANCH   4  13
BRANCH  10  23
ATOM     23  O   UNL     1      19.617   3.263  51.131  0.00  0.00    -0.487 OA
BRANCH  23  24
ATOM     24  C   UNL     1      18.244   3.334  51.518  0.00  0.00    +0.102 C 
BRANCH  24  25
ATOM     25  C   UNL     1      17.437   2.215  50.849  0.00  0.00    +0.033 C 
BRANCH  25  26
ATOM     26  N   UNL     1      16.894   1.285  51.864  0.00  0.00    -0.297 N 
ATOM     27  C   UNL     1      17.384  -0.084  51.618  0.00  0.00    +0.012 C 
ATOM     28  C   UNL     1      16.861  -1.042  52.699  0.00  0.00    +0.011 C 
ATOM     29  N   UNL     1      15.389  -1.019  52.810  0.00  0.00    -0.303 N 
ATOM     30  C   UNL     1      14.731  -1.771  51.727  0.00  0.00    -0.013 C 
ATOM     31  C   UNL     1      14.869   0.357  52.937  0.00  0.00    +0.011 C 
ATOM     32  C   UNL     1      15.417   1.292  51.848  0.00  0.00    +0.012 C 
ATOM     33  H   UNL     1      17.213   1.598  52.781  0.00  0.00    +0.000 HD
ATOM     34  H   UNL     1      15.150  -1.504  53.675  0.00  0.00    +0.000 HD
ENDBRANCH  25  26
ENDBRANCH  24  25
ENDBRANCH  23  24
ENDBRANCH  10  23
TORSDOF 7
ENDMDL
MODEL 9
REMARK VINA RESULT:    -7.464      4.931      7.060
REMARK INTER + INTRA:         -11.527
REMARK INTER:                 -10.533
REMARK INTRA:                  -0.995
REMARK UNBOUND:                -1.008
REMARK  Name = 
REMARK  9 active torsions:
REMARK  status: ('A' for Active; 'I' for Inactive)
REMARK    1  A    between atoms: C_1  and  O_2
REMARK    2  A    between atoms: O_2  and  C_3
REMARK    3  A    between atoms: C_6  and  N_7
REMARK    4  A    between atoms: N_7  and  C_8
REMARK    5  A    between atoms: C_21  and  O_22
REMARK    6  A    between atoms: O_22  and  C_23
REMARK    7  A    between atoms: C_23  and  C_24
REMARK    8  A    between atoms: C_24  and  N_25
REMARK    9  A    between atoms: N_28  and  C_29
REMARK                            x       y       z     vdW  Elec       q    Type
REMARK                         _______ _______ _______ _____ _____    ______ ____
ROOT
ATOM      1  C   UNL     1      21.603   1.810  50.769  0.00  0.00    +0.162 A 
ATOM      2  C   UNL     1      20.241   1.459  50.863  0.00  0.00    -0.004 A 
ATOM      3  C   UNL     1      19.810   0.516  51.812  0.00  0.00    +0.044 A 
ATOM      4  C   UNL     1      18.459   0.122  51.945  0.00  0.00    +0.134 A 
ATOM      5  N   UNL     1      18.131  -0.826  52.866  0.00  0.00    -0.220 NA
ATOM      6  C   UNL     1      19.068  -1.404  53.658  0.00  0.00    +0.119 A 
ATOM      7  N   UNL     1      20.369  -1.037  53.553  0.00  0.00    -0.235 NA
ATOM      8  C   UNL     1      20.762  -0.096  52.655  0.00  0.00    +0.080 A 
ATOM      9  C   UNL     1      22.111   0.254  52.565  0.00  0.00    +0.010 A 
ATOM     10  C   UNL     1      22.540   1.207  51.621  0.00  0.00    +0.164 A 
ENDROOT
BRANCH   1  12
ATOM     11  C   UNL     1      22.307   2.480  48.461  0.00  0.00    +0.079 C 
ATOM     12  O   UNL     1      22.066   2.753  49.837  0.00  0.00    -0.491 OA
ENDBRANCH   1  12
BRANCH   4  13
ATOM     13  N   UNL     1      17.416   0.739  51.171  0.00  0.00    -0.297 N 
ATOM     14  H   UNL     1      17.351   0.518  50.213  0.00  0.00    +0.000 HD
BRANCH  13  15
ATOM     15  C   UNL     1      16.463   1.662  51.726  0.00  0.00    +0.068 A 
ATOM     16  C   UNL     1      16.719   3.046  51.746  0.00  0.00    -0.036 A 
ATOM     17  C   UNL     1      15.795   3.928  52.314  0.00  0.00    -0.041 A 
ATOM     18  C   UNL     1      14.613   3.439  52.876  0.00  0.00    +0.044 A 
ATOM     19 CL   UNL     1      13.456   4.548  53.591  0.00  0.00    -0.083 Cl
ATOM     20  C   UNL     1      14.356   2.065  52.876  0.00  0.00    -0.006 A 
ATOM     21  C   UNL     1      15.278   1.178  52.310  0.00  0.00    +0.146 A 
ATOM     22  F   UNL     1      15.009  -0.152  52.320  0.00  0.00    -0.203 F 
ENDBRANCH  13  15
ENDBRANCH   4  13
BRANCH  10  23
ATOM     23  O   UNL     1      23.888   1.586  51.495  0.00  0.00    -0.487 OA
BRANCH  23  24
ATOM     24  C   UNL     1      24.618   2.385  52.426  0.00  0.00    +0.102 C 
BRANCH  24  25
ATOM     25  C   UNL     1      26.125   2.147  52.275  0.00  0.00    +0.033 C 
BRANCH  25  26
ATOM     26  N   UNL     1      26.550   0.972  53.068  0.00  0.00    -0.297 N 
ATOM     27  C   UNL     1      27.702   1.320  53.920  0.00  0.00    +0.012 C 
ATOM     28  C   UNL     1      28.114   0.115  54.781  0.00  0.00    +0.011 C 
ATOM     29  N   UNL     1      28.397  -1.087  53.971  0.00  0.00    -0.303 N 
ATOM     30  C   UNL     1      29.712  -1.022  53.310  0.00  0.00    -0.013 C 
ATOM     31  C   UNL     1      27.303  -1.382  53.025  0.00  0.00    +0.011 C 
ATOM     32  C   UNL     1      26.909  -0.157  52.186  0.00  0.00    +0.012 C 
ATOM     33  H   UNL     1      25.766   0.691  53.658  0.00  0.00    +0.000 HD
ATOM     34  H   UNL     1      28.446  -1.873  54.619  0.00  0.00    +0.000 HD
ENDBRANCH  25  26
ENDBRANCH  24  25
ENDBRANCH  23  24
ENDBRANCH  10  23
TORSDOF 7
ENDMDL
