MODEL 1
REMARK VINA RESULT:    -8.524      0.000      0.000
REMARK INTER + INTRA:         -12.426
REMARK INTER:                 -11.515
REMARK INTRA:                  -0.911
REMARK UNBOUND:                -0.911
REMARK  Name = 
REMARK  8 active torsions:
REMARK  status: ('A' for Active; 'I' for Inactive)
REMARK    1  A    between atoms: C_1  and  O_2
REMARK    2  A    between atoms: O_2  and  C_3
REMARK    3  A    between atoms: C_6  and  N_7
REMARK    4  A    between atoms: N_7  and  C_8
REMARK    5  A    between atoms: C_22  and  O_23
REMARK    6  A    between atoms: O_23  and  C_24
REMARK    7  A    between atoms: C_24  and  C_25
REMARK    8  A    between atoms: N_28  and  C_29
REMARK                            x       y       z     vdW  Elec       q    Type
REMARK                         _______ _______ _______ _____ _____    ______ ____
ROOT
ATOM      1  C   UNL     1      21.643   1.406  52.834  0.00  0.00    +0.162 A 
ATOM      2  C   UNL     1      23.018   1.695  52.935  0.00  0.00    -0.004 A 
ATOM      3  C   UNL     1      23.703   2.301  51.866  0.00  0.00    +0.044 A 
ATOM      4  C   UNL     1      25.080   2.615  51.913  0.00  0.00    +0.134 A 
ATOM      5  N   UNL     1      25.674   3.162  50.817  0.00  0.00    -0.220 NA
ATOM      6  C   UNL     1      24.977   3.416  49.680  0.00  0.00    +0.119 A 
ATOM      7  N   UNL     1      23.654   3.133  49.616  0.00  0.00    -0.235 NA
ATOM      8  C   UNL     1      23.002   2.586  50.675  0.00  0.00    +0.080 A 
ATOM      9  C   UNL     1      21.639   2.299  50.573  0.00  0.00    +0.010 A 
ATOM     10  C   UNL     1      20.949   1.717  51.654  0.00  0.00    +0.164 A 
ENDROOT
BRANCH   1  12
ATOM     11  C   UNL     1      21.410  -0.260  54.689  0.00  0.00    +0.079 C 
ATOM     12  O   UNL     1      20.927   0.812  53.885  0.00  0.00    -0.491 OA
ENDBRANCH   1  12
BRANCH   4  13
ATOM     13  N   UNL     1      25.858   2.417  53.106  0.00  0.00    -0.294 N 
ATOM     14  H   UNL     1      25.704   3.015  53.873  0.00  0.00    +0.000 HD
BRANCH  13  15
ATOM     15  C   UNL     1      26.852   1.385  53.226  0.00  0.00    +0.104 A 
ATOM     16  C   UNL     1      26.510   0.024  53.085  0.00  0.00    +0.148 A 
ATOM     17  F   UNL     1      25.226  -0.349  52.860  0.00  0.00    -0.203 F 
ATOM     18  C   UNL     1      27.491  -0.964  53.220  0.00  0.00    -0.010 A 
ATOM     19  C   UNL     1      28.812  -0.609  53.506  0.00  0.00    +0.023 A 
ATOM     20 BR   UNL     1      30.146  -1.964  53.691  0.00  0.00    -0.050 Br
ATOM     21  C   UNL     1      29.154   0.736  53.669  0.00  0.00    -0.010 A 
ATOM     22  C   UNL     1      28.179   1.730  53.536  0.00  0.00    +0.148 A 
ATOM     23  F   UNL     1      28.532   3.031  53.692  0.00  0.00    -0.203 F 
ENDBRANCH  13  15
ENDBRANCH   4  13
BRANCH  10  24
ATOM     24  O   UNL     1      19.576   1.419  51.598  0.00  0.00    -0.488 OA
BRANCH  24  25
ATOM     25  C   UNL     1      18.937   0.615  50.605  0.00  0.00    +0.093 C 
BRANCH  25  26
ATOM     26  C   UNL     1      17.870  -0.300  51.235  0.00  0.00    -0.004 C 
ATOM     27  C   UNL     1      18.329  -0.798  52.611  0.00  0.00    -0.034 C 
ATOM     28  C   UNL     1      17.302  -1.781  53.208  0.00  0.00    -0.001 C 
ATOM     29  N   UNL     1      15.885  -1.409  52.957  0.00  0.00    -0.305 N 
ATOM     30  C   UNL     1      15.222  -2.317  52.005  0.00  0.00    -0.013 C 
ATOM     31  C   UNL     1      15.697   0.010  52.588  0.00  0.00    -0.001 C 
ATOM     32  C   UNL     1      16.500   0.413  51.335  0.00  0.00    -0.034 C 
ATOM     33  H   UNL     1      15.418  -1.523  53.857  0.00  0.00    +0.000 HD
ENDBRANCH  25  26
ENDBRANCH  24  25
ENDBRANCH  10  24
TORSDOF 6
ENDMDL
MODEL 2
REMARK VINA RESULT:    -8.430      4.639      9.479
REMARK INTER + INTRA:         -12.298
REMARK INTER:                 -10.968
REMARK INTRA:                  -1.330
REMARK UNBOUND:                -0.911
REMARK  Name = 
REMARK  8 active torsions:
REMARK  status: ('A' for Active; 'I' for Inactive)
REMARK    1  A    between atoms: C_1  and  O_2
REMARK    2  A    between atoms: O_2  and  C_3
REMARK    3  A    between atoms: C_6  and  N_7
REMARK    4  A    between atoms: N_7  and  C_8
REMARK    5  A    between atoms: C_22  and  O_23
REMARK    6  A    between atoms: O_23  and  C_24
REMARK    7  A    between atoms: C_24  and  C_25
REMARK    8  A    between atoms: N_28  and  C_29
REMARK                            x       y       z     vdW  Elec       q    Type
REMARK                         _______ _______ _______ _____ _____    ______ ____
ROOT
ATOM      1  C   UNL     1      22.402   1.584  50.579  0.00  0.00    +0.162 A 
ATOM      2  C   UNL     1      21.054   1.199  50.720  0.00  0.00    -0.004 A 
ATOM      3  C   UNL     1      20.640   0.437  51.828  0.00  0.00    +0.044 A 
ATOM      4  C   UNL     1      19.302   0.025  52.021  0.00  0.00    +0.134 A 
ATOM      5  N   UNL     1      18.994  -0.746  53.100  0.00  0.00    -0.220 NA
ATOM      6  C   UNL     1      19.939  -1.128  53.996  0.00  0.00    +0.119 A 
ATOM      7  N   UNL     1      21.226  -0.736  53.837  0.00  0.00    -0.235 NA
ATOM      8  C   UNL     1      21.598   0.034  52.782  0.00  0.00    +0.080 A 
ATOM      9  C   UNL     1      22.934   0.416  52.643  0.00  0.00    +0.010 A 
ATOM     10  C   UNL     1      23.343   1.200  51.547  0.00  0.00    +0.164 A 
ENDROOT
BRANCH   1  12
ATOM     11  C   UNL     1      22.379   2.210  48.154  0.00  0.00    +0.079 C 
ATOM     12  O   UNL     1      22.848   2.352  49.491  0.00  0.00    -0.491 OA
ENDBRANCH   1  12
BRANCH   4  13
ATOM     13  N   UNL     1      18.249   0.440  51.134  0.00  0.00    -0.294 N 
ATOM     14  H   UNL     1      18.271   0.131  50.199  0.00  0.00    +0.000 HD
BRANCH  13  15
ATOM     15  C   UNL     1      17.165   1.287  51.554  0.00  0.00    +0.104 A 
ATOM     16  C   UNL     1      17.296   2.691  51.557  0.00  0.00    +0.148 A 
ATOM     17  F   UNL     1      18.461   3.280  51.190  0.00  0.00    -0.203 F 
ATOM     18  C   UNL     1      16.233   3.494  51.981  0.00  0.00    -0.010 A 
ATOM     19  C   UNL     1      15.039   2.911  52.415  0.00  0.00    +0.023 A 
ATOM     20 BR   UNL     1      13.592   4.014  52.996  0.00  0.00    -0.050 Br
ATOM     21  C   UNL     1      14.910   1.520  52.436  0.00  0.00    -0.010 A 
ATOM     22  C   UNL     1      15.969   0.709  52.013  0.00  0.00    +0.148 A 
ATOM     23  F   UNL     1      15.821  -0.640  52.035  0.00  0.00    -0.203 F 
ENDBRANCH  13  15
ENDBRANCH   4  13
BRANCH  10  24
ATOM     24  O   UNL     1      24.675   1.612  51.372  0.00  0.00    -0.488 OA
BRANCH  24  25
ATOM     25  C   UNL     1      25.469   2.306  52.337  0.00  0.00    +0.093 C 
BRANCH  25  26
ATOM     26  C   UNL     1      26.583   1.399  52.893  0.00  0.00    -0.004 C 
ATOM     27  C   UNL     1      26.286   1.006  54.346  0.00  0.00    -0.034 C 
ATOM     28  C   UNL     1      27.440   0.169  54.933  0.00  0.00    -0.001 C 
ATOM     29  N   UNL     1      28.035  -0.803  53.978  0.00  0.00    -0.305 N 
ATOM     30  C   UNL     1      29.396  -0.423  53.559  0.00  0.00    -0.013 C 
ATOM     31  C   UNL     1      27.167  -1.112  52.822  0.00  0.00    -0.001 C 
ATOM     32  C   UNL     1      26.784   0.143  52.011  0.00  0.00    -0.034 C 
ATOM     33  H   UNL     1      28.114  -1.674  54.502  0.00  0.00    +0.000 HD
ENDBRANCH  25  26
ENDBRANCH  24  25
ENDBRANCH  10  24
TORSDOF 6
ENDMDL
MODEL 3
REMARK VINA RESULT:    -8.414      4.647      9.372
REMARK INTER + INTRA:         -12.277
REMARK INTER:                 -10.949
REMARK INTRA:                  -1.328
REMARK UNBOUND:                -0.911
REMARK  Name = 
REMARK  8 active torsions:
REMARK  status: ('A' for Active; 'I' for Inactive)
REMARK    1  A    between atoms: C_1  and  O_2
REMARK    2  A    between atoms: O_2  and  C_3
REMARK    3  A    between atoms: C_6  and  N_7
REMARK    4  A    between atoms: N_7  and  C_8
REMARK    5  A    between atoms: C_22  and  O_23
REMARK    6  A    between atoms: O_23  and  C_24
REMARK    7  A    between atoms: C_24  and  C_25
REMARK    8  A    between atoms: N_28  and  C_29
REMARK                            x       y       z     vdW  Elec       q    Type
REMARK                         _______ _______ _______ _____ _____    ______ ____
ROOT
ATOM      1  C   UNL     1      22.456   1.598  50.621  0.00  0.00    +0.162 A 
ATOM      2  C   UNL     1      21.104   1.226  50.754  0.00  0.00    -0.004 A 
ATOM      3  C   UNL     1      20.680   0.449  51.849  0.00  0.00    +0.044 A 
ATOM      4  C   UNL     1      19.337   0.049  52.034  0.00  0.00    +0.134 A 
ATOM      5  N   UNL     1      19.020  -0.737  53.099  0.00  0.00    -0.220 NA
ATOM      6  C   UNL     1      19.960  -1.146  53.989  0.00  0.00    +0.119 A 
ATOM      7  N   UNL     1      21.251  -0.765  53.837  0.00  0.00    -0.235 NA
ATOM      8  C   UNL     1      21.633   0.019  52.796  0.00  0.00    +0.080 A 
ATOM      9  C   UNL     1      22.974   0.387  52.664  0.00  0.00    +0.010 A 
ATOM     10  C   UNL     1      23.392   1.186  51.582  0.00  0.00    +0.164 A 
ENDROOT
BRANCH   1  12
ATOM     11  C   UNL     1      22.437   2.271  48.209  0.00  0.00    +0.079 C 
ATOM     12  O   UNL     1      22.911   2.380  49.547  0.00  0.00    -0.491 OA
ENDBRANCH   1  12
BRANCH   4  13
ATOM     13  N   UNL     1      18.290   0.493  51.155  0.00  0.00    -0.294 N 
ATOM     14  H   UNL     1      18.326   0.225  50.207  0.00  0.00    +0.000 HD
BRANCH  13  15
ATOM     15  C   UNL     1      17.192   1.309  51.598  0.00  0.00    +0.104 A 
ATOM     16  C   UNL     1      15.977   0.731  52.018  0.00  0.00    +0.148 A 
ATOM     17  F   UNL     1      15.800  -0.613  51.987  0.00  0.00    -0.203 F 
ATOM     18  C   UNL     1      14.918   1.546  52.433  0.00  0.00    -0.010 A 
ATOM     19  C   UNL     1      15.055   2.936  52.422  0.00  0.00    +0.023 A 
ATOM     20 BR   UNL     1      13.604   4.043  52.988  0.00  0.00    -0.050 Br
ATOM     21  C   UNL     1      16.249   3.517  51.987  0.00  0.00    -0.010 A 
ATOM     22  C   UNL     1      17.312   2.709  51.570  0.00  0.00    +0.148 A 
ATOM     23  F   UNL     1      18.465   3.293  51.157  0.00  0.00    -0.203 F 
ENDBRANCH  13  15
ENDBRANCH   4  13
BRANCH  10  24
ATOM     24  O   UNL     1      24.729   1.586  51.415  0.00  0.00    -0.488 OA
BRANCH  24  25
ATOM     25  C   UNL     1      25.523   2.274  52.384  0.00  0.00    +0.093 C 
BRANCH  25  26
ATOM     26  C   UNL     1      26.624   1.358  52.950  0.00  0.00    -0.004 C 
ATOM     27  C   UNL     1      26.303   0.957  54.396  0.00  0.00    -0.034 C 
ATOM     28  C   UNL     1      27.445   0.110  54.994  0.00  0.00    -0.001 C 
ATOM     29  N   UNL     1      28.048  -0.859  54.041  0.00  0.00    -0.305 N 
ATOM     30  C   UNL     1      29.417  -0.483  53.645  0.00  0.00    -0.013 C 
ATOM     31  C   UNL     1      27.196  -1.155  52.871  0.00  0.00    -0.001 C 
ATOM     32  C   UNL     1      26.831   0.107  52.063  0.00  0.00    -0.034 C 
ATOM     33  H   UNL     1      28.115  -1.734  54.561  0.00  0.00    +0.000 HD
ENDBRANCH  25  26
ENDBRANCH  24  25
ENDBRANCH  10  24
TORSDOF 6
ENDMDL
MODEL 4
REMARK VINA RESULT:    -7.994      2.344      3.855
REMARK INTER + INTRA:         -11.709
REMARK INTER:                 -10.748
REMARK INTRA:                  -0.961
REMARK UNBOUND:                -0.911
REMARK  Name = 
REMARK  8 active torsions:
REMARK  status: ('A' for Active; 'I' for Inactive)
REMARK    1  A    between atoms: C_1  and  O_2
REMARK    2  A    between atoms: O_2  and  C_3
REMARK    3  A    between atoms: C_6  and  N_7
REMARK    4  A    between atoms: N_7  and  C_8
REMARK    5  A    between atoms: C_22  and  O_23
REMARK    6  A    between atoms: O_23  and  C_24
REMARK    7  A    between atoms: C_24  and  C_25
REMARK    8  A    between atoms: N_28  and  C_29
REMARK                            x       y       z     vdW  Elec       q    Type
REMARK                         _______ _______ _______ _____ _____    ______ ____
ROOT
ATOM      1  C   UNL     1      19.952   0.510  51.256  0.00  0.00    +0.162 A 
ATOM      2  C   UNL     1      21.324   0.506  51.579  0.00  0.00    -0.004 A 
ATOM      3  C   UNL     1      21.781  -0.124  52.751  0.00  0.00    +0.044 A 
ATOM      4  C   UNL     1      23.144  -0.161  53.123  0.00  0.00    +0.134 A 
ATOM      5  N   UNL     1      23.496  -0.755  54.296  0.00  0.00    -0.220 NA
ATOM      6  C   UNL     1      22.572  -1.315  55.117  0.00  0.00    +0.119 A 
ATOM      7  N   UNL     1      21.261  -1.301  54.775  0.00  0.00    -0.235 NA
ATOM      8  C   UNL     1      20.844  -0.724  53.619  0.00  0.00    +0.080 A 
ATOM      9  C   UNL     1      19.484  -0.720  53.299  0.00  0.00    +0.010 A 
ATOM     10  C   UNL     1      19.031  -0.113  52.113  0.00  0.00    +0.164 A 
ENDROOT
BRANCH   1  12
ATOM     11  C   UNL     1      20.244   1.916  49.204  0.00  0.00    +0.079 C 
ATOM     12  O   UNL     1      19.463   1.120  50.090  0.00  0.00    -0.491 OA
ENDBRANCH   1  12
BRANCH   4  13
ATOM     13  N   UNL     1      24.173   0.370  52.271  0.00  0.00    -0.294 N 
ATOM     14  H   UNL     1      23.973   0.500  51.315  0.00  0.00    +0.000 HD
BRANCH  13  15
ATOM     15  C   UNL     1      25.482   0.719  52.753  0.00  0.00    +0.104 A 
ATOM     16  C   UNL     1      26.574  -0.160  52.599  0.00  0.00    +0.148 A 
ATOM     17  F   UNL     1      26.411  -1.374  52.016  0.00  0.00    -0.203 F 
ATOM     18  C   UNL     1      27.835   0.194  53.088  0.00  0.00    -0.010 A 
ATOM     19  C   UNL     1      28.019   1.416  53.742  0.00  0.00    +0.023 A 
ATOM     20 BR   UNL     1      29.744   1.893  54.409  0.00  0.00    -0.050 Br
ATOM     21  C   UNL     1      26.937   2.283  53.917  0.00  0.00    -0.010 A 
ATOM     22  C   UNL     1      25.672   1.935  53.431  0.00  0.00    +0.148 A 
ATOM     23  F   UNL     1      24.636   2.794  53.606  0.00  0.00    -0.203 F 
ENDBRANCH  13  15
ENDBRANCH   4  13
BRANCH  10  24
ATOM     24  O   UNL     1      17.673  -0.092  51.749  0.00  0.00    -0.488 OA
BRANCH  24  25
ATOM     25  C   UNL     1      16.677  -1.015  52.191  0.00  0.00    +0.093 C 
BRANCH  25  26
ATOM     26  C   UNL     1      15.436  -0.277  52.728  0.00  0.00    -0.004 C 
ATOM     27  C   UNL     1      15.446   1.191  52.283  0.00  0.00    -0.034 C 
ATOM     28  C   UNL     1      14.251   1.954  52.888  0.00  0.00    -0.001 C 
ATOM     29  N   UNL     1      12.987   1.171  52.933  0.00  0.00    -0.305 N 
ATOM     30  C   UNL     1      12.603   0.798  54.306  0.00  0.00    -0.013 C 
ATOM     31  C   UNL     1      12.973   0.009  52.020  0.00  0.00    -0.001 C 
ATOM     32  C   UNL     1      14.127  -0.978  52.291  0.00  0.00    -0.034 C 
ATOM     33  H   UNL     1      12.270   1.806  52.581  0.00  0.00    +0.000 HD
ENDBRANCH  25  26
ENDBRANCH  24  25
ENDBRANCH  10  24
TORSDOF 6
ENDMDL
MODEL 5
REMARK VINA RESULT:    -7.882      4.252      8.914
REMARK INTER + INTRA:         -11.558
REMARK INTER:                 -10.658
REMARK INTRA:                  -0.900
REMARK UNBOUND:                -0.911
REMARK  Name = 
REMARK  8 active torsions:
REMARK  status: ('A' for Active; 'I' for Inactive)
REMARK    1  A    between atoms: C_1  and  O_2
REMARK    2  A    between atoms: O_2  and  C_3
REMARK    3  A    between atoms: C_6  and  N_7
REMARK    4  A    between atoms: N_7  and  C_8
REMARK    5  A    between atoms: C_22  and  O_23
REMARK    6  A    between atoms: O_23  and  C_24
REMARK    7  A    between atoms: C_24  and  C_25
REMARK    8  A    between atoms: N_28  and  C_29
REMARK                            x       y       z     vdW  Elec       q    Type
REMARK                         _______ _______ _______ _____ _____    ______ ____
ROOT
ATOM      1  C   UNL     1      22.568   0.074  53.413  0.00  0.00    +0.162 A 
ATOM      2  C   UNL     1      21.472   0.901  53.094  0.00  0.00    -0.004 A 
ATOM      3  C   UNL     1      21.645   2.034  52.278  0.00  0.00    +0.044 A 
ATOM      4  C   UNL     1      20.582   2.896  51.925  0.00  0.00    +0.134 A 
ATOM      5  N   UNL     1      20.844   3.995  51.164  0.00  0.00    -0.220 NA
ATOM      6  C   UNL     1      22.099   4.282  50.735  0.00  0.00    +0.119 A 
ATOM      7  N   UNL     1      23.131   3.464  51.053  0.00  0.00    -0.235 NA
ATOM      8  C   UNL     1      22.936   2.352  51.808  0.00  0.00    +0.080 A 
ATOM      9  C   UNL     1      24.023   1.532  52.124  0.00  0.00    +0.010 A 
ATOM     10  C   UNL     1      23.844   0.385  52.919  0.00  0.00    +0.164 A 
ENDROOT
BRANCH   1  12
ATOM     11  C   UNL     1      21.214  -1.790  54.397  0.00  0.00    +0.079 C 
ATOM     12  O   UNL     1      22.430  -1.069  54.216  0.00  0.00    -0.491 OA
ENDBRANCH   1  12
BRANCH   4  13
ATOM     13  N   UNL     1      19.225   2.616  52.306  0.00  0.00    -0.294 N 
ATOM     14  H   UNL     1      18.964   2.742  53.248  0.00  0.00    +0.000 HD
BRANCH  13  15
ATOM     15  C   UNL     1      18.230   2.161  51.372  0.00  0.00    +0.104 A 
ATOM     16  C   UNL     1      18.201   0.820  50.936  0.00  0.00    +0.148 A 
ATOM     17  F   UNL     1      19.130  -0.070  51.364  0.00  0.00    -0.203 F 
ATOM     18  C   UNL     1      17.233   0.402  50.017  0.00  0.00    -0.010 A 
ATOM     19  C   UNL     1      16.297   1.312  49.518  0.00  0.00    +0.023 A 
ATOM     20 BR   UNL     1      14.979   0.735  48.261  0.00  0.00    -0.050 Br
ATOM     21  C   UNL     1      16.334   2.647  49.929  0.00  0.00    -0.010 A 
ATOM     22  C   UNL     1      17.299   3.073  50.847  0.00  0.00    +0.148 A 
ATOM     23  F   UNL     1      17.314   4.372  51.239  0.00  0.00    -0.203 F 
ENDBRANCH  13  15
ENDBRANCH   4  13
BRANCH  10  24
ATOM     24  O   UNL     1      24.908  -0.471  53.255  0.00  0.00    -0.488 OA
BRANCH  24  25
ATOM     25  C   UNL     1      25.582  -0.510  54.514  0.00  0.00    +0.093 C 
BRANCH  25  26
ATOM     26  C   UNL     1      26.956   0.180  54.428  0.00  0.00    -0.004 C 
ATOM     27  C   UNL     1      27.855  -0.529  53.407  0.00  0.00    -0.034 C 
ATOM     28  C   UNL     1      29.259   0.106  53.380  0.00  0.00    -0.001 C 
ATOM     29  N   UNL     1      29.261   1.587  53.510  0.00  0.00    -0.305 N 
ATOM     30  C   UNL     1      29.798   2.040  54.805  0.00  0.00    -0.013 C 
ATOM     31  C   UNL     1      27.959   2.215  53.202  0.00  0.00    -0.001 C 
ATOM     32  C   UNL     1      26.815   1.683  54.089  0.00  0.00    -0.034 C 
ATOM     33  H   UNL     1      29.902   1.915  52.787  0.00  0.00    +0.000 HD
ENDBRANCH  25  26
ENDBRANCH  24  25
ENDBRANCH  10  24
TORSDOF 6
ENDMDL
MODEL 6
REMARK VINA RESULT:    -7.879      2.679      4.394
REMARK INTER + INTRA:         -11.554
REMARK INTER:                 -10.473
REMARK INTRA:                  -1.081
REMARK UNBOUND:                -0.911
REMARK  Name = 
REMARK  8 active torsions:
REMARK  status: ('A' for Active; 'I' for Inactive)
REMARK    1  A    between atoms: C_1  and  O_2
REMARK    2  A    between atoms: O_2  and  C_3
REMARK    3  A    between atoms: C_6  and  N_7
REMARK    4  A    between atoms: N_7  and  C_8
REMARK    5  A    between atoms: C_22  and  O_23
REMARK    6  A    between atoms: O_23  and  C_24
REMARK    7  A    between atoms: C_24  and  C_25
REMARK    8  A    between atoms: N_28  and  C_29
REMARK                            x       y       z     vdW  Elec       q    Type
REMARK                         _______ _______ _______ _____ _____    ______ ____
ROOT
ATOM      1  C   UNL     1      19.675   0.424  51.074  0.00  0.00    +0.162 A 
ATOM      2  C   UNL     1      21.034   0.445  51.444  0.00  0.00    -0.004 A 
ATOM      3  C   UNL     1      21.455  -0.138  52.653  0.00  0.00    +0.044 A 
ATOM      4  C   UNL     1      22.805  -0.147  53.074  0.00  0.00    +0.134 A 
ATOM      5  N   UNL     1      23.120  -0.697  54.279  0.00  0.00    -0.220 NA
ATOM      6  C   UNL     1      22.173  -1.237  55.087  0.00  0.00    +0.119 A 
ATOM      7  N   UNL     1      20.875  -1.248  54.699  0.00  0.00    -0.235 NA
ATOM      8  C   UNL     1      20.494  -0.716  53.508  0.00  0.00    +0.080 A 
ATOM      9  C   UNL     1      19.146  -0.737  53.142  0.00  0.00    +0.010 A 
ATOM     10  C   UNL     1      18.730  -0.177  51.920  0.00  0.00    +0.164 A 
ENDROOT
BRANCH   1  12
ATOM     11  C   UNL     1      19.647   2.246  49.355  0.00  0.00    +0.079 C 
ATOM     12  O   UNL     1      19.221   0.988  49.870  0.00  0.00    -0.491 OA
ENDBRANCH   1  12
BRANCH   4  13
ATOM     13  N   UNL     1      23.858   0.363  52.239  0.00  0.00    -0.294 N 
ATOM     14  H   UNL     1      23.690   0.460  51.274  0.00  0.00    +0.000 HD
BRANCH  13  15
ATOM     15  C   UNL     1      25.148   0.737  52.754  0.00  0.00    +0.104 A 
ATOM     16  C   UNL     1      25.363   2.006  53.331  0.00  0.00    +0.148 A 
ATOM     17  F   UNL     1      24.362   2.920  53.390  0.00  0.00    -0.203 F 
ATOM     18  C   UNL     1      26.629   2.353  53.812  0.00  0.00    -0.010 A 
ATOM     19  C   UNL     1      27.691   1.450  53.714  0.00  0.00    +0.023 A 
ATOM     20 BR   UNL     1      29.419   1.932  54.371  0.00  0.00    -0.050 Br
ATOM     21  C   UNL     1      27.491   0.200  53.123  0.00  0.00    -0.010 A 
ATOM     22  C   UNL     1      26.228  -0.155  52.639  0.00  0.00    +0.148 A 
ATOM     23  F   UNL     1      26.053  -1.377  52.075  0.00  0.00    -0.203 F 
ENDBRANCH  13  15
ENDBRANCH   4  13
BRANCH  10  24
ATOM     24  O   UNL     1      17.385  -0.182  51.508  0.00  0.00    -0.488 OA
BRANCH  24  25
ATOM     25  C   UNL     1      16.274   0.277  52.280  0.00  0.00    +0.093 C 
BRANCH  25  26
ATOM     26  C   UNL     1      15.696   1.580  51.698  0.00  0.00    -0.004 C 
ATOM     27  C   UNL     1      14.401   1.968  52.423  0.00  0.00    -0.034 C 
ATOM     28  C   UNL     1      13.773   3.225  51.787  0.00  0.00    -0.001 C 
ATOM     29  N   UNL     1      14.761   4.255  51.370  0.00  0.00    -0.305 N 
ATOM     30  C   UNL     1      14.873   4.370  49.905  0.00  0.00    -0.013 C 
ATOM     31  C   UNL     1      16.083   4.110  52.015  0.00  0.00    -0.001 C 
ATOM     32  C   UNL     1      16.727   2.733  51.755  0.00  0.00    -0.034 C 
ATOM     33  H   UNL     1      14.384   5.138  51.713  0.00  0.00    +0.000 HD
ENDBRANCH  25  26
ENDBRANCH  24  25
ENDBRANCH  10  24
TORSDOF 6
ENDMDL
MODEL 7
REMARK VINA RESULT:    -7.783      4.298      9.003
REMARK INTER + INTRA:         -11.424
REMARK INTER:                 -10.385
REMARK INTRA:                  -1.038
REMARK UNBOUND:                -0.911
REMARK  Name = 
REMARK  8 active torsions:
REMARK  status: ('A' for Active; 'I' for Inactive)
REMARK    1  A    between atoms: C_1  and  O_2
REMARK    2  A    between atoms: O_2  and  C_3
REMARK    3  A    between atoms: C_6  and  N_7
REMARK    4  A    between atoms: N_7  and  C_8
REMARK    5  A    between atoms: C_22  and  O_23
REMARK    6  A    between atoms: O_23  and  C_24
REMARK    7  A    between atoms: C_24  and  C_25
REMARK    8  A    between atoms: N_28  and  C_29
REMARK                            x       y       z     vdW  Elec       q    Type
REMARK                         _______ _______ _______ _____ _____    ______ ____
ROOT
ATOM      1  C   UNL     1      22.267   0.519  52.148  0.00  0.00    +0.162 A 
ATOM      2  C   UNL     1      21.056   0.524  51.429  0.00  0.00    -0.004 A 
ATOM      3  C   UNL     1      20.735   1.596  50.576  0.00  0.00    +0.044 A 
ATOM      4  C   UNL     1      19.537   1.652  49.829  0.00  0.00    +0.134 A 
ATOM      5  N   UNL     1      19.286   2.747  49.059  0.00  0.00    -0.220 NA
ATOM      6  C   UNL     1      20.157   3.785  48.989  0.00  0.00    +0.119 A 
ATOM      7  N   UNL     1      21.317   3.747  49.688  0.00  0.00    -0.235 NA
ATOM      8  C   UNL     1      21.628   2.684  50.474  0.00  0.00    +0.080 A 
ATOM      9  C   UNL     1      22.828   2.680  51.188  0.00  0.00    +0.010 A 
ATOM     10  C   UNL     1      23.160   1.594  52.021  0.00  0.00    +0.164 A 
ENDROOT
BRANCH   1  12
ATOM     11  C   UNL     1      21.840  -0.990  54.101  0.00  0.00    +0.079 C 
ATOM     12  O   UNL     1      22.624  -0.539  53.001  0.00  0.00    -0.491 OA
ENDBRANCH   1  12
BRANCH   4  13
ATOM     13  N   UNL     1      18.600   0.562  49.822  0.00  0.00    -0.294 N 
ATOM     14  H   UNL     1      18.761  -0.194  49.211  0.00  0.00    +0.000 HD
BRANCH  13  15
ATOM     15  C   UNL     1      17.438   0.527  50.669  0.00  0.00    +0.104 A 
ATOM     16  C   UNL     1      17.402  -0.282  51.823  0.00  0.00    +0.148 A 
ATOM     17  F   UNL     1      18.455  -1.072  52.151  0.00  0.00    -0.203 F 
ATOM     18  C   UNL     1      16.257  -0.311  52.625  0.00  0.00    -0.010 A 
ATOM     19  C   UNL     1      15.138   0.452  52.281  0.00  0.00    +0.023 A 
ATOM     20 BR   UNL     1      13.575   0.407  53.379  0.00  0.00    -0.050 Br
ATOM     21  C   UNL     1      15.159   1.239  51.127  0.00  0.00    -0.010 A 
ATOM     22  C   UNL     1      16.300   1.273  50.320  0.00  0.00    +0.148 A 
ATOM     23  F   UNL     1      16.302   2.049  49.206  0.00  0.00    -0.203 F 
ENDBRANCH  13  15
ENDBRANCH   4  13
BRANCH  10  24
ATOM     24  O   UNL     1      24.361   1.545  52.751  0.00  0.00    -0.488 OA
BRANCH  24  25
ATOM     25  C   UNL     1      25.637   1.993  52.290  0.00  0.00    +0.093 C 
BRANCH  25  26
ATOM     26  C   UNL     1      26.763   1.074  52.798  0.00  0.00    -0.004 C 
ATOM     27  C   UNL     1      26.668   0.891  54.318  0.00  0.00    -0.034 C 
ATOM     28  C   UNL     1      27.843   0.041  54.841  0.00  0.00    -0.001 C 
ATOM     29  N   UNL     1      28.222  -1.089  53.952  0.00  0.00    -0.305 N 
ATOM     30  C   UNL     1      29.523  -0.878  53.294  0.00  0.00    -0.013 C 
ATOM     31  C   UNL     1      27.169  -1.466  52.985  0.00  0.00    -0.001 C 
ATOM     32  C   UNL     1      26.746  -0.295  52.075  0.00  0.00    -0.034 C 
ATOM     33  H   UNL     1      28.325  -1.892  54.572  0.00  0.00    +0.000 HD
ENDBRANCH  25  26
ENDBRANCH  24  25
ENDBRANCH  10  24
TORSDOF 6
ENDMDL
MODEL 8
REMARK VINA RESULT:    -7.724      2.308      3.948
REMARK INTER + INTRA:         -11.345
REMARK INTER:                 -10.380
REMARK INTRA:                  -0.965
REMARK UNBOUND:                -0.911
REMARK  Name = 
REMARK  8 active torsions:
REMARK  status: ('A' for Active; 'I' for Inactive)
REMARK    1  A    between atoms: C_1  and  O_2
REMARK    2  A    between atoms: O_2  and  C_3
REMARK    3  A    between atoms: C_6  and  N_7
REMARK    4  A    between atoms: N_7  and  C_8
REMARK    5  A    between atoms: C_22  and  O_23
REMARK    6  A    between atoms: O_23  and  C_24
REMARK    7  A    between atoms: C_24  and  C_25
REMARK    8  A    between atoms: N_28  and  C_29
REMARK                            x       y       z     vdW  Elec       q    Type
REMARK                         _______ _______ _______ _____ _____    ______ ____
ROOT
ATOM      1  C   UNL     1      19.783   0.444  51.234  0.00  0.00    +0.162 A 
ATOM      2  C   UNL     1      21.151   0.477  51.567  0.00  0.00    -0.004 A 
ATOM      3  C   UNL     1      21.617  -0.143  52.742  0.00  0.00    +0.044 A 
ATOM      4  C   UNL     1      22.977  -0.143  53.124  0.00  0.00    +0.134 A 
ATOM      5  N   UNL     1      23.336  -0.731  54.298  0.00  0.00    -0.220 NA
ATOM      6  C   UNL     1      22.422  -1.319  55.110  0.00  0.00    +0.119 A 
ATOM      7  N   UNL     1      21.113  -1.341  54.758  0.00  0.00    -0.235 NA
ATOM      8  C   UNL     1      20.690  -0.772  53.600  0.00  0.00    +0.080 A 
ATOM      9  C   UNL     1      19.333  -0.805  53.270  0.00  0.00    +0.010 A 
ATOM     10  C   UNL     1      18.873  -0.206  52.081  0.00  0.00    +0.164 A 
ENDROOT
BRANCH   1  12
ATOM     11  C   UNL     1      20.054   1.855  49.182  0.00  0.00    +0.079 C 
ATOM     12  O   UNL     1      19.286   1.044  50.066  0.00  0.00    -0.491 OA
ENDBRANCH   1  12
BRANCH   4  13
ATOM     13  N   UNL     1      23.998   0.419  52.282  0.00  0.00    -0.294 N 
ATOM     14  H   UNL     1      23.792   0.573  51.331  0.00  0.00    +0.000 HD
BRANCH  13  15
ATOM     15  C   UNL     1      25.306   0.765  52.767  0.00  0.00    +0.104 A 
ATOM     16  C   UNL     1      25.562   2.029  53.337  0.00  0.00    +0.148 A 
ATOM     17  F   UNL     1      24.584   2.965  53.417  0.00  0.00    -0.203 F 
ATOM     18  C   UNL     1      26.846   2.348  53.790  0.00  0.00    -0.010 A 
ATOM     19  C   UNL     1      27.885   1.422  53.670  0.00  0.00    +0.023 A 
ATOM     20 BR   UNL     1      29.637   1.866  54.289  0.00  0.00    -0.050 Br
ATOM     21  C   UNL     1      27.644   0.175  53.087  0.00  0.00    -0.010 A 
ATOM     22  C   UNL     1      26.364  -0.151  52.631  0.00  0.00    +0.148 A 
ATOM     23  F   UNL     1      26.149  -1.370  52.072  0.00  0.00    -0.203 F 
ENDBRANCH  13  15
ENDBRANCH   4  13
BRANCH  10  24
ATOM     24  O   UNL     1      17.518  -0.222  51.707  0.00  0.00    -0.488 OA
BRANCH  24  25
ATOM     25  C   UNL     1      16.417  -0.519  52.568  0.00  0.00    +0.093 C 
BRANCH  25  26
ATOM     26  C   UNL     1      15.503  -1.592  51.950  0.00  0.00    -0.004 C 
ATOM     27  C   UNL     1      15.782  -2.966  52.573  0.00  0.00    -0.034 C 
ATOM     28  C   UNL     1      14.929  -4.058  51.896  0.00  0.00    -0.001 C 
ATOM     29  N   UNL     1      13.545  -3.631  51.564  0.00  0.00    -0.305 N 
ATOM     30  C   UNL     1      13.331  -3.487  50.113  0.00  0.00    -0.013 C 
ATOM     31  C   UNL     1      13.093  -2.437  52.309  0.00  0.00    -0.001 C 
ATOM     32  C   UNL     1      14.009  -1.215  52.093  0.00  0.00    -0.034 C 
ATOM     33  H   UNL     1      12.948  -4.395  51.881  0.00  0.00    +0.000 HD
ENDBRANCH  25  26
ENDBRANCH  24  25
ENDBRANCH  10  24
TORSDOF 6
ENDMDL
MODEL 9
REMARK VINA RESULT:    -7.590      5.514      9.988
REMARK INTER + INTRA:         -11.163
REMARK INTER:                 -10.063
REMARK INTRA:                  -1.100
REMARK UNBOUND:                -0.911
REMARK  Name = 
REMARK  8 active torsions:
REMARK  status: ('A' for Active; 'I' for Inactive)
REMARK    1  A    between atoms: C_1  and  O_2
REMARK    2  A    between atoms: O_2  and  C_3
REMARK    3  A    between atoms: C_6  and  N_7
REMARK    4  A    between atoms: N_7  and  C_8
REMARK    5  A    between atoms: C_22  and  O_23
REMARK    6  A    between atoms: O_23  and  C_24
REMARK    7  A    between atoms: C_24  and  C_25
REMARK    8  A    between atoms: N_28  and  C_29
REMARK                            x       y       z     vdW  Elec       q    Type
REMARK                         _______ _______ _______ _____ _____    ______ ____
ROOT
ATOM      1  C   UNL     1      26.062   6.384  48.845  0.00  0.00    +0.162 A 
ATOM      2  C   UNL     1      25.448   5.235  49.382  0.00  0.00    -0.004 A 
ATOM      3  C   UNL     1      24.221   5.332  50.064  0.00  0.00    +0.044 A 
ATOM      4  C   UNL     1      23.560   4.214  50.621  0.00  0.00    +0.134 A 
ATOM      5  N   UNL     1      22.396   4.402  51.301  0.00  0.00    -0.220 NA
ATOM      6  C   UNL     1      21.853   5.636  51.457  0.00  0.00    +0.119 A 
ATOM      7  N   UNL     1      22.464   6.721  50.923  0.00  0.00    -0.235 NA
ATOM      8  C   UNL     1      23.628   6.601  50.232  0.00  0.00    +0.080 A 
ATOM      9  C   UNL     1      24.236   7.740  49.700  0.00  0.00    +0.010 A 
ATOM     10  C   UNL     1      25.450   7.638  48.996  0.00  0.00    +0.164 A 
ENDROOT
BRANCH   1  12
ATOM     11  C   UNL     1      28.334   5.410  48.444  0.00  0.00    +0.079 C 
ATOM     12  O   UNL     1      27.281   6.322  48.151  0.00  0.00    -0.491 OA
ENDBRANCH   1  12
BRANCH   4  13
ATOM     13  N   UNL     1      24.060   2.877  50.444  0.00  0.00    -0.294 N 
ATOM     14  H   UNL     1      23.816   2.388  49.625  0.00  0.00    +0.000 HD
BRANCH  13  15
ATOM     15  C   UNL     1      24.898   2.224  51.412  0.00  0.00    +0.104 A 
ATOM     16  C   UNL     1      24.360   1.690  52.601  0.00  0.00    +0.148 A 
ATOM     17  F   UNL     1      23.037   1.804  52.876  0.00  0.00    -0.203 F 
ATOM     18  C   UNL     1      25.197   1.071  53.535  0.00  0.00    -0.010 A 
ATOM     19  C   UNL     1      26.572   0.988  53.301  0.00  0.00    +0.023 A 
ATOM     20 BR   UNL     1      27.710   0.142  54.582  0.00  0.00    -0.050 Br
ATOM     21  C   UNL     1      27.115   1.534  52.136  0.00  0.00    -0.010 A 
ATOM     22  C   UNL     1      26.286   2.155  51.198  0.00  0.00    +0.148 A 
ATOM     23  F   UNL     1      26.833   2.674  50.069  0.00  0.00    -0.203 F 
ENDBRANCH  13  15
ENDBRANCH   4  13
BRANCH  10  24
ATOM     24  O   UNL     1      26.093   8.757  48.438  0.00  0.00    -0.488 OA
BRANCH  24  25
ATOM     25  C   UNL     1      26.752   9.792  49.170  0.00  0.00    +0.093 C 
BRANCH  25  26
ATOM     26  C   UNL     1      28.181  10.019  48.644  0.00  0.00    -0.004 C 
ATOM     27  C   UNL     1      28.592  11.488  48.810  0.00  0.00    -0.034 C 
ATOM     28  C   UNL     1      29.989  11.737  48.207  0.00  0.00    -0.001 C 
ATOM     29  N   UNL     1      30.959  10.635  48.441  0.00  0.00    -0.305 N 
ATOM     30  C   UNL     1      31.280   9.894  47.208  0.00  0.00    -0.013 C 
ATOM     31  C   UNL     1      30.580   9.730  49.546  0.00  0.00    -0.001 C 
ATOM     32  C   UNL     1      29.197   9.080  49.338  0.00  0.00    -0.034 C 
ATOM     33  H   UNL     1      31.816  11.096  48.746  0.00  0.00    +0.000 HD
ENDBRANCH  25  26
ENDBRANCH  24  25
ENDBRANCH  10  24
TORSDOF 6
ENDMDL
