MODEL 1
REMARK VINA RESULT:    -7.567      0.000      0.000
REMARK INTER + INTRA:         -13.563
REMARK INTER:                 -12.433
REMARK INTRA:                  -1.130
REMARK UNBOUND:                -1.130
REMARK  Name = 
REMARK  12 active torsions:
REMARK  status: ('A' for Active; 'I' for Inactive)
REMARK    1  A    between atoms: O_1  and  C_2
REMARK    2  A    between atoms: C_2  and  C_3
REMARK    3  A    between atoms: C_3  and  N_4
REMARK    4  A    between atoms: N_4  and  C_5
REMARK    5  A    between atoms: N_4  and  C_8
REMARK    6  A    between atoms: C_5  and  C_6
REMARK    7  A    between atoms: C_6  and  O_7
REMARK    8  A    between atoms: C_8  and  C_9
REMARK    9  A    between atoms: C_9  and  N_10
REMARK   10  A    between atoms: N_10  and  C_11
REMARK   11  A    between atoms: C_17  and  N_18
REMARK   12  A    between atoms: N_18  and  C_19
REMARK                            x       y       z     vdW  Elec       q    Type
REMARK                         _______ _______ _______ _____ _____    ______ ____
ROOT
ATOM      1  C   UNL     1      27.078   5.292  49.159  0.00  0.00    +0.121 A 
ATOM      2  C   UNL     1      26.046   6.078  49.687  0.00  0.00    +0.004 A 
ATOM      3  C   UNL     1      24.900   5.461  50.192  0.00  0.00    +0.081 A 
ATOM      4  N   UNL     1      23.902   6.213  50.720  0.00  0.00    -0.235 NA
ATOM      5  C   UNL     1      22.782   5.635  51.222  0.00  0.00    +0.119 A 
ATOM      6  N   UNL     1      22.641   4.286  51.196  0.00  0.00    -0.220 NA
ATOM      7  C   UNL     1      23.607   3.475  50.682  0.00  0.00    +0.135 A 
ATOM      8  C   UNL     1      24.783   4.055  50.160  0.00  0.00    +0.059 A 
ATOM      9  C   UNL     1      25.850   3.305  49.635  0.00  0.00    +0.042 A 
ATOM     10  N   UNL     1      26.954   3.935  49.153  0.00  0.00    -0.240 NA
ENDROOT
BRANCH   1  11
ATOM     11  N   UNL     1      28.262   5.913  48.637  0.00  0.00    -0.328 N 
ATOM     12  H   UNL     1      29.141   5.633  48.978  0.00  0.00    +0.000 HD
BRANCH  11  13
ATOM     13  C   UNL     1      28.188   6.953  47.611  0.00  0.00    +0.023 C 
BRANCH  13  14
ATOM     14  C   UNL     1      29.437   7.837  47.634  0.00  0.00    +0.015 C 
BRANCH  14  15
ATOM     15  N   UNL     1      29.786   8.164  49.036  0.00  0.00    -0.297 N 
ATOM     16  H   UNL     1      29.278   7.475  49.592  0.00  0.00    +0.000 HD
BRANCH  15  17
ATOM     17  C   UNL     1      31.220   7.956  49.351  0.00  0.00    +0.022 C 
BRANCH  17  18
ATOM     18  C   UNL     1      31.700   6.493  49.232  0.00  0.00    +0.057 C 
BRANCH  18  19
ATOM     19  O   UNL     1      30.933   5.628  50.025  0.00  0.00    -0.394 OA
ATOM     20  H   UNL     1      30.368   6.148  50.617  0.00  0.00    +0.000 HD
ENDBRANCH  18  19
ENDBRANCH  17  18
ENDBRANCH  15  17
BRANCH  15  21
ATOM     21  C   UNL     1      29.273   9.474  49.498  0.00  0.00    +0.022 C 
BRANCH  21  22
ATOM     22  C   UNL     1      27.796   9.389  49.901  0.00  0.00    +0.057 C 
BRANCH  22  23
ATOM     23  O   UNL     1      27.660   9.510  51.289  0.00  0.00    -0.394 OA
ATOM     24  H   UNL     1      27.109  10.281  51.494  0.00  0.00    +0.000 HD
ENDBRANCH  22  23
ENDBRANCH  21  22
ENDBRANCH  15  21
ENDBRANCH  14  15
ENDBRANCH  13  14
ENDBRANCH  11  13
ENDBRANCH   1  11
BRANCH   7  25
ATOM     25  N   UNL     1      23.383   2.055  50.634  0.00  0.00    -0.299 N 
ATOM     26  H   UNL     1      23.051   1.663  49.794  0.00  0.00    +0.000 HD
BRANCH  25  27
ATOM     27  C   UNL     1      23.620   1.178  51.749  0.00  0.00    +0.033 A 
ATOM     28  C   UNL     1      24.928   1.010  52.232  0.00  0.00    -0.040 A 
ATOM     29  C   UNL     1      25.177   0.176  53.326  0.00  0.00    -0.059 A 
ATOM     30  C   UNL     1      24.122  -0.488  53.955  0.00  0.00    -0.048 A 
ATOM     31  C   UNL     1      22.813  -0.313  53.497  0.00  0.00    +0.020 A 
ATOM     32 BR   UNL     1      21.368  -1.204  54.373  0.00  0.00    -0.050 Br
ATOM     33  C   UNL     1      22.560   0.521  52.402  0.00  0.00    -0.027 A 
ENDBRANCH  25  27
ENDBRANCH   7  25
TORSDOF 12
ENDMDL
MODEL 2
REMARK VINA RESULT:    -7.564      1.558      1.859
REMARK INTER + INTRA:         -13.558
REMARK INTER:                 -12.737
REMARK INTRA:                  -0.821
REMARK UNBOUND:                -1.130
REMARK  Name = 
REMARK  12 active torsions:
REMARK  status: ('A' for Active; 'I' for Inactive)
REMARK    1  A    between atoms: O_1  and  C_2
REMARK    2  A    between atoms: C_2  and  C_3
REMARK    3  A    between atoms: C_3  and  N_4
REMARK    4  A    between atoms: N_4  and  C_5
REMARK    5  A    between atoms: N_4  and  C_8
REMARK    6  A    between atoms: C_5  and  C_6
REMARK    7  A    between atoms: C_6  and  O_7
REMARK    8  A    between atoms: C_8  and  C_9
REMARK    9  A    between atoms: C_9  and  N_10
REMARK   10  A    between atoms: N_10  and  C_11
REMARK   11  A    between atoms: C_17  and  N_18
REMARK   12  A    between atoms: N_18  and  C_19
REMARK                            x       y       z     vdW  Elec       q    Type
REMARK                         _______ _______ _______ _____ _____    ______ ____
ROOT
ATOM      1  C   UNL     1      26.591   5.579  49.050  0.00  0.00    +0.121 A 
ATOM      2  C   UNL     1      25.514   6.117  49.766  0.00  0.00    +0.004 A 
ATOM      3  C   UNL     1      24.693   5.270  50.514  0.00  0.00    +0.081 A 
ATOM      4  N   UNL     1      23.658   5.783  51.224  0.00  0.00    -0.235 NA
ATOM      5  C   UNL     1      22.850   4.980  51.962  0.00  0.00    +0.119 A 
ATOM      6  N   UNL     1      23.066   3.642  51.995  0.00  0.00    -0.220 NA
ATOM      7  C   UNL     1      24.090   3.064  51.306  0.00  0.00    +0.135 A 
ATOM      8  C   UNL     1      24.945   3.881  50.537  0.00  0.00    +0.059 A 
ATOM      9  C   UNL     1      26.046   3.388  49.815  0.00  0.00    +0.042 A 
ATOM     10  N   UNL     1      26.828   4.238  49.099  0.00  0.00    -0.240 NA
ENDROOT
BRANCH   1  11
ATOM     11  N   UNL     1      27.443   6.437  48.278  0.00  0.00    -0.328 N 
ATOM     12  H   UNL     1      27.059   7.236  47.850  0.00  0.00    +0.000 HD
BRANCH  11  13
ATOM     13  C   UNL     1      28.868   6.150  48.112  0.00  0.00    +0.023 C 
BRANCH  13  14
ATOM     14  C   UNL     1      29.673   7.440  47.942  0.00  0.00    +0.015 C 
BRANCH  14  15
ATOM     15  N   UNL     1      30.088   7.944  49.272  0.00  0.00    -0.297 N 
ATOM     16  H   UNL     1      29.581   7.358  49.936  0.00  0.00    +0.000 HD
BRANCH  15  17
ATOM     17  C   UNL     1      31.526   7.726  49.562  0.00  0.00    +0.022 C 
BRANCH  17  18
ATOM     18  C   UNL     1      31.964   6.245  49.575  0.00  0.00    +0.057 C 
BRANCH  18  19
ATOM     19  O   UNL     1      31.481   5.570  50.704  0.00  0.00    -0.394 OA
ATOM     20  H   UNL     1      30.511   5.569  50.689  0.00  0.00    +0.000 HD
ENDBRANCH  18  19
ENDBRANCH  17  18
ENDBRANCH  15  17
BRANCH  15  21
ATOM     21  C   UNL     1      29.638   9.323  49.565  0.00  0.00    +0.022 C 
BRANCH  21  22
ATOM     22  C   UNL     1      28.120   9.387  49.772  0.00  0.00    +0.057 C 
BRANCH  22  23
ATOM     23  O   UNL     1      27.820   9.582  51.126  0.00  0.00    -0.394 OA
ATOM     24  H   UNL     1      28.630   9.814  51.606  0.00  0.00    +0.000 HD
ENDBRANCH  22  23
ENDBRANCH  21  22
ENDBRANCH  15  21
ENDBRANCH  14  15
ENDBRANCH  13  14
ENDBRANCH  11  13
ENDBRANCH   1  11
BRANCH   7  25
ATOM     25  N   UNL     1      24.241   1.634  51.335  0.00  0.00    -0.299 N 
ATOM     26  H   UNL     1      24.028   1.126  50.520  0.00  0.00    +0.000 HD
BRANCH  25  27
ATOM     27  C   UNL     1      24.688   0.909  52.495  0.00  0.00    +0.033 A 
ATOM     28  C   UNL     1      23.772   0.122  53.213  0.00  0.00    -0.040 A 
ATOM     29  C   UNL     1      24.189  -0.605  54.332  0.00  0.00    -0.059 A 
ATOM     30  C   UNL     1      25.525  -0.563  54.736  0.00  0.00    -0.048 A 
ATOM     31  C   UNL     1      26.450   0.200  54.018  0.00  0.00    +0.020 A 
ATOM     32 BR   UNL     1      28.281   0.238  54.559  0.00  0.00    -0.050 Br
ATOM     33  C   UNL     1      26.036   0.929  52.897  0.00  0.00    -0.027 A 
ENDBRANCH  25  27
ENDBRANCH   7  25
TORSDOF 12
ENDMDL
MODEL 3
REMARK VINA RESULT:    -7.522      4.089      7.629
REMARK INTER + INTRA:         -13.490
REMARK INTER:                 -12.102
REMARK INTRA:                  -1.387
REMARK UNBOUND:                -1.130
REMARK  Name = 
REMARK  12 active torsions:
REMARK  status: ('A' for Active; 'I' for Inactive)
REMARK    1  A    between atoms: O_1  and  C_2
REMARK    2  A    between atoms: C_2  and  C_3
REMARK    3  A    between atoms: C_3  and  N_4
REMARK    4  A    between atoms: N_4  and  C_5
REMARK    5  A    between atoms: N_4  and  C_8
REMARK    6  A    between atoms: C_5  and  C_6
REMARK    7  A    between atoms: C_6  and  O_7
REMARK    8  A    between atoms: C_8  and  C_9
REMARK    9  A    between atoms: C_9  and  N_10
REMARK   10  A    between atoms: N_10  and  C_11
REMARK   11  A    between atoms: C_17  and  N_18
REMARK   12  A    between atoms: N_18  and  C_19
REMARK                            x       y       z     vdW  Elec       q    Type
REMARK                         _______ _______ _______ _____ _____    ______ ____
ROOT
ATOM      1  C   UNL     1      24.755   1.545  52.716  0.00  0.00    +0.121 A 
ATOM      2  C   UNL     1      24.040   2.704  53.044  0.00  0.00    +0.004 A 
ATOM      3  C   UNL     1      24.052   3.791  52.168  0.00  0.00    +0.081 A 
ATOM      4  N   UNL     1      23.349   4.912  52.469  0.00  0.00    -0.235 NA
ATOM      5  C   UNL     1      23.342   5.978  51.630  0.00  0.00    +0.119 A 
ATOM      6  N   UNL     1      24.048   5.939  50.472  0.00  0.00    -0.220 NA
ATOM      7  C   UNL     1      24.771   4.843  50.111  0.00  0.00    +0.135 A 
ATOM      8  C   UNL     1      24.789   3.721  50.966  0.00  0.00    +0.059 A 
ATOM      9  C   UNL     1      25.479   2.533  50.671  0.00  0.00    +0.042 A 
ATOM     10  N   UNL     1      25.446   1.490  51.543  0.00  0.00    -0.240 NA
ENDROOT
BRANCH   1  11
ATOM     11  N   UNL     1      24.751   0.420  53.607  0.00  0.00    -0.328 N 
ATOM     12  H   UNL     1      23.939   0.220  54.125  0.00  0.00    +0.000 HD
BRANCH  11  13
ATOM     13  C   UNL     1      25.929  -0.434  53.762  0.00  0.00    +0.023 C 
BRANCH  13  14
ATOM     14  C   UNL     1      26.906   0.156  54.781  0.00  0.00    +0.015 C 
BRANCH  14  15
ATOM     15  N   UNL     1      28.295  -0.046  54.308  0.00  0.00    -0.297 N 
ATOM     16  H   UNL     1      28.742  -0.585  55.051  0.00  0.00    +0.000 HD
BRANCH  15  17
ATOM     17  C   UNL     1      28.387  -0.889  53.091  0.00  0.00    +0.022 C 
BRANCH  17  18
ATOM     18  C   UNL     1      29.214  -2.181  53.263  0.00  0.00    +0.057 C 
BRANCH  18  19
ATOM     19  O   UNL     1      28.459  -3.325  52.968  0.00  0.00    -0.394 OA
ATOM     20  H   UNL     1      27.821  -3.118  52.267  0.00  0.00    +0.000 HD
ENDBRANCH  18  19
ENDBRANCH  17  18
ENDBRANCH  15  17
BRANCH  15  21
ATOM     21  C   UNL     1      29.091   1.199  54.215  0.00  0.00    +0.022 C 
BRANCH  21  22
ATOM     22  C   UNL     1      28.208   2.407  53.881  0.00  0.00    +0.057 C 
BRANCH  22  23
ATOM     23  O   UNL     1      28.261   2.687  52.510  0.00  0.00    -0.394 OA
ATOM     24  H   UNL     1      27.521   2.250  52.062  0.00  0.00    +0.000 HD
ENDBRANCH  22  23
ENDBRANCH  21  22
ENDBRANCH  15  21
ENDBRANCH  14  15
ENDBRANCH  13  14
ENDBRANCH  11  13
ENDBRANCH   1  11
BRANCH   7  25
ATOM     25  N   UNL     1      25.542   4.877  48.897  0.00  0.00    -0.299 N 
ATOM     26  H   UNL     1      25.219   4.359  48.124  0.00  0.00    +0.000 HD
BRANCH  25  27
ATOM     27  C   UNL     1      26.762   5.626  48.755  0.00  0.00    +0.033 A 
ATOM     28  C   UNL     1      27.962   4.949  48.486  0.00  0.00    -0.040 A 
ATOM     29  C   UNL     1      29.155   5.660  48.326  0.00  0.00    -0.059 A 
ATOM     30  C   UNL     1      29.159   7.053  48.420  0.00  0.00    -0.048 A 
ATOM     31  C   UNL     1      27.966   7.740  48.667  0.00  0.00    +0.020 A 
ATOM     32 BR   UNL     1      27.968   9.647  48.773  0.00  0.00    -0.050 Br
ATOM     33  C   UNL     1      26.770   7.032  48.827  0.00  0.00    -0.027 A 
ENDBRANCH  25  27
ENDBRANCH   7  25
TORSDOF 12
ENDMDL
MODEL 4
REMARK VINA RESULT:    -7.415      3.932      7.749
REMARK INTER + INTRA:         -13.314
REMARK INTER:                 -12.346
REMARK INTRA:                  -0.967
REMARK UNBOUND:                -1.130
REMARK  Name = 
REMARK  12 active torsions:
REMARK  status: ('A' for Active; 'I' for Inactive)
REMARK    1  A    between atoms: O_1  and  C_2
REMARK    2  A    between atoms: C_2  and  C_3
REMARK    3  A    between atoms: C_3  and  N_4
REMARK    4  A    between atoms: N_4  and  C_5
REMARK    5  A    between atoms: N_4  and  C_8
REMARK    6  A    between atoms: C_5  and  C_6
REMARK    7  A    between atoms: C_6  and  O_7
REMARK    8  A    between atoms: C_8  and  C_9
REMARK    9  A    between atoms: C_9  and  N_10
REMARK   10  A    between atoms: N_10  and  C_11
REMARK   11  A    between atoms: C_17  and  N_18
REMARK   12  A    between atoms: N_18  and  C_19
REMARK                            x       y       z     vdW  Elec       q    Type
REMARK                         _______ _______ _______ _____ _____    ______ ____
ROOT
ATOM      1  C   UNL     1      23.755   1.126  52.867  0.00  0.00    +0.121 A 
ATOM      2  C   UNL     1      22.907   1.060  51.754  0.00  0.00    +0.004 A 
ATOM      3  C   UNL     1      22.594   2.229  51.056  0.00  0.00    +0.081 A 
ATOM      4  N   UNL     1      21.787   2.173  49.967  0.00  0.00    -0.235 NA
ATOM      5  C   UNL     1      21.474   3.295  49.271  0.00  0.00    +0.119 A 
ATOM      6  N   UNL     1      21.963   4.498  49.662  0.00  0.00    -0.220 NA
ATOM      7  C   UNL     1      22.780   4.622  50.745  0.00  0.00    +0.135 A 
ATOM      8  C   UNL     1      23.123   3.467  51.480  0.00  0.00    +0.059 A 
ATOM      9  C   UNL     1      23.981   3.484  52.594  0.00  0.00    +0.042 A 
ATOM     10  N   UNL     1      24.269   2.329  53.250  0.00  0.00    -0.240 NA
ENDROOT
BRANCH   1  11
ATOM     11  N   UNL     1      24.085  -0.067  53.592  0.00  0.00    -0.328 N 
ATOM     12  H   UNL     1      23.396  -0.498  54.146  0.00  0.00    +0.000 HD
BRANCH  11  13
ATOM     13  C   UNL     1      25.423  -0.654  53.527  0.00  0.00    +0.023 C 
BRANCH  13  14
ATOM     14  C   UNL     1      26.278  -0.208  54.715  0.00  0.00    +0.015 C 
BRANCH  14  15
ATOM     15  N   UNL     1      27.684  -0.618  54.495  0.00  0.00    -0.297 N 
ATOM     16  H   UNL     1      27.844  -1.359  55.177  0.00  0.00    +0.000 HD
BRANCH  15  17
ATOM     17  C   UNL     1      27.916  -1.238  53.168  0.00  0.00    +0.022 C 
BRANCH  17  18
ATOM     18  C   UNL     1      29.045  -2.292  53.138  0.00  0.00    +0.057 C 
BRANCH  18  19
ATOM     19  O   UNL     1      28.560  -3.581  53.400  0.00  0.00    -0.394 OA
ATOM     20  H   UNL     1      28.606  -4.114  52.591  0.00  0.00    +0.000 HD
ENDBRANCH  18  19
ENDBRANCH  17  18
ENDBRANCH  15  17
BRANCH  15  21
ATOM     21  C   UNL     1      28.679   0.426  54.831  0.00  0.00    +0.022 C 
BRANCH  21  22
ATOM     22  C   UNL     1      28.818   1.454  53.702  0.00  0.00    +0.057 C 
BRANCH  22  23
ATOM     23  O   UNL     1      28.783   2.755  54.220  0.00  0.00    -0.394 OA
ATOM     24  H   UNL     1      27.875   3.092  54.186  0.00  0.00    +0.000 HD
ENDBRANCH  22  23
ENDBRANCH  21  22
ENDBRANCH  15  21
ENDBRANCH  14  15
ENDBRANCH  13  14
ENDBRANCH  11  13
ENDBRANCH   1  11
BRANCH   7  25
ATOM     25  N   UNL     1      23.228   5.929  51.145  0.00  0.00    -0.299 N 
ATOM     26  H   UNL     1      22.775   6.365  51.903  0.00  0.00    +0.000 HD
BRANCH  25  27
ATOM     27  C   UNL     1      24.302   6.631  50.495  0.00  0.00    +0.033 A 
ATOM     28  C   UNL     1      24.326   8.035  50.522  0.00  0.00    -0.040 A 
ATOM     29  C   UNL     1      25.370   8.737  49.912  0.00  0.00    -0.059 A 
ATOM     30  C   UNL     1      26.405   8.043  49.280  0.00  0.00    -0.048 A 
ATOM     31  C   UNL     1      26.402   6.645  49.264  0.00  0.00    +0.020 A 
ATOM     32 BR   UNL     1      27.829   5.698  48.418  0.00  0.00    -0.050 Br
ATOM     33  C   UNL     1      25.359   5.940  49.873  0.00  0.00    -0.027 A 
ENDBRANCH  25  27
ENDBRANCH   7  25
TORSDOF 12
ENDMDL
MODEL 5
REMARK VINA RESULT:    -7.302      3.982      7.902
REMARK INTER + INTRA:         -13.128
REMARK INTER:                 -11.851
REMARK INTRA:                  -1.277
REMARK UNBOUND:                -1.130
REMARK  Name = 
REMARK  12 active torsions:
REMARK  status: ('A' for Active; 'I' for Inactive)
REMARK    1  A    between atoms: O_1  and  C_2
REMARK    2  A    between atoms: C_2  and  C_3
REMARK    3  A    between atoms: C_3  and  N_4
REMARK    4  A    between atoms: N_4  and  C_5
REMARK    5  A    between atoms: N_4  and  C_8
REMARK    6  A    between atoms: C_5  and  C_6
REMARK    7  A    between atoms: C_6  and  O_7
REMARK    8  A    between atoms: C_8  and  C_9
REMARK    9  A    between atoms: C_9  and  N_10
REMARK   10  A    between atoms: N_10  and  C_11
REMARK   11  A    between atoms: C_17  and  N_18
REMARK   12  A    between atoms: N_18  and  C_19
REMARK                            x       y       z     vdW  Elec       q    Type
REMARK                         _______ _______ _______ _____ _____    ______ ____
ROOT
ATOM      1  C   UNL     1      23.716   1.247  52.579  0.00  0.00    +0.121 A 
ATOM      2  C   UNL     1      22.972   0.998  51.419  0.00  0.00    +0.004 A 
ATOM      3  C   UNL     1      22.939   1.956  50.404  0.00  0.00    +0.081 A 
ATOM      4  N   UNL     1      22.235   1.718  49.269  0.00  0.00    -0.235 NA
ATOM      5  C   UNL     1      22.193   2.632  48.267  0.00  0.00    +0.119 A 
ATOM      6  N   UNL     1      22.856   3.809  48.391  0.00  0.00    -0.220 NA
ATOM      7  C   UNL     1      23.583   4.108  49.503  0.00  0.00    +0.135 A 
ATOM      8  C   UNL     1      23.644   3.170  50.555  0.00  0.00    +0.059 A 
ATOM      9  C   UNL     1      24.390   3.370  51.730  0.00  0.00    +0.042 A 
ATOM     10  N   UNL     1      24.404   2.417  52.699  0.00  0.00    -0.240 NA
ENDROOT
BRANCH   1  11
ATOM     11  N   UNL     1      23.759   0.271  53.630  0.00  0.00    -0.328 N 
ATOM     12  H   UNL     1      22.915  -0.088  53.987  0.00  0.00    +0.000 HD
BRANCH  11  13
ATOM     13  C   UNL     1      25.029  -0.201  54.182  0.00  0.00    +0.023 C 
BRANCH  13  14
ATOM     14  C   UNL     1      25.951  -0.718  53.076  0.00  0.00    +0.015 C 
BRANCH  14  15
ATOM     15  N   UNL     1      27.291  -0.102  53.220  0.00  0.00    -0.297 N 
ATOM     16  H   UNL     1      27.522   0.229  52.283  0.00  0.00    +0.000 HD
BRANCH  15  17
ATOM     17  C   UNL     1      27.295   1.104  54.084  0.00  0.00    +0.022 C 
BRANCH  17  18
ATOM     18  C   UNL     1      28.128   2.284  53.537  0.00  0.00    +0.057 C 
BRANCH  18  19
ATOM     19  O   UNL     1      27.619   2.761  52.321  0.00  0.00    -0.394 OA
ATOM     20  H   UNL     1      27.982   2.235  51.591  0.00  0.00    +0.000 HD
ENDBRANCH  18  19
ENDBRANCH  17  18
ENDBRANCH  15  17
BRANCH  15  21
ATOM     21  C   UNL     1      28.366  -1.063  53.558  0.00  0.00    +0.022 C 
BRANCH  21  22
ATOM     22  C   UNL     1      28.216  -2.372  52.774  0.00  0.00    +0.057 C 
BRANCH  22  23
ATOM     23  O   UNL     1      28.740  -3.443  53.508  0.00  0.00    -0.394 OA
ATOM     24  H   UNL     1      29.348  -3.105  54.183  0.00  0.00    +0.000 HD
ENDBRANCH  22  23
ENDBRANCH  21  22
ENDBRANCH  15  21
ENDBRANCH  14  15
ENDBRANCH  13  14
ENDBRANCH  11  13
ENDBRANCH   1  11
BRANCH   7  25
ATOM     25  N   UNL     1      24.224   5.392  49.602  0.00  0.00    -0.299 N 
ATOM     26  H   UNL     1      23.735   6.125  50.041  0.00  0.00    +0.000 HD
BRANCH  25  27
ATOM     27  C   UNL     1      25.542   5.660  49.093  0.00  0.00    +0.033 A 
ATOM     28  C   UNL     1      26.519   4.652  49.136  0.00  0.00    -0.040 A 
ATOM     29  C   UNL     1      27.801   4.886  48.630  0.00  0.00    -0.059 A 
ATOM     30  C   UNL     1      28.116   6.124  48.066  0.00  0.00    -0.048 A 
ATOM     31  C   UNL     1      27.146   7.129  47.999  0.00  0.00    +0.020 A 
ATOM     32 BR   UNL     1      27.573   8.814  47.208  0.00  0.00    -0.050 Br
ATOM     33  C   UNL     1      25.862   6.898  48.504  0.00  0.00    -0.027 A 
ENDBRANCH  25  27
ENDBRANCH   7  25
TORSDOF 12
ENDMDL
MODEL 6
REMARK VINA RESULT:    -7.234      2.288      4.261
REMARK INTER + INTRA:         -13.015
REMARK INTER:                 -12.036
REMARK INTRA:                  -0.979
REMARK UNBOUND:                -1.130
REMARK  Name = 
REMARK  12 active torsions:
REMARK  status: ('A' for Active; 'I' for Inactive)
REMARK    1  A    between atoms: O_1  and  C_2
REMARK    2  A    between atoms: C_2  and  C_3
REMARK    3  A    between atoms: C_3  and  N_4
REMARK    4  A    between atoms: N_4  and  C_5
REMARK    5  A    between atoms: N_4  and  C_8
REMARK    6  A    between atoms: C_5  and  C_6
REMARK    7  A    between atoms: C_6  and  O_7
REMARK    8  A    between atoms: C_8  and  C_9
REMARK    9  A    between atoms: C_9  and  N_10
REMARK   10  A    between atoms: N_10  and  C_11
REMARK   11  A    between atoms: C_17  and  N_18
REMARK   12  A    between atoms: N_18  and  C_19
REMARK                            x       y       z     vdW  Elec       q    Type
REMARK                         _______ _______ _______ _____ _____    ______ ____
ROOT
ATOM      1  C   UNL     1      26.142   3.088  50.785  0.00  0.00    +0.121 A 
ATOM      2  C   UNL     1      26.585   1.858  51.287  0.00  0.00    +0.004 A 
ATOM      3  C   UNL     1      25.718   1.074  52.051  0.00  0.00    +0.081 A 
ATOM      4  N   UNL     1      26.133  -0.127  52.527  0.00  0.00    -0.235 NA
ATOM      5  C   UNL     1      25.306  -0.908  53.268  0.00  0.00    +0.119 A 
ATOM      6  N   UNL     1      24.045  -0.492  53.547  0.00  0.00    -0.220 NA
ATOM      7  C   UNL     1      23.567   0.701  53.096  0.00  0.00    +0.135 A 
ATOM      8  C   UNL     1      24.409   1.527  52.321  0.00  0.00    +0.059 A 
ATOM      9  C   UNL     1      24.002   2.761  51.784  0.00  0.00    +0.042 A 
ATOM     10  N   UNL     1      24.869   3.500  51.042  0.00  0.00    -0.240 NA
ENDROOT
BRANCH   1  11
ATOM     11  N   UNL     1      27.022   3.904  49.998  0.00  0.00    -0.328 N 
ATOM     12  H   UNL     1      27.991   3.738  50.034  0.00  0.00    +0.000 HD
BRANCH  11  13
ATOM     13  C   UNL     1      26.509   4.976  49.144  0.00  0.00    +0.023 C 
BRANCH  13  14
ATOM     14  C   UNL     1      27.653   5.808  48.560  0.00  0.00    +0.015 C 
BRANCH  14  15
ATOM     15  N   UNL     1      27.244   7.230  48.490  0.00  0.00    -0.297 N 
ATOM     16  H   UNL     1      26.537   7.256  47.754  0.00  0.00    +0.000 HD
BRANCH  15  17
ATOM     17  C   UNL     1      26.562   7.709  49.717  0.00  0.00    +0.022 C 
BRANCH  17  18
ATOM     18  C   UNL     1      26.764   9.210  50.022  0.00  0.00    +0.057 C 
BRANCH  18  19
ATOM     19  O   UNL     1      27.567   9.406  51.154  0.00  0.00    -0.394 OA
ATOM     20  H   UNL     1      27.257   8.834  51.873  0.00  0.00    +0.000 HD
ENDBRANCH  18  19
ENDBRANCH  17  18
ENDBRANCH  15  17
BRANCH  15  21
ATOM     21  C   UNL     1      28.310   8.145  48.021  0.00  0.00    +0.022 C 
BRANCH  21  22
ATOM     22  C   UNL     1      29.697   7.660  48.456  0.00  0.00    +0.057 C 
BRANCH  22  23
ATOM     23  O   UNL     1      30.118   8.347  49.601  0.00  0.00    -0.394 OA
ATOM     24  H   UNL     1      29.403   8.353  50.256  0.00  0.00    +0.000 HD
ENDBRANCH  22  23
ENDBRANCH  21  22
ENDBRANCH  15  21
ENDBRANCH  14  15
ENDBRANCH  13  14
ENDBRANCH  11  13
ENDBRANCH   1  11
BRANCH   7  25
ATOM     25  N   UNL     1      22.241   1.115  53.466  0.00  0.00    -0.299 N 
ATOM     26  H   UNL     1      22.135   1.690  54.258  0.00  0.00    +0.000 HD
BRANCH  25  27
ATOM     27  C   UNL     1      21.060   0.731  52.740  0.00  0.00    +0.033 A 
ATOM     28  C   UNL     1      20.880   1.186  51.423  0.00  0.00    -0.040 A 
ATOM     29  C   UNL     1      19.749   0.810  50.693  0.00  0.00    -0.059 A 
ATOM     30  C   UNL     1      18.794  -0.033  51.265  0.00  0.00    -0.048 A 
ATOM     31  C   UNL     1      18.972  -0.509  52.568  0.00  0.00    +0.020 A 
ATOM     32 BR   UNL     1      17.676  -1.680  53.341  0.00  0.00    -0.050 Br
ATOM     33  C   UNL     1      20.103  -0.135  53.301  0.00  0.00    -0.027 A 
ENDBRANCH  25  27
ENDBRANCH   7  25
TORSDOF 12
ENDMDL
MODEL 7
REMARK VINA RESULT:    -7.109      4.032      7.787
REMARK INTER + INTRA:         -12.810
REMARK INTER:                 -11.562
REMARK INTRA:                  -1.249
REMARK UNBOUND:                -1.130
REMARK  Name = 
REMARK  12 active torsions:
REMARK  status: ('A' for Active; 'I' for Inactive)
REMARK    1  A    between atoms: O_1  and  C_2
REMARK    2  A    between atoms: C_2  and  C_3
REMARK    3  A    between atoms: C_3  and  N_4
REMARK    4  A    between atoms: N_4  and  C_5
REMARK    5  A    between atoms: N_4  and  C_8
REMARK    6  A    between atoms: C_5  and  C_6
REMARK    7  A    between atoms: C_6  and  O_7
REMARK    8  A    between atoms: C_8  and  C_9
REMARK    9  A    between atoms: C_9  and  N_10
REMARK   10  A    between atoms: N_10  and  C_11
REMARK   11  A    between atoms: C_17  and  N_18
REMARK   12  A    between atoms: N_18  and  C_19
REMARK                            x       y       z     vdW  Elec       q    Type
REMARK                         _______ _______ _______ _____ _____    ______ ____
ROOT
ATOM      1  C   UNL     1      23.513   1.424  53.084  0.00  0.00    +0.121 A 
ATOM      2  C   UNL     1      22.281   1.585  52.437  0.00  0.00    +0.004 A 
ATOM      3  C   UNL     1      21.922   2.841  51.943  0.00  0.00    +0.081 A 
ATOM      4  N   UNL     1      20.739   3.003  51.300  0.00  0.00    -0.235 NA
ATOM      5  C   UNL     1      20.371   4.214  50.808  0.00  0.00    +0.119 A 
ATOM      6  N   UNL     1      21.187   5.287  50.958  0.00  0.00    -0.220 NA
ATOM      7  C   UNL     1      22.389   5.190  51.592  0.00  0.00    +0.135 A 
ATOM      8  C   UNL     1      22.793   3.940  52.107  0.00  0.00    +0.059 A 
ATOM      9  C   UNL     1      24.025   3.728  52.750  0.00  0.00    +0.042 A 
ATOM     10  N   UNL     1      24.348   2.493  53.217  0.00  0.00    -0.240 NA
ENDROOT
BRANCH   1  11
ATOM     11  N   UNL     1      23.895   0.139  53.595  0.00  0.00    -0.328 N 
ATOM     12  H   UNL     1      23.449  -0.210  54.400  0.00  0.00    +0.000 HD
BRANCH  11  13
ATOM     13  C   UNL     1      24.933  -0.662  52.947  0.00  0.00    +0.023 C 
BRANCH  13  14
ATOM     14  C   UNL     1      26.134  -0.859  53.875  0.00  0.00    +0.015 C 
BRANCH  14  15
ATOM     15  N   UNL     1      27.384  -0.565  53.135  0.00  0.00    -0.297 N 
ATOM     16  H   UNL     1      27.394  -1.243  52.372  0.00  0.00    +0.000 HD
BRANCH  15  17
ATOM     17  C   UNL     1      27.385   0.769  52.486  0.00  0.00    +0.022 C 
BRANCH  17  18
ATOM     18  C   UNL     1      28.137   1.866  53.270  0.00  0.00    +0.057 C 
BRANCH  18  19
ATOM     19  O   UNL     1      27.257   2.686  53.990  0.00  0.00    -0.394 OA
ATOM     20  H   UNL     1      27.670   3.552  54.137  0.00  0.00    +0.000 HD
ENDBRANCH  18  19
ENDBRANCH  17  18
ENDBRANCH  15  17
BRANCH  15  21
ATOM     21  C   UNL     1      28.621  -0.841  53.901  0.00  0.00    +0.022 C 
BRANCH  21  22
ATOM     22  C   UNL     1      29.392  -2.028  53.314  0.00  0.00    +0.057 C 
BRANCH  22  23
ATOM     23  O   UNL     1      28.627  -3.197  53.397  0.00  0.00    -0.394 OA
ATOM     24  H   UNL     1      28.092  -3.291  52.594  0.00  0.00    +0.000 HD
ENDBRANCH  22  23
ENDBRANCH  21  22
ENDBRANCH  15  21
ENDBRANCH  14  15
ENDBRANCH  13  14
ENDBRANCH  11  13
ENDBRANCH   1  11
BRANCH   7  25
ATOM     25  N   UNL     1      23.190   6.371  51.769  0.00  0.00    -0.299 N 
ATOM     26  H   UNL     1      23.054   6.910  52.581  0.00  0.00    +0.000 HD
BRANCH  25  27
ATOM     27  C   UNL     1      24.180   6.805  50.819  0.00  0.00    +0.033 A 
ATOM     28  C   UNL     1      24.221   8.154  50.431  0.00  0.00    -0.040 A 
ATOM     29  C   UNL     1      25.186   8.601  49.524  0.00  0.00    -0.059 A 
ATOM     30  C   UNL     1      26.127   7.708  49.006  0.00  0.00    -0.048 A 
ATOM     31  C   UNL     1      26.109   6.367  49.400  0.00  0.00    +0.020 A 
ATOM     32 BR   UNL     1      27.410   5.152  48.707  0.00  0.00    -0.050 Br
ATOM     33  C   UNL     1      25.145   5.917  50.308  0.00  0.00    -0.027 A 
ENDBRANCH  25  27
ENDBRANCH   7  25
TORSDOF 12
ENDMDL
MODEL 8
REMARK VINA RESULT:    -7.059      1.656      2.682
REMARK INTER + INTRA:         -12.729
REMARK INTER:                 -11.626
REMARK INTRA:                  -1.104
REMARK UNBOUND:                -1.130
REMARK  Name = 
REMARK  12 active torsions:
REMARK  status: ('A' for Active; 'I' for Inactive)
REMARK    1  A    between atoms: O_1  and  C_2
REMARK    2  A    between atoms: C_2  and  C_3
REMARK    3  A    between atoms: C_3  and  N_4
REMARK    4  A    between atoms: N_4  and  C_5
REMARK    5  A    between atoms: N_4  and  C_8
REMARK    6  A    between atoms: C_5  and  C_6
REMARK    7  A    between atoms: C_6  and  O_7
REMARK    8  A    between atoms: C_8  and  C_9
REMARK    9  A    between atoms: C_9  and  N_10
REMARK   10  A    between atoms: N_10  and  C_11
REMARK   11  A    between atoms: C_17  and  N_18
REMARK   12  A    between atoms: N_18  and  C_19
REMARK                            x       y       z     vdW  Elec       q    Type
REMARK                         _______ _______ _______ _____ _____    ______ ____
ROOT
ATOM      1  C   UNL     1      26.372   5.634  49.315  0.00  0.00    +0.121 A 
ATOM      2  C   UNL     1      25.289   6.156  50.034  0.00  0.00    +0.004 A 
ATOM      3  C   UNL     1      24.444   5.290  50.731  0.00  0.00    +0.081 A 
ATOM      4  N   UNL     1      23.402   5.787  51.444  0.00  0.00    -0.235 NA
ATOM      5  C   UNL     1      22.571   4.965  52.133  0.00  0.00    +0.119 A 
ATOM      6  N   UNL     1      22.769   3.623  52.113  0.00  0.00    -0.220 NA
ATOM      7  C   UNL     1      23.798   3.061  51.419  0.00  0.00    +0.135 A 
ATOM      8  C   UNL     1      24.677   3.898  50.700  0.00  0.00    +0.059 A 
ATOM      9  C   UNL     1      25.785   3.420  49.977  0.00  0.00    +0.042 A 
ATOM     10  N   UNL     1      26.591   4.289  49.312  0.00  0.00    -0.240 NA
ENDROOT
BRANCH   1  11
ATOM     11  N   UNL     1      27.249   6.512  48.595  0.00  0.00    -0.328 N 
ATOM     12  H   UNL     1      26.975   7.445  48.442  0.00  0.00    +0.000 HD
BRANCH  11  13
ATOM     13  C   UNL     1      28.539   6.051  48.083  0.00  0.00    +0.023 C 
BRANCH  13  14
ATOM     14  C   UNL     1      29.337   7.209  47.480  0.00  0.00    +0.015 C 
BRANCH  14  15
ATOM     15  N   UNL     1      30.685   7.253  48.093  0.00  0.00    -0.297 N 
ATOM     16  H   UNL     1      31.312   7.465  47.316  0.00  0.00    +0.000 HD
BRANCH  15  17
ATOM     17  C   UNL     1      30.856   8.365  49.060  0.00  0.00    +0.022 C 
BRANCH  17  18
ATOM     18  C   UNL     1      29.685   9.371  49.100  0.00  0.00    +0.057 C 
BRANCH  18  19
ATOM     19  O   UNL     1      28.726   9.015  50.057  0.00  0.00    -0.394 OA
ATOM     20  H   UNL     1      27.864   8.904  49.625  0.00  0.00    +0.000 HD
ENDBRANCH  18  19
ENDBRANCH  17  18
ENDBRANCH  15  17
BRANCH  15  21
ATOM     21  C   UNL     1      31.156   5.950  48.615  0.00  0.00    +0.022 C 
BRANCH  21  22
ATOM     22  C   UNL     1      31.936   6.118  49.924  0.00  0.00    +0.057 C 
BRANCH  22  23
ATOM     23  O   UNL     1      31.425   5.264  50.909  0.00  0.00    -0.394 OA
ATOM     24  H   UNL     1      31.299   5.760  51.733  0.00  0.00    +0.000 HD
ENDBRANCH  22  23
ENDBRANCH  21  22
ENDBRANCH  15  21
ENDBRANCH  14  15
ENDBRANCH  13  14
ENDBRANCH  11  13
ENDBRANCH   1  11
BRANCH   7  25
ATOM     25  N   UNL     1      23.930   1.629  51.391  0.00  0.00    -0.299 N 
ATOM     26  H   UNL     1      23.648   1.151  50.578  0.00  0.00    +0.000 HD
BRANCH  25  27
ATOM     27  C   UNL     1      24.453   0.861  52.488  0.00  0.00    +0.033 A 
ATOM     28  C   UNL     1      23.579   0.089  53.271  0.00  0.00    -0.040 A 
ATOM     29  C   UNL     1      24.069  -0.679  54.331  0.00  0.00    -0.059 A 
ATOM     30  C   UNL     1      25.437  -0.694  54.612  0.00  0.00    -0.048 A 
ATOM     31  C   UNL     1      26.320   0.053  53.827  0.00  0.00    +0.020 A 
ATOM     32 BR   UNL     1      28.193   0.014  54.197  0.00  0.00    -0.050 Br
ATOM     33  C   UNL     1      25.833   0.823  52.765  0.00  0.00    -0.027 A 
ENDBRANCH  25  27
ENDBRANCH   7  25
TORSDOF 12
ENDMDL
MODEL 9
REMARK VINA RESULT:    -6.954      1.645      2.596
REMARK INTER + INTRA:         -12.556
REMARK INTER:                 -11.331
REMARK INTRA:                  -1.224
REMARK UNBOUND:                -1.130
REMARK  Name = 
REMARK  12 active torsions:
REMARK  status: ('A' for Active; 'I' for Inactive)
REMARK    1  A    between atoms: O_1  and  C_2
REMARK    2  A    between atoms: C_2  and  C_3
REMARK    3  A    between atoms: C_3  and  N_4
REMARK    4  A    between atoms: N_4  and  C_5
REMARK    5  A    between atoms: N_4  and  C_8
REMARK    6  A    between atoms: C_5  and  C_6
REMARK    7  A    between atoms: C_6  and  O_7
REMARK    8  A    between atoms: C_8  and  C_9
REMARK    9  A    between atoms: C_9  and  N_10
REMARK   10  A    between atoms: N_10  and  C_11
REMARK   11  A    between atoms: C_17  and  N_18
REMARK   12  A    between atoms: N_18  and  C_19
REMARK                            x       y       z     vdW  Elec       q    Type
REMARK                         _______ _______ _______ _____ _____    ______ ____
ROOT
ATOM      1  C   UNL     1      24.120   7.033  50.685  0.00  0.00    +0.121 A 
ATOM      2  C   UNL     1      22.736   6.885  50.842  0.00  0.00    +0.004 A 
ATOM      3  C   UNL     1      22.181   5.605  50.883  0.00  0.00    +0.081 A 
ATOM      4  N   UNL     1      20.843   5.451  51.052  0.00  0.00    -0.235 NA
ATOM      5  C   UNL     1      20.282   4.216  51.100  0.00  0.00    +0.119 A 
ATOM      6  N   UNL     1      21.057   3.110  50.972  0.00  0.00    -0.220 NA
ATOM      7  C   UNL     1      22.406   3.196  50.803  0.00  0.00    +0.135 A 
ATOM      8  C   UNL     1      23.011   4.470  50.755  0.00  0.00    +0.059 A 
ATOM      9  C   UNL     1      24.396   4.666  50.614  0.00  0.00    +0.042 A 
ATOM     10  N   UNL     1      24.907   5.925  50.581  0.00  0.00    -0.240 NA
ENDROOT
BRANCH   1  11
ATOM     11  N   UNL     1      24.704   8.343  50.642  0.00  0.00    -0.328 N 
ATOM     12  H   UNL     1      24.421   9.017  51.300  0.00  0.00    +0.000 HD
BRANCH  11  13
ATOM     13  C   UNL     1      25.710   8.697  49.641  0.00  0.00    +0.023 C 
BRANCH  13  14
ATOM     14  C   UNL     1      27.104   8.778  50.266  0.00  0.00    +0.015 C 
BRANCH  14  15
ATOM     15  N   UNL     1      28.086   8.120  49.373  0.00  0.00    -0.297 N 
ATOM     16  H   UNL     1      28.681   7.580  50.002  0.00  0.00    +0.000 HD
BRANCH  15  17
ATOM     17  C   UNL     1      27.475   7.130  48.453  0.00  0.00    +0.022 C 
BRANCH  17  18
ATOM     18  C   UNL     1      28.221   5.781  48.370  0.00  0.00    +0.057 C 
BRANCH  18  19
ATOM     19  O   UNL     1      27.827   4.905  49.391  0.00  0.00    -0.394 OA
ATOM     20  H   UNL     1      26.989   4.481  49.147  0.00  0.00    +0.000 HD
ENDBRANCH  18  19
ENDBRANCH  17  18
ENDBRANCH  15  17
BRANCH  15  21
ATOM     21  C   UNL     1      29.008   9.057  48.692  0.00  0.00    +0.022 C 
BRANCH  21  22
ATOM     22  C   UNL     1      30.435   8.936  49.237  0.00  0.00    +0.057 C 
BRANCH  22  23
ATOM     23  O   UNL     1      30.625   9.817  50.309  0.00  0.00    -0.394 OA
ATOM     24  H   UNL     1      30.313   9.402  51.127  0.00  0.00    +0.000 HD
ENDBRANCH  22  23
ENDBRANCH  21  22
ENDBRANCH  15  21
ENDBRANCH  14  15
ENDBRANCH  13  14
ENDBRANCH  11  13
ENDBRANCH   1  11
BRANCH   7  25
ATOM     25  N   UNL     1      23.172   1.993  50.621  0.00  0.00    -0.299 N 
ATOM     26  H   UNL     1      23.392   1.713  49.703  0.00  0.00    +0.000 HD
BRANCH  25  27
ATOM     27  C   UNL     1      23.635   1.176  51.712  0.00  0.00    +0.033 A 
ATOM     28  C   UNL     1      25.002   1.163  52.035  0.00  0.00    -0.040 A 
ATOM     29  C   UNL     1      25.469   0.391  53.102  0.00  0.00    -0.059 A 
ATOM     30  C   UNL     1      24.576  -0.365  53.864  0.00  0.00    -0.048 A 
ATOM     31  C   UNL     1      23.210  -0.344  53.565  0.00  0.00    +0.020 A 
ATOM     32 BR   UNL     1      21.987  -1.361  54.622  0.00  0.00    -0.050 Br
ATOM     33  C   UNL     1      22.739   0.428  52.498  0.00  0.00    -0.027 A 
ENDBRANCH  25  27
ENDBRANCH   7  25
TORSDOF 12
ENDMDL
