MODEL 1
REMARK VINA RESULT:    -8.719      0.000      0.000
REMARK INTER + INTRA:         -12.702
REMARK INTER:                 -11.777
REMARK INTRA:                  -0.926
REMARK UNBOUND:                -0.926
REMARK  Name = 
REMARK  8 active torsions:
REMARK  status: ('A' for Active; 'I' for Inactive)
REMARK    1  A    between atoms: C_1  and  O_2
REMARK    2  A    between atoms: O_2  and  C_3
REMARK    3  A    between atoms: C_6  and  N_7
REMARK    4  A    between atoms: N_7  and  C_8
REMARK    5  A    between atoms: C_22  and  O_23
REMARK    6  A    between atoms: O_23  and  C_24
REMARK    7  A    between atoms: C_24  and  C_25
REMARK    8  A    between atoms: N_28  and  C_29
REMARK                            x       y       z     vdW  Elec       q    Type
REMARK                         _______ _______ _______ _____ _____    ______ ____
ROOT
ATOM      1  C   UNL     1      22.013   0.608  52.741  0.00  0.00    +0.162 A 
ATOM      2  C   UNL     1      23.279   1.168  53.008  0.00  0.00    -0.004 A 
ATOM      3  C   UNL     1      23.970   1.875  52.008  0.00  0.00    +0.044 A 
ATOM      4  C   UNL     1      25.252   2.438  52.210  0.00  0.00    +0.134 A 
ATOM      5  N   UNL     1      25.830   3.149  51.200  0.00  0.00    -0.220 NA
ATOM      6  C   UNL     1      25.211   3.329  50.007  0.00  0.00    +0.119 A 
ATOM      7  N   UNL     1      23.988   2.785  49.787  0.00  0.00    -0.235 NA
ATOM      8  C   UNL     1      23.358   2.064  50.750  0.00  0.00    +0.080 A 
ATOM      9  C   UNL     1      22.099   1.516  50.490  0.00  0.00    +0.010 A 
ATOM     10  C   UNL     1      21.434   0.761  51.472  0.00  0.00    +0.164 A 
ENDROOT
BRANCH   1  12
ATOM     11  C   UNL     1      21.734  -1.339  54.293  0.00  0.00    +0.079 C 
ATOM     12  O   UNL     1      21.298  -0.113  53.712  0.00  0.00    -0.491 OA
ENDBRANCH   1  12
BRANCH   4  13
ATOM     13  N   UNL     1      25.988   2.225  53.428  0.00  0.00    -0.294 N 
ATOM     14  H   UNL     1      25.730   2.736  54.230  0.00  0.00    +0.000 HD
BRANCH  13  15
ATOM     15  C   UNL     1      27.083   1.300  53.523  0.00  0.00    +0.104 A 
ATOM     16  C   UNL     1      26.821  -0.078  53.618  0.00  0.00    +0.149 A 
ATOM     17  F   UNL     1      25.544  -0.540  53.592  0.00  0.00    -0.203 F 
ATOM     18  C   UNL     1      27.874  -0.992  53.730  0.00  0.00    -0.006 A 
ATOM     19  C   UNL     1      29.195  -0.537  53.764  0.00  0.00    +0.047 A 
ATOM     20 CL   UNL     1      30.513  -1.686  53.911  0.00  0.00    -0.083 Cl
ATOM     21  C   UNL     1      29.463   0.832  53.694  0.00  0.00    -0.006 A 
ATOM     22  C   UNL     1      28.415   1.752  53.580  0.00  0.00    +0.149 A 
ATOM     23  F   UNL     1      28.698   3.079  53.570  0.00  0.00    -0.203 F 
ENDBRANCH  13  15
ENDBRANCH   4  13
BRANCH  10  24
ATOM     24  O   UNL     1      20.184   0.164  51.240  0.00  0.00    -0.488 OA
BRANCH  24  25
ATOM     25  C   UNL     1      18.910   0.796  51.390  0.00  0.00    +0.093 C 
BRANCH  25  26
ATOM     26  C   UNL     1      17.809  -0.250  51.683  0.00  0.00    -0.004 C 
ATOM     27  C   UNL     1      18.157  -1.090  52.922  0.00  0.00    -0.034 C 
ATOM     28  C   UNL     1      17.116  -2.209  53.137  0.00  0.00    -0.001 C 
ATOM     29  N   UNL     1      15.716  -1.807  52.838  0.00  0.00    -0.305 N 
ATOM     30  C   UNL     1      15.203  -2.429  51.603  0.00  0.00    -0.013 C 
ATOM     31  C   UNL     1      15.504  -0.345  52.847  0.00  0.00    -0.001 C 
ATOM     32  C   UNL     1      16.411   0.399  51.846  0.00  0.00    -0.034 C 
ATOM     33  H   UNL     1      15.161  -2.174  53.612  0.00  0.00    +0.000 HD
ENDBRANCH  25  26
ENDBRANCH  24  25
ENDBRANCH  10  24
TORSDOF 6
ENDMDL
MODEL 2
REMARK VINA RESULT:    -8.301      2.242      2.723
REMARK INTER + INTRA:         -12.139
REMARK INTER:                 -10.963
REMARK INTRA:                  -1.176
REMARK UNBOUND:                -0.926
REMARK  Name = 
REMARK  8 active torsions:
REMARK  status: ('A' for Active; 'I' for Inactive)
REMARK    1  A    between atoms: C_1  and  O_2
REMARK    2  A    between atoms: O_2  and  C_3
REMARK    3  A    between atoms: C_6  and  N_7
REMARK    4  A    between atoms: N_7  and  C_8
REMARK    5  A    between atoms: C_22  and  O_23
REMARK    6  A    between atoms: O_23  and  C_24
REMARK    7  A    between atoms: C_24  and  C_25
REMARK    8  A    between atoms: N_28  and  C_29
REMARK                            x       y       z     vdW  Elec       q    Type
REMARK                         _______ _______ _______ _____ _____    ______ ____
ROOT
ATOM      1  C   UNL     1      21.761   1.249  52.626  0.00  0.00    +0.162 A 
ATOM      2  C   UNL     1      23.096   1.630  52.871  0.00  0.00    -0.004 A 
ATOM      3  C   UNL     1      23.878   2.190  51.844  0.00  0.00    +0.044 A 
ATOM      4  C   UNL     1      25.228   2.569  52.025  0.00  0.00    +0.134 A 
ATOM      5  N   UNL     1      25.898   3.148  50.988  0.00  0.00    -0.220 NA
ATOM      6  C   UNL     1      25.305   3.367  49.788  0.00  0.00    +0.119 A 
ATOM      7  N   UNL     1      24.016   2.998  49.589  0.00  0.00    -0.235 NA
ATOM      8  C   UNL     1      23.293   2.415  50.579  0.00  0.00    +0.080 A 
ATOM      9  C   UNL     1      21.967   2.044  50.340  0.00  0.00    +0.010 A 
ATOM     10  C   UNL     1      21.204   1.433  51.350  0.00  0.00    +0.164 A 
ENDROOT
BRANCH   1  12
ATOM     11  C   UNL     1      21.431  -0.175  54.660  0.00  0.00    +0.079 C 
ATOM     12  O   UNL     1      20.954   0.678  53.624  0.00  0.00    -0.491 OA
ENDBRANCH   1  12
BRANCH   4  13
ATOM     13  N   UNL     1      25.931   2.302  53.251  0.00  0.00    -0.294 N 
ATOM     14  H   UNL     1      25.691   2.819  54.055  0.00  0.00    +0.000 HD
BRANCH  13  15
ATOM     15  C   UNL     1      26.968   1.313  53.353  0.00  0.00    +0.104 A 
ATOM     16  C   UNL     1      26.631  -0.052  53.327  0.00  0.00    +0.149 A 
ATOM     17  F   UNL     1      25.337  -0.439  53.180  0.00  0.00    -0.203 F 
ATOM     18  C   UNL     1      27.626  -1.028  53.444  0.00  0.00    -0.006 A 
ATOM     19  C   UNL     1      28.962  -0.651  53.602  0.00  0.00    +0.047 A 
ATOM     20 CL   UNL     1      30.207  -1.879  53.755  0.00  0.00    -0.083 Cl
ATOM     21  C   UNL     1      29.303   0.703  53.652  0.00  0.00    -0.006 A 
ATOM     22  C   UNL     1      28.313   1.685  53.535  0.00  0.00    +0.149 A 
ATOM     23  F   UNL     1      28.663   2.992  53.643  0.00  0.00    -0.203 F 
ENDBRANCH  13  15
ENDBRANCH   4  13
BRANCH  10  24
ATOM     24  O   UNL     1      19.881   1.014  51.142  0.00  0.00    -0.488 OA
BRANCH  24  25
ATOM     25  C   UNL     1      19.153   1.107  49.915  0.00  0.00    +0.093 C 
BRANCH  25  26
ATOM     26  C   UNL     1      18.066   2.204  50.002  0.00  0.00    -0.004 C 
ATOM     27  C   UNL     1      17.773   2.580  51.463  0.00  0.00    -0.034 C 
ATOM     28  C   UNL     1      16.605   3.585  51.548  0.00  0.00    -0.001 C 
ATOM     29  N   UNL     1      16.596   4.605  50.466  0.00  0.00    -0.305 N 
ATOM     30  C   UNL     1      15.510   4.384  49.493  0.00  0.00    -0.013 C 
ATOM     31  C   UNL     1      17.904   4.776  49.801  0.00  0.00    -0.001 C 
ATOM     32  C   UNL     1      18.439   3.466  49.184  0.00  0.00    -0.034 C 
ATOM     33  H   UNL     1      16.404   5.491  50.934  0.00  0.00    +0.000 HD
ENDBRANCH  25  26
ENDBRANCH  24  25
ENDBRANCH  10  24
TORSDOF 6
ENDMDL
MODEL 3
REMARK VINA RESULT:    -8.287      4.622      9.330
REMARK INTER + INTRA:         -12.120
REMARK INTER:                 -10.787
REMARK INTRA:                  -1.333
REMARK UNBOUND:                -0.926
REMARK  Name = 
REMARK  8 active torsions:
REMARK  status: ('A' for Active; 'I' for Inactive)
REMARK    1  A    between atoms: C_1  and  O_2
REMARK    2  A    between atoms: O_2  and  C_3
REMARK    3  A    between atoms: C_6  and  N_7
REMARK    4  A    between atoms: N_7  and  C_8
REMARK    5  A    between atoms: C_22  and  O_23
REMARK    6  A    between atoms: O_23  and  C_24
REMARK    7  A    between atoms: C_24  and  C_25
REMARK    8  A    between atoms: N_28  and  C_29
REMARK                            x       y       z     vdW  Elec       q    Type
REMARK                         _______ _______ _______ _____ _____    ______ ____
ROOT
ATOM      1  C   UNL     1      23.146   2.547  51.414  0.00  0.00    +0.162 A 
ATOM      2  C   UNL     1      21.842   2.015  51.350  0.00  0.00    -0.004 A 
ATOM      3  C   UNL     1      21.449   0.983  52.222  0.00  0.00    +0.044 A 
ATOM      4  C   UNL     1      20.164   0.395  52.189  0.00  0.00    +0.134 A 
ATOM      5  N   UNL     1      19.852  -0.568  53.102  0.00  0.00    -0.220 NA
ATOM      6  C   UNL     1      20.741  -0.978  54.040  0.00  0.00    +0.119 A 
ATOM      7  N   UNL     1      21.984  -0.437  54.081  0.00  0.00    -0.235 NA
ATOM      8  C   UNL     1      22.360   0.524  53.198  0.00  0.00    +0.080 A 
ATOM      9  C   UNL     1      23.649   1.059  53.266  0.00  0.00    +0.010 A 
ATOM     10  C   UNL     1      24.059   2.049  52.358  0.00  0.00    +0.164 A 
ENDROOT
BRANCH   1  12
ATOM     11  C   UNL     1      23.722   3.432  49.142  0.00  0.00    +0.079 C 
ATOM     12  O   UNL     1      23.576   3.569  50.553  0.00  0.00    -0.491 OA
ENDBRANCH   1  12
BRANCH   4  13
ATOM     13  N   UNL     1      19.201   0.739  51.176  0.00  0.00    -0.294 N 
ATOM     14  H   UNL     1      19.397   0.504  50.240  0.00  0.00    +0.000 HD
BRANCH  13  15
ATOM     15  C   UNL     1      17.968   1.412  51.474  0.00  0.00    +0.104 A 
ATOM     16  C   UNL     1      16.792   0.661  51.653  0.00  0.00    +0.149 A 
ATOM     17  F   UNL     1      16.823  -0.694  51.573  0.00  0.00    -0.203 F 
ATOM     18  C   UNL     1      15.579   1.301  51.924  0.00  0.00    -0.006 A 
ATOM     19  C   UNL     1      15.525   2.696  52.005  0.00  0.00    +0.047 A 
ATOM     20 CL   UNL     1      13.999   3.495  52.340  0.00  0.00    -0.083 Cl
ATOM     21  C   UNL     1      16.683   3.451  51.806  0.00  0.00    -0.006 A 
ATOM     22  C   UNL     1      17.901   2.817  51.535  0.00  0.00    +0.149 A 
ATOM     23  F   UNL     1      19.000   3.575  51.289  0.00  0.00    -0.203 F 
ENDBRANCH  13  15
ENDBRANCH   4  13
BRANCH  10  24
ATOM     24  O   UNL     1      25.355   2.588  52.369  0.00  0.00    -0.488 OA
BRANCH  24  25
ATOM     25  C   UNL     1      26.456   2.145  51.571  0.00  0.00    +0.093 C 
BRANCH  25  26
ATOM     26  C   UNL     1      27.306   1.104  52.337  0.00  0.00    -0.004 C 
ATOM     27  C   UNL     1      27.328   1.406  53.844  0.00  0.00    -0.034 C 
ATOM     28  C   UNL     1      28.275   0.437  54.584  0.00  0.00    -0.001 C 
ATOM     29  N   UNL     1      28.245  -0.958  54.071  0.00  0.00    -0.305 N 
ATOM     30  C   UNL     1      29.473  -1.315  53.337  0.00  0.00    -0.013 C 
ATOM     31  C   UNL     1      27.028  -1.279  53.297  0.00  0.00    -0.001 C 
ATOM     32  C   UNL     1      26.825  -0.347  52.084  0.00  0.00    -0.034 C 
ATOM     33  H   UNL     1      28.210  -1.548  54.903  0.00  0.00    +0.000 HD
ENDBRANCH  25  26
ENDBRANCH  24  25
ENDBRANCH  10  24
TORSDOF 6
ENDMDL
MODEL 4
REMARK VINA RESULT:    -8.238      2.166      3.687
REMARK INTER + INTRA:         -12.053
REMARK INTER:                 -11.082
REMARK INTRA:                  -0.970
REMARK UNBOUND:                -0.926
REMARK  Name = 
REMARK  8 active torsions:
REMARK  status: ('A' for Active; 'I' for Inactive)
REMARK    1  A    between atoms: C_1  and  O_2
REMARK    2  A    between atoms: O_2  and  C_3
REMARK    3  A    between atoms: C_6  and  N_7
REMARK    4  A    between atoms: N_7  and  C_8
REMARK    5  A    between atoms: C_22  and  O_23
REMARK    6  A    between atoms: O_23  and  C_24
REMARK    7  A    between atoms: C_24  and  C_25
REMARK    8  A    between atoms: N_28  and  C_29
REMARK                            x       y       z     vdW  Elec       q    Type
REMARK                         _______ _______ _______ _____ _____    ______ ____
ROOT
ATOM      1  C   UNL     1      20.762   0.775  51.067  0.00  0.00    +0.162 A 
ATOM      2  C   UNL     1      22.088   0.614  51.517  0.00  0.00    -0.004 A 
ATOM      3  C   UNL     1      22.349   0.028  52.770  0.00  0.00    +0.044 A 
ATOM      4  C   UNL     1      23.655  -0.139  53.284  0.00  0.00    +0.134 A 
ATOM      5  N   UNL     1      23.820  -0.760  54.487  0.00  0.00    -0.220 NA
ATOM      6  C   UNL     1      22.764  -1.220  55.203  0.00  0.00    +0.119 A 
ATOM      7  N   UNL     1      21.502  -1.057  54.735  0.00  0.00    -0.235 NA
ATOM      8  C   UNL     1      21.268  -0.446  53.546  0.00  0.00    +0.080 A 
ATOM      9  C   UNL     1      19.955  -0.293  53.094  0.00  0.00    +0.010 A 
ATOM     10  C   UNL     1      19.693   0.344  51.868  0.00  0.00    +0.164 A 
ENDROOT
BRANCH   1  12
ATOM     11  C   UNL     1      21.371   1.452  48.733  0.00  0.00    +0.079 C 
ATOM     12  O   UNL     1      20.464   1.365  49.827  0.00  0.00    -0.491 OA
ENDBRANCH   1  12
BRANCH   4  13
ATOM     13  N   UNL     1      24.808   0.386  52.603  0.00  0.00    -0.294 N 
ATOM     14  H   UNL     1      24.670   1.012  51.855  0.00  0.00    +0.000 HD
BRANCH  13  15
ATOM     15  C   UNL     1      26.153   0.036  52.968  0.00  0.00    +0.104 A 
ATOM     16  C   UNL     1      26.944   0.959  53.674  0.00  0.00    +0.149 A 
ATOM     17  F   UNL     1      26.437   2.166  54.036  0.00  0.00    -0.203 F 
ATOM     18  C   UNL     1      28.262   0.642  54.020  0.00  0.00    -0.006 A 
ATOM     19  C   UNL     1      28.805  -0.592  53.652  0.00  0.00    +0.047 A 
ATOM     20 CL   UNL     1      30.460  -0.984  54.084  0.00  0.00    -0.083 Cl
ATOM     21  C   UNL     1      28.034  -1.506  52.930  0.00  0.00    -0.006 A 
ATOM     22  C   UNL     1      26.715  -1.196  52.581  0.00  0.00    +0.149 A 
ATOM     23  F   UNL     1      26.005  -2.077  51.832  0.00  0.00    -0.203 F 
ENDBRANCH  13  15
ENDBRANCH   4  13
BRANCH  10  24
ATOM     24  O   UNL     1      18.388   0.550  51.394  0.00  0.00    -0.488 OA
BRANCH  24  25
ATOM     25  C   UNL     1      17.299  -0.370  51.502  0.00  0.00    +0.093 C 
BRANCH  25  26
ATOM     26  C   UNL     1      15.960   0.381  51.685  0.00  0.00    -0.004 C 
ATOM     27  C   UNL     1      15.273  -0.022  52.999  0.00  0.00    -0.034 C 
ATOM     28  C   UNL     1      13.883   0.639  53.118  0.00  0.00    -0.001 C 
ATOM     29  N   UNL     1      13.823   2.033  52.606  0.00  0.00    -0.305 N 
ATOM     30  C   UNL     1      13.072   2.138  51.341  0.00  0.00    -0.013 C 
ATOM     31  C   UNL     1      15.145   2.689  52.516  0.00  0.00    -0.001 C 
ATOM     32  C   UNL     1      16.137   1.920  51.619  0.00  0.00    -0.034 C 
ATOM     33  H   UNL     1      13.301   2.555  53.310  0.00  0.00    +0.000 HD
ENDBRANCH  25  26
ENDBRANCH  24  25
ENDBRANCH  10  24
TORSDOF 6
ENDMDL
MODEL 5
REMARK VINA RESULT:    -8.076      4.559      9.591
REMARK INTER + INTRA:         -11.835
REMARK INTER:                 -10.566
REMARK INTRA:                  -1.269
REMARK UNBOUND:                -0.926
REMARK  Name = 
REMARK  8 active torsions:
REMARK  status: ('A' for Active; 'I' for Inactive)
REMARK    1  A    between atoms: C_1  and  O_2
REMARK    2  A    between atoms: O_2  and  C_3
REMARK    3  A    between atoms: C_6  and  N_7
REMARK    4  A    between atoms: N_7  and  C_8
REMARK    5  A    between atoms: C_22  and  O_23
REMARK    6  A    between atoms: O_23  and  C_24
REMARK    7  A    between atoms: C_24  and  C_25
REMARK    8  A    between atoms: N_28  and  C_29
REMARK                            x       y       z     vdW  Elec       q    Type
REMARK                         _______ _______ _______ _____ _____    ______ ____
ROOT
ATOM      1  C   UNL     1      23.146   2.176  51.027  0.00  0.00    +0.162 A 
ATOM      2  C   UNL     1      21.847   1.634  51.099  0.00  0.00    -0.004 A 
ATOM      3  C   UNL     1      21.485   0.789  52.164  0.00  0.00    +0.044 A 
ATOM      4  C   UNL     1      20.206   0.197  52.277  0.00  0.00    +0.134 A 
ATOM      5  N   UNL     1      19.925  -0.571  53.367  0.00  0.00    -0.220 NA
ATOM      6  C   UNL     1      20.840  -0.786  54.345  0.00  0.00    +0.119 A 
ATOM      7  N   UNL     1      22.078  -0.241  54.249  0.00  0.00    -0.235 NA
ATOM      8  C   UNL     1      22.423   0.533  53.188  0.00  0.00    +0.080 A 
ATOM      9  C   UNL     1      23.708   1.079  53.120  0.00  0.00    +0.010 A 
ATOM     10  C   UNL     1      24.086   1.877  52.026  0.00  0.00    +0.164 A 
ENDROOT
BRANCH   1  12
ATOM     11  C   UNL     1      22.840   3.162  48.744  0.00  0.00    +0.079 C 
ATOM     12  O   UNL     1      23.546   3.015  49.973  0.00  0.00    -0.491 OA
ENDBRANCH   1  12
BRANCH   4  13
ATOM     13  N   UNL     1      19.217   0.332  51.241  0.00  0.00    -0.294 N 
ATOM     14  H   UNL     1      19.421  -0.020  50.345  0.00  0.00    +0.000 HD
BRANCH  13  15
ATOM     15  C   UNL     1      17.944   0.962  51.460  0.00  0.00    +0.104 A 
ATOM     16  C   UNL     1      17.850   2.365  51.438  0.00  0.00    +0.149 A 
ATOM     17  F   UNL     1      18.948   3.124  51.185  0.00  0.00    -0.203 F 
ATOM     18  C   UNL     1      16.624   2.995  51.668  0.00  0.00    -0.006 A 
ATOM     19  C   UNL     1      15.483   2.233  51.935  0.00  0.00    +0.047 A 
ATOM     20 CL   UNL     1      13.946   3.028  52.228  0.00  0.00    -0.083 Cl
ATOM     21  C   UNL     1      15.572   0.839  51.982  0.00  0.00    -0.006 A 
ATOM     22  C   UNL     1      16.796   0.202  51.752  0.00  0.00    +0.149 A 
ATOM     23  F   UNL     1      16.868  -1.149  51.858  0.00  0.00    -0.203 F 
ENDBRANCH  13  15
ENDBRANCH   4  13
BRANCH  10  24
ATOM     24  O   UNL     1      25.376   2.415  51.901  0.00  0.00    -0.488 OA
BRANCH  24  25
ATOM     25  C   UNL     1      26.459   1.841  51.164  0.00  0.00    +0.093 C 
BRANCH  25  26
ATOM     26  C   UNL     1      27.506   1.222  52.119  0.00  0.00    -0.004 C 
ATOM     27  C   UNL     1      27.780   2.146  53.316  0.00  0.00    -0.034 C 
ATOM     28  C   UNL     1      28.913   1.579  54.200  0.00  0.00    -0.001 C 
ATOM     29  N   UNL     1      28.890   0.100  54.348  0.00  0.00    -0.305 N 
ATOM     30  C   UNL     1      29.987  -0.557  53.613  0.00  0.00    -0.013 C 
ATOM     31  C   UNL     1      27.578  -0.507  54.039  0.00  0.00    -0.001 C 
ATOM     32  C   UNL     1      27.092  -0.189  52.609  0.00  0.00    -0.034 C 
ATOM     33  H   UNL     1      29.049  -0.072  55.341  0.00  0.00    +0.000 HD
ENDBRANCH  25  26
ENDBRANCH  24  25
ENDBRANCH  10  24
TORSDOF 6
ENDMDL
MODEL 6
REMARK VINA RESULT:    -7.825      4.435      8.970
REMARK INTER + INTRA:         -11.495
REMARK INTER:                 -10.471
REMARK INTRA:                  -1.024
REMARK UNBOUND:                -0.926
REMARK  Name = 
REMARK  8 active torsions:
REMARK  status: ('A' for Active; 'I' for Inactive)
REMARK    1  A    between atoms: C_1  and  O_2
REMARK    2  A    between atoms: O_2  and  C_3
REMARK    3  A    between atoms: C_6  and  N_7
REMARK    4  A    between atoms: N_7  and  C_8
REMARK    5  A    between atoms: C_22  and  O_23
REMARK    6  A    between atoms: O_23  and  C_24
REMARK    7  A    between atoms: C_24  and  C_25
REMARK    8  A    between atoms: N_28  and  C_29
REMARK                            x       y       z     vdW  Elec       q    Type
REMARK                         _______ _______ _______ _____ _____    ______ ____
ROOT
ATOM      1  C   UNL     1      22.155   0.479  52.124  0.00  0.00    +0.162 A 
ATOM      2  C   UNL     1      21.161   0.644  51.139  0.00  0.00    -0.004 A 
ATOM      3  C   UNL     1      21.387   1.481  50.031  0.00  0.00    +0.044 A 
ATOM      4  C   UNL     1      20.419   1.703  49.024  0.00  0.00    +0.134 A 
ATOM      5  N   UNL     1      20.739   2.493  47.960  0.00  0.00    -0.220 NA
ATOM      6  C   UNL     1      21.959   3.073  47.843  0.00  0.00    +0.119 A 
ATOM      7  N   UNL     1      22.897   2.886  48.804  0.00  0.00    -0.235 NA
ATOM      8  C   UNL     1      22.642   2.112  49.891  0.00  0.00    +0.080 A 
ATOM      9  C   UNL     1      23.630   1.941  50.864  0.00  0.00    +0.010 A 
ATOM     10  C   UNL     1      23.382   1.150  51.999  0.00  0.00    +0.164 A 
ENDROOT
BRANCH   1  12
ATOM     11  C   UNL     1      21.216   0.034  54.403  0.00  0.00    +0.079 C 
ATOM     12  O   UNL     1      21.961  -0.340  53.249  0.00  0.00    -0.491 OA
ENDBRANCH   1  12
BRANCH   4  13
ATOM     13  N   UNL     1      19.087   1.170  49.126  0.00  0.00    -0.294 N 
ATOM     14  H   UNL     1      18.837   0.411  48.550  0.00  0.00    +0.000 HD
BRANCH  13  15
ATOM     15  C   UNL     1      18.105   1.699  50.031  0.00  0.00    +0.104 A 
ATOM     16  C   UNL     1      17.482   0.845  50.957  0.00  0.00    +0.149 A 
ATOM     17  F   UNL     1      17.823  -0.469  51.019  0.00  0.00    -0.203 F 
ATOM     18  C   UNL     1      16.510   1.338  51.833  0.00  0.00    -0.006 A 
ATOM     19  C   UNL     1      16.141   2.686  51.782  0.00  0.00    +0.047 A 
ATOM     20 CL   UNL     1      14.917   3.301  52.879  0.00  0.00    -0.083 Cl
ATOM     21  C   UNL     1      16.738   3.537  50.849  0.00  0.00    -0.006 A 
ATOM     22  C   UNL     1      17.712   3.050  49.970  0.00  0.00    +0.149 A 
ATOM     23  F   UNL     1      18.236   3.883  49.036  0.00  0.00    -0.203 F 
ENDBRANCH  13  15
ENDBRANCH   4  13
BRANCH  10  24
ATOM     24  O   UNL     1      24.334   0.980  53.017  0.00  0.00    -0.488 OA
BRANCH  24  25
ATOM     25  C   UNL     1      25.384   1.892  53.347  0.00  0.00    +0.093 C 
BRANCH  25  26
ATOM     26  C   UNL     1      26.724   1.142  53.537  0.00  0.00    -0.004 C 
ATOM     27  C   UNL     1      26.825   0.537  54.946  0.00  0.00    -0.034 C 
ATOM     28  C   UNL     1      28.212  -0.105  55.169  0.00  0.00    -0.001 C 
ATOM     29  N   UNL     1      28.759  -0.808  53.979  0.00  0.00    -0.305 N 
ATOM     30  C   UNL     1      29.888  -0.085  53.366  0.00  0.00    -0.013 C 
ATOM     31  C   UNL     1      27.731  -1.172  52.981  0.00  0.00    -0.001 C 
ATOM     32  C   UNL     1      26.941   0.047  52.462  0.00  0.00    -0.034 C 
ATOM     33  H   UNL     1      29.126  -1.691  54.335  0.00  0.00    +0.000 HD
ENDBRANCH  25  26
ENDBRANCH  24  25
ENDBRANCH  10  24
TORSDOF 6
ENDMDL
MODEL 7
REMARK VINA RESULT:    -7.793      4.381      9.236
REMARK INTER + INTRA:         -11.452
REMARK INTER:                 -10.464
REMARK INTRA:                  -0.987
REMARK UNBOUND:                -0.926
REMARK  Name = 
REMARK  8 active torsions:
REMARK  status: ('A' for Active; 'I' for Inactive)
REMARK    1  A    between atoms: C_1  and  O_2
REMARK    2  A    between atoms: O_2  and  C_3
REMARK    3  A    between atoms: C_6  and  N_7
REMARK    4  A    between atoms: N_7  and  C_8
REMARK    5  A    between atoms: C_22  and  O_23
REMARK    6  A    between atoms: O_23  and  C_24
REMARK    7  A    between atoms: C_24  and  C_25
REMARK    8  A    between atoms: N_28  and  C_29
REMARK                            x       y       z     vdW  Elec       q    Type
REMARK                         _______ _______ _______ _____ _____    ______ ____
ROOT
ATOM      1  C   UNL     1      22.020   0.177  52.226  0.00  0.00    +0.162 A 
ATOM      2  C   UNL     1      20.856   0.199  51.431  0.00  0.00    -0.004 A 
ATOM      3  C   UNL     1      20.531   1.339  50.674  0.00  0.00    +0.044 A 
ATOM      4  C   UNL     1      19.366   1.428  49.878  0.00  0.00    +0.134 A 
ATOM      5  N   UNL     1      19.153   2.554  49.139  0.00  0.00    -0.220 NA
ATOM      6  C   UNL     1      20.026   3.591  49.149  0.00  0.00    +0.119 A 
ATOM      7  N   UNL     1      21.142   3.533  49.917  0.00  0.00    -0.235 NA
ATOM      8  C   UNL     1      21.413   2.442  50.679  0.00  0.00    +0.080 A 
ATOM      9  C   UNL     1      22.571   2.415  51.460  0.00  0.00    +0.010 A 
ATOM     10  C   UNL     1      22.865   1.297  52.260  0.00  0.00    +0.164 A 
ENDROOT
BRANCH   1  12
ATOM     11  C   UNL     1      21.615  -1.426  54.108  0.00  0.00    +0.079 C 
ATOM     12  O   UNL     1      22.370  -0.940  53.002  0.00  0.00    -0.491 OA
ENDBRANCH   1  12
BRANCH   4  13
ATOM     13  N   UNL     1      18.370   0.390  49.877  0.00  0.00    -0.294 N 
ATOM     14  H   UNL     1      18.459  -0.349  49.233  0.00  0.00    +0.000 HD
BRANCH  13  15
ATOM     15  C   UNL     1      17.249   0.388  50.776  0.00  0.00    +0.104 A 
ATOM     16  C   UNL     1      16.179   1.273  50.555  0.00  0.00    +0.149 A 
ATOM     17  F   UNL     1      16.187   2.108  49.483  0.00  0.00    -0.203 F 
ATOM     18  C   UNL     1      15.090   1.298  51.430  0.00  0.00    -0.006 A 
ATOM     19  C   UNL     1      15.064   0.451  52.542  0.00  0.00    +0.047 A 
ATOM     20 CL   UNL     1      13.697   0.489  53.642  0.00  0.00    -0.083 Cl
ATOM     21  C   UNL     1      16.134  -0.415  52.783  0.00  0.00    -0.006 A 
ATOM     22  C   UNL     1      17.227  -0.446  51.910  0.00  0.00    +0.149 A 
ATOM     23  F   UNL     1      18.278  -1.255  52.196  0.00  0.00    -0.203 F 
ENDBRANCH  13  15
ENDBRANCH   4  13
BRANCH  10  24
ATOM     24  O   UNL     1      23.999   1.243  53.086  0.00  0.00    -0.488 OA
BRANCH  24  25
ATOM     25  C   UNL     1      25.156   2.076  52.981  0.00  0.00    +0.093 C 
BRANCH  25  26
ATOM     26  C   UNL     1      26.440   1.278  53.311  0.00  0.00    -0.004 C 
ATOM     27  C   UNL     1      26.370   0.675  54.723  0.00  0.00    -0.034 C 
ATOM     28  C   UNL     1      27.701  -0.016  55.091  0.00  0.00    -0.001 C 
ATOM     29  N   UNL     1      28.343  -0.744  53.965  0.00  0.00    -0.305 N 
ATOM     30  C   UNL     1      29.557  -0.065  53.474  0.00  0.00    -0.013 C 
ATOM     31  C   UNL     1      27.413  -1.074  52.865  0.00  0.00    -0.001 C 
ATOM     32  C   UNL     1      26.728   0.172  52.265  0.00  0.00    -0.034 C 
ATOM     33  H   UNL     1      28.638  -1.638  54.358  0.00  0.00    +0.000 HD
ENDBRANCH  25  26
ENDBRANCH  24  25
ENDBRANCH  10  24
TORSDOF 6
ENDMDL
MODEL 8
REMARK VINA RESULT:    -7.750      4.961     10.016
REMARK INTER + INTRA:         -11.394
REMARK INTER:                 -10.315
REMARK INTRA:                  -1.079
REMARK UNBOUND:                -0.926
REMARK  Name = 
REMARK  8 active torsions:
REMARK  status: ('A' for Active; 'I' for Inactive)
REMARK    1  A    between atoms: C_1  and  O_2
REMARK    2  A    between atoms: O_2  and  C_3
REMARK    3  A    between atoms: C_6  and  N_7
REMARK    4  A    between atoms: N_7  and  C_8
REMARK    5  A    between atoms: C_22  and  O_23
REMARK    6  A    between atoms: O_23  and  C_24
REMARK    7  A    between atoms: C_24  and  C_25
REMARK    8  A    between atoms: N_28  and  C_29
REMARK                            x       y       z     vdW  Elec       q    Type
REMARK                         _______ _______ _______ _____ _____    ______ ____
ROOT
ATOM      1  C   UNL     1      24.830   5.007  50.222  0.00  0.00    +0.162 A 
ATOM      2  C   UNL     1      24.128   4.204  51.144  0.00  0.00    -0.004 A 
ATOM      3  C   UNL     1      24.632   2.947  51.525  0.00  0.00    +0.044 A 
ATOM      4  C   UNL     1      23.962   2.089  52.427  0.00  0.00    +0.134 A 
ATOM      5  N   UNL     1      24.546   0.909  52.777  0.00  0.00    -0.220 NA
ATOM      6  C   UNL     1      25.752   0.534  52.282  0.00  0.00    +0.119 A 
ATOM      7  N   UNL     1      26.405   1.334  51.404  0.00  0.00    -0.235 NA
ATOM      8  C   UNL     1      25.877   2.523  51.012  0.00  0.00    +0.080 A 
ATOM      9  C   UNL     1      26.576   3.323  50.105  0.00  0.00    +0.010 A 
ATOM     10  C   UNL     1      26.043   4.553  49.682  0.00  0.00    +0.164 A 
ENDROOT
BRANCH   1  12
ATOM     11  C   UNL     1      24.031   7.334  50.693  0.00  0.00    +0.079 C 
ATOM     12  O   UNL     1      24.351   6.262  49.811  0.00  0.00    -0.491 OA
ENDBRANCH   1  12
BRANCH   4  13
ATOM     13  N   UNL     1      22.652   2.401  52.934  0.00  0.00    -0.294 N 
ATOM     14  H   UNL     1      22.538   3.211  53.482  0.00  0.00    +0.000 HD
BRANCH  13  15
ATOM     15  C   UNL     1      21.503   1.578  52.674  0.00  0.00    +0.104 A 
ATOM     16  C   UNL     1      20.615   1.931  51.643  0.00  0.00    +0.149 A 
ATOM     17  F   UNL     1      20.852   3.027  50.875  0.00  0.00    -0.203 F 
ATOM     18  C   UNL     1      19.481   1.154  51.389  0.00  0.00    -0.006 A 
ATOM     19  C   UNL     1      19.215   0.026  52.170  0.00  0.00    +0.047 A 
ATOM     20 CL   UNL     1      17.788  -0.944  51.852  0.00  0.00    -0.083 Cl
ATOM     21  C   UNL     1      20.079  -0.319  53.212  0.00  0.00    -0.006 A 
ATOM     22  C   UNL     1      21.216   0.454  53.472  0.00  0.00    +0.149 A 
ATOM     23  F   UNL     1      22.010   0.131  54.524  0.00  0.00    -0.203 F 
ENDBRANCH  13  15
ENDBRANCH   4  13
BRANCH  10  24
ATOM     24  O   UNL     1      26.695   5.371  48.746  0.00  0.00    -0.488 OA
BRANCH  24  25
ATOM     25  C   UNL     1      28.081   5.313  48.399  0.00  0.00    +0.093 C 
BRANCH  25  26
ATOM     26  C   UNL     1      28.635   6.728  48.108  0.00  0.00    -0.004 C 
ATOM     27  C   UNL     1      27.772   7.810  48.776  0.00  0.00    -0.034 C 
ATOM     28  C   UNL     1      28.258   9.221  48.383  0.00  0.00    -0.001 C 
ATOM     29  N   UNL     1      29.736   9.354  48.288  0.00  0.00    -0.305 N 
ATOM     30  C   UNL     1      30.202   9.488  46.895  0.00  0.00    -0.013 C 
ATOM     31  C   UNL     1      30.474   8.300  49.016  0.00  0.00    -0.001 C 
ATOM     32  C   UNL     1      30.116   6.878  48.538  0.00  0.00    -0.034 C 
ATOM     33  H   UNL     1      29.957  10.228  48.764  0.00  0.00    +0.000 HD
ENDBRANCH  25  26
ENDBRANCH  24  25
ENDBRANCH  10  24
TORSDOF 6
ENDMDL
MODEL 9
REMARK VINA RESULT:    -7.552      2.862      3.864
REMARK INTER + INTRA:         -11.127
REMARK INTER:                 -10.462
REMARK INTRA:                  -0.664
REMARK UNBOUND:                -0.926
REMARK  Name = 
REMARK  8 active torsions:
REMARK  status: ('A' for Active; 'I' for Inactive)
REMARK    1  A    between atoms: C_1  and  O_2
REMARK    2  A    between atoms: O_2  and  C_3
REMARK    3  A    between atoms: C_6  and  N_7
REMARK    4  A    between atoms: N_7  and  C_8
REMARK    5  A    between atoms: C_22  and  O_23
REMARK    6  A    between atoms: O_23  and  C_24
REMARK    7  A    between atoms: C_24  and  C_25
REMARK    8  A    between atoms: N_28  and  C_29
REMARK                            x       y       z     vdW  Elec       q    Type
REMARK                         _______ _______ _______ _____ _____    ______ ____
ROOT
ATOM      1  C   UNL     1      19.718   1.229  51.674  0.00  0.00    +0.162 A 
ATOM      2  C   UNL     1      21.127   1.234  51.674  0.00  0.00    -0.004 A 
ATOM      3  C   UNL     1      21.836   2.448  51.706  0.00  0.00    +0.044 A 
ATOM      4  C   UNL     1      23.249   2.516  51.685  0.00  0.00    +0.134 A 
ATOM      5  N   UNL     1      23.855   3.734  51.767  0.00  0.00    -0.220 NA
ATOM      6  C   UNL     1      23.141   4.883  51.865  0.00  0.00    +0.119 A 
ATOM      7  N   UNL     1      21.785   4.842  51.872  0.00  0.00    -0.235 NA
ATOM      8  C   UNL     1      21.119   3.661  51.792  0.00  0.00    +0.080 A 
ATOM      9  C   UNL     1      19.722   3.654  51.800  0.00  0.00    +0.010 A 
ATOM     10  C   UNL     1      19.014   2.443  51.711  0.00  0.00    +0.164 A 
ENDROOT
BRANCH   1  12
ATOM     11  C   UNL     1      17.974  -0.259  50.664  0.00  0.00    +0.079 C 
ATOM     12  O   UNL     1      18.977   0.036  51.632  0.00  0.00    -0.491 OA
ENDBRANCH   1  12
BRANCH   4  13
ATOM     13  N   UNL     1      24.059   1.340  51.514  0.00  0.00    -0.294 N 
ATOM     14  H   UNL     1      23.838   0.716  50.785  0.00  0.00    +0.000 HD
BRANCH  13  15
ATOM     15  C   UNL     1      25.176   1.036  52.365  0.00  0.00    +0.104 A 
ATOM     16  C   UNL     1      26.477   1.373  51.951  0.00  0.00    +0.149 A 
ATOM     17  F   UNL     1      26.679   2.008  50.767  0.00  0.00    -0.203 F 
ATOM     18  C   UNL     1      27.578   1.068  52.757  0.00  0.00    -0.006 A 
ATOM     19  C   UNL     1      27.392   0.410  53.976  0.00  0.00    +0.047 A 
ATOM     20 CL   UNL     1      28.777   0.023  54.982  0.00  0.00    -0.083 Cl
ATOM     21  C   UNL     1      26.106   0.050  54.385  0.00  0.00    -0.006 A 
ATOM     22  C   UNL     1      25.000   0.353  53.584  0.00  0.00    +0.149 A 
ATOM     23  F   UNL     1      23.767  -0.057  53.976  0.00  0.00    -0.203 F 
ENDBRANCH  13  15
ENDBRANCH   4  13
BRANCH  10  24
ATOM     24  O   UNL     1      17.612   2.394  51.680  0.00  0.00    -0.488 OA
BRANCH  24  25
ATOM     25  C   UNL     1      16.752   3.326  51.020  0.00  0.00    +0.093 C 
BRANCH  25  26
ATOM     26  C   UNL     1      15.422   3.491  51.793  0.00  0.00    -0.004 C 
ATOM     27  C   UNL     1      15.016   2.180  52.484  0.00  0.00    -0.034 C 
ATOM     28  C   UNL     1      13.630   2.318  53.152  0.00  0.00    -0.001 C 
ATOM     29  N   UNL     1      13.387   3.640  53.787  0.00  0.00    -0.305 N 
ATOM     30  C   UNL     1      12.411   4.453  53.038  0.00  0.00    -0.013 C 
ATOM     31  C   UNL     1      14.624   4.395  54.078  0.00  0.00    -0.001 C 
ATOM     32  C   UNL     1      15.482   4.648  52.822  0.00  0.00    -0.034 C 
ATOM     33  H   UNL     1      12.969   3.429  54.693  0.00  0.00    +0.000 HD
ENDBRANCH  25  26
ENDBRANCH  24  25
ENDBRANCH  10  24
TORSDOF 6
ENDMDL
