MODEL 1
REMARK VINA RESULT:   -12.355      0.000      0.000
REMARK INTER + INTRA:         -14.888
REMARK INTER:                 -15.244
REMARK INTRA:                   0.356
REMARK UNBOUND:                 0.356
REMARK  Name = 
REMARK  7 active torsions:
REMARK  status: ('A' for Active; 'I' for Inactive)
REMARK    1  A    between atoms: C_1  and  O_2
REMARK    2  A    between atoms: O_2  and  C_3
REMARK    3  A    between atoms: C_4  and  N_5
REMARK    4  A    between atoms: N_5  and  C_6
REMARK    5  A    between atoms: C_7  and  C_9
REMARK    6  A    between atoms: C_13  and  N_14
REMARK    7  A    between atoms: C_21  and  C_22
REMARK                            x       y       z     vdW  Elec       q    Type
REMARK                         _______ _______ _______ _____ _____    ______ ____
ROOT
ATOM      1  C   UNL     1      22.364   4.130  49.435  0.00  0.00    +0.125 C 
ATOM      2  C   UNL     1      23.507   4.985  50.052  0.00  0.00    +0.061 C 
ATOM      3  C   UNL     1      24.153   4.226  51.202  0.00  0.00    +0.014 C 
ATOM      4  C   UNL     1      24.786   2.940  50.651  0.00  0.00    +0.140 C 
ATOM      5  O   UNL     1      24.135   2.384  49.521  0.00  0.00    -0.328 OA
ATOM      6  C   UNL     1      22.725   2.583  49.443  0.00  0.00    +0.174 C 
ATOM      7  C   UNL     1      22.369   1.970  48.064  0.00  0.00    -0.014 C 
ATOM      8  N   UNL     1      22.003   1.814  50.518  0.00  0.00    -0.307 N 
ATOM      9  C   UNL     1      20.677   1.452  50.550  0.00  0.00    +0.053 A 
ATOM     10  C   UNL     1      19.632   1.851  49.697  0.00  0.00    -0.037 A 
ATOM     11  C   UNL     1      18.341   1.342  49.912  0.00  0.00    -0.060 A 
ATOM     12  C   UNL     1      18.091   0.444  50.964  0.00  0.00    -0.061 A 
ATOM     13  C   UNL     1      19.130   0.049  51.816  0.00  0.00    -0.052 A 
ATOM     14  C   UNL     1      20.406   0.570  51.585  0.00  0.00    +0.008 A 
ATOM     15  C   UNL     1      21.588   0.366  52.244  0.00  0.00    +0.015 A 
ATOM     16  C   UNL     1      21.925  -0.430  53.354  0.00  0.00    -0.008 A 
ATOM     17  C   UNL     1      23.235  -0.428  53.829  0.00  0.00    +0.052 A 
ATOM     18  C   UNL     1      24.201   0.392  53.211  0.00  0.00    +0.022 A 
ATOM     19  C   UNL     1      25.517   0.735  53.498  0.00  0.00    +0.008 A 
ATOM     20  C   UNL     1      26.392   0.367  54.526  0.00  0.00    -0.052 A 
ATOM     21  C   UNL     1      27.664   0.961  54.565  0.00  0.00    -0.061 A 
ATOM     22  C   UNL     1      28.037   1.920  53.603  0.00  0.00    -0.060 A 
ATOM     23  C   UNL     1      27.142   2.298  52.590  0.00  0.00    -0.037 A 
ATOM     24  C   UNL     1      25.885   1.683  52.555  0.00  0.00    +0.052 A 
ATOM     25  N   UNL     1      24.871   1.931  51.692  0.00  0.00    -0.311 N 
ATOM     26  C   UNL     1      23.850   1.155  52.094  0.00  0.00    +0.077 A 
ATOM     27  C   UNL     1      22.538   1.142  51.588  0.00  0.00    +0.077 A 
ATOM     28  C   UNL     1      23.264  -1.362  54.938  0.00  0.00    +0.245 C 
ATOM     29  O   UNL     1      24.273  -1.718  55.595  0.00  0.00    -0.270 OA
ATOM     30  N   UNL     1      21.969  -1.907  55.149  0.00  0.00    -0.307 N 
ATOM     31  C   UNL     1      21.052  -1.351  54.159  0.00  0.00    +0.039 C 
ATOM     32  H   UNL     1      21.729  -2.555  55.849  0.00  0.00    +0.000 HD
ENDROOT
BRANCH   2  33
ATOM     33  N   UNL     1      23.092   6.350  50.465  0.00  0.00    -0.295 N 
ATOM     34  C   UNL     1      21.928   6.562  51.340  0.00  0.00    +0.004 C 
ATOM     35  C   UNL     1      23.950   7.489  50.219  0.00  0.00    +0.247 C 
ATOM     36  O   UNL     1      23.879   8.499  50.975  0.00  0.00    -0.270 OA
BRANCH  35  37
ATOM     37  C   UNL     1      24.937   7.512  49.120  0.00  0.00    +0.039 A 
ATOM     38  C   UNL     1      24.669   8.202  47.930  0.00  0.00    -0.049 A 
ATOM     39  C   UNL     1      25.603   8.206  46.893  0.00  0.00    -0.059 A 
ATOM     40  C   UNL     1      26.819   7.533  47.041  0.00  0.00    -0.031 A 
ATOM     41  C   UNL     1      27.116   6.852  48.235  0.00  0.00    +0.127 A 
ATOM     42  C   UNL     1      26.167   6.853  49.274  0.00  0.00    -0.019 A 
BRANCH  41  43
ATOM     43  N   UNL     1      28.368   6.158  48.392  0.00  0.00    +0.056 N 
ATOM     44  O   UNL     1      28.407   4.910  48.396  0.00  0.00    -0.126 OA
ATOM     45  O   UNL     1      29.543   6.859  48.531  0.00  0.00    -0.126 OA
ENDBRANCH  41  43
ENDBRANCH  35  37
ENDBRANCH   2  33
BRANCH   1  47
ATOM     46  C   UNL     1      20.152   4.882  49.260  0.00  0.00    +0.037 C 
ATOM     47  O   UNL     1      21.142   4.354  50.123  0.00  0.00    -0.373 OA
ENDBRANCH   1  47
TORSDOF 4
ENDMDL
MODEL 2
REMARK VINA RESULT:   -10.894      2.906      7.428
REMARK INTER + INTRA:         -13.085
REMARK INTER:                 -13.637
REMARK INTRA:                   0.553
REMARK UNBOUND:                 0.356
REMARK  Name = 
REMARK  7 active torsions:
REMARK  status: ('A' for Active; 'I' for Inactive)
REMARK    1  A    between atoms: C_1  and  O_2
REMARK    2  A    between atoms: O_2  and  C_3
REMARK    3  A    between atoms: C_4  and  N_5
REMARK    4  A    between atoms: N_5  and  C_6
REMARK    5  A    between atoms: C_7  and  C_9
REMARK    6  A    between atoms: C_13  and  N_14
REMARK    7  A    between atoms: C_21  and  C_22
REMARK                            x       y       z     vdW  Elec       q    Type
REMARK                         _______ _______ _______ _____ _____    ______ ____
ROOT
ATOM      1  C   UNL     1      20.477   4.863  49.335  0.00  0.00    +0.125 C 
ATOM      2  C   UNL     1      19.404   3.738  49.360  0.00  0.00    +0.061 C 
ATOM      3  C   UNL     1      19.948   2.523  50.097  0.00  0.00    +0.014 C 
ATOM      4  C   UNL     1      20.236   2.918  51.554  0.00  0.00    +0.140 C 
ATOM      5  O   UNL     1      20.607   4.272  51.749  0.00  0.00    -0.328 OA
ATOM      6  C   UNL     1      21.321   4.892  50.681  0.00  0.00    +0.174 C 
ATOM      7  C   UNL     1      21.456   6.358  51.165  0.00  0.00    -0.014 C 
ATOM      8  N   UNL     1      22.698   4.301  50.527  0.00  0.00    -0.307 N 
ATOM      9  C   UNL     1      23.786   4.853  49.893  0.00  0.00    +0.053 A 
ATOM     10  C   UNL     1      23.848   6.003  49.085  0.00  0.00    -0.037 A 
ATOM     11  C   UNL     1      25.083   6.393  48.543  0.00  0.00    -0.060 A 
ATOM     12  C   UNL     1      26.246   5.647  48.801  0.00  0.00    -0.061 A 
ATOM     13  C   UNL     1      26.185   4.499  49.602  0.00  0.00    -0.052 A 
ATOM     14  C   UNL     1      24.946   4.130  50.129  0.00  0.00    +0.008 A 
ATOM     15  C   UNL     1      24.592   3.076  50.929  0.00  0.00    +0.015 A 
ATOM     16  C   UNL     1      25.340   2.028  51.494  0.00  0.00    -0.008 A 
ATOM     17  C   UNL     1      24.697   1.065  52.270  0.00  0.00    +0.052 A 
ATOM     18  C   UNL     1      23.301   1.136  52.457  0.00  0.00    +0.022 A 
ATOM     19  C   UNL     1      22.350   0.301  53.032  0.00  0.00    +0.008 A 
ATOM     20  C   UNL     1      22.438  -0.942  53.667  0.00  0.00    -0.052 A 
ATOM     21  C   UNL     1      21.250  -1.563  54.084  0.00  0.00    -0.061 A 
ATOM     22  C   UNL     1      20.002  -0.957  53.846  0.00  0.00    -0.060 A 
ATOM     23  C   UNL     1      19.925   0.280  53.187  0.00  0.00    -0.037 A 
ATOM     24  C   UNL     1      21.119   0.895  52.794  0.00  0.00    +0.052 A 
ATOM     25  N   UNL     1      21.262   2.059  52.117  0.00  0.00    -0.311 N 
ATOM     26  C   UNL     1      22.582   2.201  51.907  0.00  0.00    +0.077 A 
ATOM     27  C   UNL     1      23.223   3.194  51.144  0.00  0.00    +0.077 A 
ATOM     28  C   UNL     1      25.732   0.159  52.728  0.00  0.00    +0.245 C 
ATOM     29  O   UNL     1      25.591  -0.805  53.522  0.00  0.00    -0.270 OA
ATOM     30  N   UNL     1      26.993   0.557  52.210  0.00  0.00    -0.307 N 
ATOM     31  C   UNL     1      26.816   1.761  51.403  0.00  0.00    +0.039 C 
ATOM     32  H   UNL     1      27.847   0.097  52.368  0.00  0.00    +0.000 HD
ENDROOT
BRANCH   2  33
ATOM     33  N   UNL     1      18.874   3.371  48.022  0.00  0.00    -0.295 N 
ATOM     34  C   UNL     1      19.776   3.097  46.893  0.00  0.00    +0.004 C 
ATOM     35  C   UNL     1      17.476   3.041  47.846  0.00  0.00    +0.247 C 
ATOM     36  O   UNL     1      17.131   2.267  46.910  0.00  0.00    -0.270 OA
BRANCH  35  37
ATOM     37  C   UNL     1      16.422   3.560  48.743  0.00  0.00    +0.039 A 
ATOM     38  C   UNL     1      15.515   4.529  48.296  0.00  0.00    -0.049 A 
ATOM     39  C   UNL     1      14.531   5.022  49.155  0.00  0.00    -0.059 A 
ATOM     40  C   UNL     1      14.437   4.541  50.464  0.00  0.00    -0.031 A 
ATOM     41  C   UNL     1      15.325   3.552  50.925  0.00  0.00    +0.127 A 
ATOM     42  C   UNL     1      16.313   3.063  50.051  0.00  0.00    -0.019 A 
BRANCH  41  43
ATOM     43  N   UNL     1      15.232   3.052  52.272  0.00  0.00    +0.056 N 
ATOM     44  O   UNL     1      15.198   3.838  53.242  0.00  0.00    -0.126 OA
ATOM     45  O   UNL     1      15.168   1.699  52.513  0.00  0.00    -0.126 OA
ENDBRANCH  41  43
ENDBRANCH  35  37
ENDBRANCH   2  33
BRANCH   1  47
ATOM     46  C   UNL     1      21.278   5.833  47.359  0.00  0.00    +0.037 C 
ATOM     47  O   UNL     1      21.339   4.709  48.217  0.00  0.00    -0.373 OA
ENDBRANCH   1  47
TORSDOF 4
ENDMDL
MODEL 3
REMARK VINA RESULT:   -10.252      1.438      2.321
REMARK INTER + INTRA:         -12.293
REMARK INTER:                 -11.835
REMARK INTRA:                  -0.458
REMARK UNBOUND:                 0.356
REMARK  Name = 
REMARK  7 active torsions:
REMARK  status: ('A' for Active; 'I' for Inactive)
REMARK    1  A    between atoms: C_1  and  O_2
REMARK    2  A    between atoms: O_2  and  C_3
REMARK    3  A    between atoms: C_4  and  N_5
REMARK    4  A    between atoms: N_5  and  C_6
REMARK    5  A    between atoms: C_7  and  C_9
REMARK    6  A    between atoms: C_13  and  N_14
REMARK    7  A    between atoms: C_21  and  C_22
REMARK                            x       y       z     vdW  Elec       q    Type
REMARK                         _______ _______ _______ _____ _____    ______ ____
ROOT
ATOM      1  C   UNL     1      22.039   4.734  49.006  0.00  0.00    +0.125 C 
ATOM      2  C   UNL     1      23.130   5.081  50.057  0.00  0.00    +0.061 C 
ATOM      3  C   UNL     1      23.148   4.022  51.150  0.00  0.00    +0.014 C 
ATOM      4  C   UNL     1      23.526   2.672  50.521  0.00  0.00    +0.140 C 
ATOM      5  O   UNL     1      23.124   2.501  49.173  0.00  0.00    -0.328 OA
ATOM      6  C   UNL     1      21.924   3.165  48.782  0.00  0.00    +0.174 C 
ATOM      7  C   UNL     1      21.849   2.872  47.263  0.00  0.00    -0.014 C 
ATOM      8  N   UNL     1      20.720   2.560  49.454  0.00  0.00    -0.307 N 
ATOM      9  C   UNL     1      19.402   2.658  49.072  0.00  0.00    +0.053 A 
ATOM     10  C   UNL     1      18.829   3.479  48.085  0.00  0.00    -0.037 A 
ATOM     11  C   UNL     1      17.445   3.407  47.853  0.00  0.00    -0.060 A 
ATOM     12  C   UNL     1      16.640   2.527  48.597  0.00  0.00    -0.061 A 
ATOM     13  C   UNL     1      17.209   1.712  49.583  0.00  0.00    -0.052 A 
ATOM     14  C   UNL     1      18.587   1.802  49.797  0.00  0.00    +0.008 A 
ATOM     15  C   UNL     1      19.401   1.141  50.678  0.00  0.00    +0.015 A 
ATOM     16  C   UNL     1      19.140   0.154  51.646  0.00  0.00    -0.008 A 
ATOM     17  C   UNL     1      20.184  -0.335  52.427  0.00  0.00    +0.052 A 
ATOM     18  C   UNL     1      21.485   0.183  52.260  0.00  0.00    +0.022 A 
ATOM     19  C   UNL     1      22.689   0.033  52.937  0.00  0.00    +0.008 A 
ATOM     20  C   UNL     1      23.063  -0.723  54.053  0.00  0.00    -0.052 A 
ATOM     21  C   UNL     1      24.375  -0.595  54.537  0.00  0.00    -0.061 A 
ATOM     22  C   UNL     1      25.282   0.291  53.923  0.00  0.00    -0.060 A 
ATOM     23  C   UNL     1      24.888   1.061  52.818  0.00  0.00    -0.037 A 
ATOM     24  C   UNL     1      23.582   0.908  52.337  0.00  0.00    +0.052 A 
ATOM     25  N   UNL     1      22.997   1.578  51.316  0.00  0.00    -0.311 N 
ATOM     26  C   UNL     1      21.726   1.145  51.274  0.00  0.00    +0.077 A 
ATOM     27  C   UNL     1      20.685   1.628  50.460  0.00  0.00    +0.077 A 
ATOM     28  C   UNL     1      19.604  -1.348  53.287  0.00  0.00    +0.245 C 
ATOM     29  O   UNL     1      20.218  -2.094  54.090  0.00  0.00    -0.270 OA
ATOM     30  N   UNL     1      18.209  -1.452  53.045  0.00  0.00    -0.307 N 
ATOM     31  C   UNL     1      17.838  -0.511  51.993  0.00  0.00    +0.039 C 
ATOM     32  H   UNL     1      17.591  -2.061  53.510  0.00  0.00    +0.000 HD
ENDROOT
BRANCH   2  33
ATOM     33  N   UNL     1      23.015   6.448  50.626  0.00  0.00    -0.295 N 
ATOM     34  C   UNL     1      21.980   6.777  51.619  0.00  0.00    +0.004 C 
ATOM     35  C   UNL     1      24.055   7.430  50.406  0.00  0.00    +0.247 C 
ATOM     36  O   UNL     1      24.233   8.351  51.252  0.00  0.00    -0.270 OA
BRANCH  35  37
ATOM     37  C   UNL     1      24.946   7.387  49.228  0.00  0.00    +0.039 A 
ATOM     38  C   UNL     1      24.541   7.932  48.003  0.00  0.00    -0.049 A 
ATOM     39  C   UNL     1      25.386   7.874  46.893  0.00  0.00    -0.059 A 
ATOM     40  C   UNL     1      26.648   7.284  47.001  0.00  0.00    -0.031 A 
ATOM     41  C   UNL     1      27.081   6.749  48.228  0.00  0.00    +0.127 A 
ATOM     42  C   UNL     1      26.222   6.811  49.340  0.00  0.00    -0.019 A 
BRANCH  41  43
ATOM     43  N   UNL     1      28.380   6.140  48.344  0.00  0.00    +0.056 N 
ATOM     44  O   UNL     1      28.492   4.931  48.637  0.00  0.00    -0.126 OA
ATOM     45  O   UNL     1      29.520   6.878  48.126  0.00  0.00    -0.126 OA
ENDBRANCH  41  43
ENDBRANCH  35  37
ENDBRANCH   2  33
BRANCH   1  47
ATOM     46  C   UNL     1      20.393   6.338  48.548  0.00  0.00    +0.037 C 
ATOM     47  O   UNL     1      20.781   5.269  49.392  0.00  0.00    -0.373 OA
ENDBRANCH   1  47
TORSDOF 4
ENDMDL
