MODEL 1
REMARK VINA RESULT:    -7.905      0.000      0.000
REMARK INTER + INTRA:         -11.520
REMARK INTER:                 -10.909
REMARK INTRA:                  -0.611
REMARK UNBOUND:                -0.611
REMARK  Name = 
REMARK  9 active torsions:
REMARK  status: ('A' for Active; 'I' for Inactive)
REMARK    1  A    between atoms: C_1  and  O_2
REMARK    2  A    between atoms: O_2  and  C_3
REMARK    3  A    between atoms: C_3  and  C_5
REMARK    4  A    between atoms: C_8  and  N_9
REMARK    5  A    between atoms: N_9  and  C_10
REMARK    6  A    between atoms: C_10  and  C_11
REMARK    7  A    between atoms: C_13  and  O_14
REMARK    8  A    between atoms: C_17  and  O_18
REMARK    9  A    between atoms: C_20  and  O_21
REMARK                            x       y       z     vdW  Elec       q    Type
REMARK                         _______ _______ _______ _____ _____    ______ ____
ROOT
ATOM      1  N   UNL     1      25.040   0.532  53.642  0.00  0.00    -0.340 N 
ATOM      2  H   UNL     1      25.348   0.594  54.576  0.00  0.00    +0.000 HD
ENDROOT
BRANCH   1   6
ATOM      3  C   UNL     1      20.892  -0.129  52.865  0.00  0.00    +0.100 A 
ATOM      4  C   UNL     1      21.655   0.746  52.071  0.00  0.00    -0.042 A 
ATOM      5  C   UNL     1      23.010   0.954  52.335  0.00  0.00    -0.040 A 
ATOM      6  C   UNL     1      23.640   0.295  53.398  0.00  0.00    +0.031 A 
ATOM      7  C   UNL     1      22.885  -0.580  54.199  0.00  0.00    +0.002 A 
ATOM      8  C   UNL     1      21.523  -0.795  53.941  0.00  0.00    +0.133 A 
BRANCH   3   9
ATOM      9  C   UNL     1      19.453  -0.324  52.551  0.00  0.00    +0.342 C 
ATOM     10  O   UNL     1      18.999  -0.033  51.410  0.00  0.00    -0.245 OA
BRANCH   9  12
ATOM     11  C   UNL     1      17.496  -1.686  53.221  0.00  0.00    +0.082 C 
ATOM     12  O   UNL     1      18.593  -0.835  53.530  0.00  0.00    -0.464 OA
ENDBRANCH   9  12
ENDBRANCH   3   9
BRANCH   8  13
ATOM     13  O   UNL     1      20.803  -1.669  54.757  0.00  0.00    -0.506 OA
ATOM     14  H   UNL     1      21.231  -2.105  55.468  0.00  0.00    +0.000 HD
ENDBRANCH   8  13
ENDBRANCH   1   6
BRANCH   1  15
ATOM     15  C   UNL     1      26.028   0.687  52.573  0.00  0.00    +0.038 C 
BRANCH  15  16
ATOM     16  C   UNL     1      27.329   0.013  52.941  0.00  0.00    +0.014 A 
ATOM     17  C   UNL     1      27.404  -1.391  52.923  0.00  0.00    -0.012 A 
ATOM     18  C   UNL     1      28.594  -2.046  53.267  0.00  0.00    +0.117 A 
ATOM     19  C   UNL     1      29.715  -1.300  53.637  0.00  0.00    -0.017 A 
ATOM     20  C   UNL     1      29.650   0.095  53.671  0.00  0.00    -0.016 A 
ATOM     21  C   UNL     1      28.466   0.760  53.335  0.00  0.00    +0.122 A 
BRANCH  18  22
ATOM     22  O   UNL     1      28.672  -3.436  53.244  0.00  0.00    -0.507 OA
ATOM     23  H   UNL     1      29.058  -3.873  52.510  0.00  0.00    +0.000 HD
ENDBRANCH  18  22
BRANCH  21  24
ATOM     24  O   UNL     1      28.451   2.155  53.408  0.00  0.00    -0.506 OA
ATOM     25  H   UNL     1      28.334   2.579  54.236  0.00  0.00    +0.000 HD
ENDBRANCH  21  24
ENDBRANCH  15  16
ENDBRANCH   1  15
TORSDOF 8
ENDMDL
MODEL 2
REMARK VINA RESULT:    -7.855      0.764      2.125
REMARK INTER + INTRA:         -11.451
REMARK INTER:                 -10.883
REMARK INTRA:                  -0.568
REMARK UNBOUND:                -0.611
REMARK  Name = 
REMARK  9 active torsions:
REMARK  status: ('A' for Active; 'I' for Inactive)
REMARK    1  A    between atoms: C_1  and  O_2
REMARK    2  A    between atoms: O_2  and  C_3
REMARK    3  A    between atoms: C_3  and  C_5
REMARK    4  A    between atoms: C_8  and  N_9
REMARK    5  A    between atoms: N_9  and  C_10
REMARK    6  A    between atoms: C_10  and  C_11
REMARK    7  A    between atoms: C_13  and  O_14
REMARK    8  A    between atoms: C_17  and  O_18
REMARK    9  A    between atoms: C_20  and  O_21
REMARK                            x       y       z     vdW  Elec       q    Type
REMARK                         _______ _______ _______ _____ _____    ______ ____
ROOT
ATOM      1  N   UNL     1      25.104  -0.310  53.832  0.00  0.00    -0.340 N 
ATOM      2  H   UNL     1      25.453   0.210  54.593  0.00  0.00    +0.000 HD
ENDROOT
BRANCH   1   6
ATOM      3  C   UNL     1      20.910  -0.191  53.033  0.00  0.00    +0.100 A 
ATOM      4  C   UNL     1      21.816   0.600  52.304  0.00  0.00    -0.042 A 
ATOM      5  C   UNL     1      23.185   0.552  52.576  0.00  0.00    -0.040 A 
ATOM      6  C   UNL     1      23.687  -0.285  53.580  0.00  0.00    +0.031 A 
ATOM      7  C   UNL     1      22.788  -1.078  54.315  0.00  0.00    +0.002 A 
ATOM      8  C   UNL     1      21.410  -1.037  54.050  0.00  0.00    +0.133 A 
BRANCH   3   9
ATOM      9  C   UNL     1      19.461  -0.113  52.714  0.00  0.00    +0.342 C 
ATOM     10  O   UNL     1      18.983   0.904  52.140  0.00  0.00    -0.245 OA
BRANCH   9  12
ATOM     11  C   UNL     1      17.216  -1.153  52.819  0.00  0.00    +0.082 C 
ATOM     12  O   UNL     1      18.619  -1.178  53.055  0.00  0.00    -0.464 OA
ENDBRANCH   9  12
ENDBRANCH   3   9
BRANCH   8  13
ATOM     13  O   UNL     1      20.547  -1.836  54.800  0.00  0.00    -0.506 OA
ATOM     14  H   UNL     1      19.817  -2.254  54.386  0.00  0.00    +0.000 HD
ENDBRANCH   8  13
ENDBRANCH   1   6
BRANCH   1  15
ATOM     15  C   UNL     1      26.054  -1.067  53.015  0.00  0.00    +0.038 C 
BRANCH  15  16
ATOM     16  C   UNL     1      27.476  -0.667  53.334  0.00  0.00    +0.014 A 
ATOM     17  C   UNL     1      27.753   0.666  53.686  0.00  0.00    -0.012 A 
ATOM     18  C   UNL     1      29.061   1.069  53.981  0.00  0.00    +0.117 A 
ATOM     19  C   UNL     1      30.104   0.142  53.918  0.00  0.00    -0.017 A 
ATOM     20  C   UNL     1      29.845  -1.182  53.557  0.00  0.00    -0.016 A 
ATOM     21  C   UNL     1      28.542  -1.596  53.256  0.00  0.00    +0.122 A 
BRANCH  18  22
ATOM     22  O   UNL     1      29.336   2.387  54.335  0.00  0.00    -0.507 OA
ATOM     23  H   UNL     1      30.178   2.757  54.154  0.00  0.00    +0.000 HD
ENDBRANCH  18  22
BRANCH  21  24
ATOM     24  O   UNL     1      28.345  -2.926  52.879  0.00  0.00    -0.506 OA
ATOM     25  H   UNL     1      28.865  -3.604  53.264  0.00  0.00    +0.000 HD
ENDBRANCH  21  24
ENDBRANCH  15  16
ENDBRANCH   1  15
TORSDOF 8
ENDMDL
MODEL 3
REMARK VINA RESULT:    -7.427      4.591      6.228
REMARK INTER + INTRA:         -10.860
REMARK INTER:                  -9.979
REMARK INTRA:                  -0.881
REMARK UNBOUND:                -0.611
REMARK  Name = 
REMARK  9 active torsions:
REMARK  status: ('A' for Active; 'I' for Inactive)
REMARK    1  A    between atoms: C_1  and  O_2
REMARK    2  A    between atoms: O_2  and  C_3
REMARK    3  A    between atoms: C_3  and  C_5
REMARK    4  A    between atoms: C_8  and  N_9
REMARK    5  A    between atoms: N_9  and  C_10
REMARK    6  A    between atoms: C_10  and  C_11
REMARK    7  A    between atoms: C_13  and  O_14
REMARK    8  A    between atoms: C_17  and  O_18
REMARK    9  A    between atoms: C_20  and  O_21
REMARK                            x       y       z     vdW  Elec       q    Type
REMARK                         _______ _______ _______ _____ _____    ______ ____
ROOT
ATOM      1  N   UNL     1      25.222   1.151  51.902  0.00  0.00    -0.340 N 
ATOM      2  H   UNL     1      24.853   0.340  51.482  0.00  0.00    +0.000 HD
ENDROOT
BRANCH   1   6
ATOM      3  C   UNL     1      25.315   4.747  49.599  0.00  0.00    +0.100 A 
ATOM      4  C   UNL     1      24.115   4.259  50.146  0.00  0.00    -0.042 A 
ATOM      5  C   UNL     1      24.097   3.082  50.897  0.00  0.00    -0.040 A 
ATOM      6  C   UNL     1      25.276   2.361  51.122  0.00  0.00    +0.031 A 
ATOM      7  C   UNL     1      26.481   2.839  50.578  0.00  0.00    +0.002 A 
ATOM      8  C   UNL     1      26.508   4.022  49.822  0.00  0.00    +0.133 A 
BRANCH   3   9
ATOM      9  C   UNL     1      25.293   6.004  48.806  0.00  0.00    +0.342 C 
ATOM     10  O   UNL     1      24.301   6.288  48.079  0.00  0.00    -0.245 OA
BRANCH   9  12
ATOM     11  C   UNL     1      26.471   7.931  49.820  0.00  0.00    +0.082 C 
ATOM     12  O   UNL     1      26.383   6.880  48.867  0.00  0.00    -0.464 OA
ENDBRANCH   9  12
ENDBRANCH   3   9
BRANCH   8  13
ATOM     13  O   UNL     1      27.721   4.467  49.295  0.00  0.00    -0.506 OA
ATOM     14  H   UNL     1      28.487   4.488  49.836  0.00  0.00    +0.000 HD
ENDBRANCH   8  13
ENDBRANCH   1   6
BRANCH   1  15
ATOM     15  C   UNL     1      25.686   1.066  53.288  0.00  0.00    +0.038 C 
BRANCH  15  16
ATOM     16  C   UNL     1      27.043   0.407  53.362  0.00  0.00    +0.014 A 
ATOM     17  C   UNL     1      27.145  -0.981  53.156  0.00  0.00    -0.012 A 
ATOM     18  C   UNL     1      28.389  -1.622  53.225  0.00  0.00    +0.117 A 
ATOM     19  C   UNL     1      29.538  -0.881  53.506  0.00  0.00    -0.017 A 
ATOM     20  C   UNL     1      29.449   0.496  53.725  0.00  0.00    -0.016 A 
ATOM     21  C   UNL     1      28.212   1.148  53.663  0.00  0.00    +0.122 A 
BRANCH  18  22
ATOM     22  O   UNL     1      28.492  -2.995  53.016  0.00  0.00    -0.507 OA
ATOM     23  H   UNL     1      28.734  -3.561  53.723  0.00  0.00    +0.000 HD
ENDBRANCH  18  22
BRANCH  21  24
ATOM     24  O   UNL     1      28.178   2.521  53.913  0.00  0.00    -0.506 OA
ATOM     25  H   UNL     1      27.409   3.016  53.708  0.00  0.00    +0.000 HD
ENDBRANCH  21  24
ENDBRANCH  15  16
ENDBRANCH   1  15
TORSDOF 8
ENDMDL
MODEL 4
REMARK VINA RESULT:    -7.377      2.880      4.307
REMARK INTER + INTRA:         -10.792
REMARK INTER:                  -9.857
REMARK INTRA:                  -0.934
REMARK UNBOUND:                -0.611
REMARK  Name = 
REMARK  9 active torsions:
REMARK  status: ('A' for Active; 'I' for Inactive)
REMARK    1  A    between atoms: C_1  and  O_2
REMARK    2  A    between atoms: O_2  and  C_3
REMARK    3  A    between atoms: C_3  and  C_5
REMARK    4  A    between atoms: C_8  and  N_9
REMARK    5  A    between atoms: N_9  and  C_10
REMARK    6  A    between atoms: C_10  and  C_11
REMARK    7  A    between atoms: C_13  and  O_14
REMARK    8  A    between atoms: C_17  and  O_18
REMARK    9  A    between atoms: C_20  and  O_21
REMARK                            x       y       z     vdW  Elec       q    Type
REMARK                         _______ _______ _______ _____ _____    ______ ____
ROOT
ATOM      1  N   UNL     1      24.870  -0.302  53.150  0.00  0.00    -0.340 N 
ATOM      2  H   UNL     1      24.901  -1.044  52.502  0.00  0.00    +0.000 HD
ENDROOT
BRANCH   1   6
ATOM      3  C   UNL     1      22.461   3.086  52.170  0.00  0.00    +0.100 A 
ATOM      4  C   UNL     1      22.052   1.780  51.848  0.00  0.00    -0.042 A 
ATOM      5  C   UNL     1      22.848   0.680  52.174  0.00  0.00    -0.040 A 
ATOM      6  C   UNL     1      24.074   0.854  52.828  0.00  0.00    +0.031 A 
ATOM      7  C   UNL     1      24.493   2.157  53.152  0.00  0.00    +0.002 A 
ATOM      8  C   UNL     1      23.699   3.268  52.829  0.00  0.00    +0.133 A 
BRANCH   3   9
ATOM      9  C   UNL     1      21.585   4.230  51.808  0.00  0.00    +0.342 C 
ATOM     10  O   UNL     1      20.331   4.094  51.775  0.00  0.00    -0.245 OA
BRANCH   9  12
ATOM     11  C   UNL     1      22.739   5.753  50.233  0.00  0.00    +0.082 C 
ATOM     12  O   UNL     1      22.157   5.470  51.499  0.00  0.00    -0.464 OA
ENDBRANCH   9  12
ENDBRANCH   3   9
BRANCH   8  13
ATOM     13  O   UNL     1      24.146   4.546  53.164  0.00  0.00    -0.506 OA
ATOM     14  H   UNL     1      24.966   4.858  52.832  0.00  0.00    +0.000 HD
ENDBRANCH   8  13
ENDBRANCH   1   6
BRANCH   1  15
ATOM     15  C   UNL     1      25.634  -0.434  54.392  0.00  0.00    +0.038 C 
BRANCH  15  16
ATOM     16  C   UNL     1      27.108  -0.218  54.141  0.00  0.00    +0.014 A 
ATOM     17  C   UNL     1      27.707   0.986  54.553  0.00  0.00    -0.012 A 
ATOM     18  C   UNL     1      29.070   1.219  54.329  0.00  0.00    +0.117 A 
ATOM     19  C   UNL     1      29.842   0.250  53.684  0.00  0.00    -0.017 A 
ATOM     20  C   UNL     1      29.258  -0.945  53.259  0.00  0.00    -0.016 A 
ATOM     21  C   UNL     1      27.896  -1.187  53.473  0.00  0.00    +0.122 A 
BRANCH  18  22
ATOM     22  O   UNL     1      29.664   2.408  54.741  0.00  0.00    -0.507 OA
ATOM     23  H   UNL     1      29.139   3.097  55.098  0.00  0.00    +0.000 HD
ENDBRANCH  18  22
BRANCH  21  24
ATOM     24  O   UNL     1      27.360  -2.389  53.007  0.00  0.00    -0.506 OA
ATOM     25  H   UNL     1      27.837  -3.189  53.117  0.00  0.00    +0.000 HD
ENDBRANCH  21  24
ENDBRANCH  15  16
ENDBRANCH   1  15
TORSDOF 8
ENDMDL
MODEL 5
REMARK VINA RESULT:    -7.353      0.978      2.614
REMARK INTER + INTRA:         -10.757
REMARK INTER:                 -10.207
REMARK INTRA:                  -0.550
REMARK UNBOUND:                -0.611
REMARK  Name = 
REMARK  9 active torsions:
REMARK  status: ('A' for Active; 'I' for Inactive)
REMARK    1  A    between atoms: C_1  and  O_2
REMARK    2  A    between atoms: O_2  and  C_3
REMARK    3  A    between atoms: C_3  and  C_5
REMARK    4  A    between atoms: C_8  and  N_9
REMARK    5  A    between atoms: N_9  and  C_10
REMARK    6  A    between atoms: C_10  and  C_11
REMARK    7  A    between atoms: C_13  and  O_14
REMARK    8  A    between atoms: C_17  and  O_18
REMARK    9  A    between atoms: C_20  and  O_21
REMARK                            x       y       z     vdW  Elec       q    Type
REMARK                         _______ _______ _______ _____ _____    ______ ____
ROOT
ATOM      1  N   UNL     1      24.841   0.238  53.462  0.00  0.00    -0.340 N 
ATOM      2  H   UNL     1      25.242   1.137  53.507  0.00  0.00    +0.000 HD
ENDROOT
BRANCH   1   6
ATOM      3  C   UNL     1      20.671  -0.120  52.608  0.00  0.00    +0.100 A 
ATOM      4  C   UNL     1      21.250  -0.769  53.713  0.00  0.00    -0.042 A 
ATOM      5  C   UNL     1      22.615  -0.644  53.982  0.00  0.00    -0.040 A 
ATOM      6  C   UNL     1      23.438   0.131  53.155  0.00  0.00    +0.031 A 
ATOM      7  C   UNL     1      22.869   0.781  52.046  0.00  0.00    +0.002 A 
ATOM      8  C   UNL     1      21.498   0.662  51.769  0.00  0.00    +0.133 A 
BRANCH   3   9
ATOM      9  C   UNL     1      19.215  -0.276  52.357  0.00  0.00    +0.342 C 
ATOM     10  O   UNL     1      18.729  -0.025  51.219  0.00  0.00    -0.245 OA
BRANCH   9  12
ATOM     11  C   UNL     1      17.600  -1.893  53.308  0.00  0.00    +0.082 C 
ATOM     12  O   UNL     1      18.376  -0.704  53.391  0.00  0.00    -0.464 OA
ENDBRANCH   9  12
ENDBRANCH   3   9
BRANCH   8  13
ATOM     13  O   UNL     1      20.967   1.320  50.659  0.00  0.00    -0.506 OA
ATOM     14  H   UNL     1      21.447   2.015  50.253  0.00  0.00    +0.000 HD
ENDBRANCH   8  13
ENDBRANCH   1   6
BRANCH   1  15
ATOM     15  C   UNL     1      25.703  -0.920  53.709  0.00  0.00    +0.038 C 
BRANCH  15  16
ATOM     16  C   UNL     1      27.157  -0.512  53.734  0.00  0.00    +0.014 A 
ATOM     17  C   UNL     1      27.493   0.818  54.043  0.00  0.00    -0.012 A 
ATOM     18  C   UNL     1      28.832   1.228  54.067  0.00  0.00    +0.117 A 
ATOM     19  C   UNL     1      29.845   0.312  53.775  0.00  0.00    -0.017 A 
ATOM     20  C   UNL     1      29.524  -1.009  53.454  0.00  0.00    -0.016 A 
ATOM     21  C   UNL     1      28.190  -1.431  53.423  0.00  0.00    +0.122 A 
BRANCH  18  22
ATOM     22  O   UNL     1      29.167   2.543  54.378  0.00  0.00    -0.507 OA
ATOM     23  H   UNL     1      29.857   2.721  54.987  0.00  0.00    +0.000 HD
ENDBRANCH  18  22
BRANCH  21  24
ATOM     24  O   UNL     1      27.926  -2.757  53.074  0.00  0.00    -0.506 OA
ATOM     25  H   UNL     1      27.626  -3.361  53.724  0.00  0.00    +0.000 HD
ENDBRANCH  21  24
ENDBRANCH  15  16
ENDBRANCH   1  15
TORSDOF 8
ENDMDL
MODEL 6
REMARK VINA RESULT:    -7.317      3.033      3.683
REMARK INTER + INTRA:         -10.708
REMARK INTER:                 -10.075
REMARK INTRA:                  -0.633
REMARK UNBOUND:                -0.611
REMARK  Name = 
REMARK  9 active torsions:
REMARK  status: ('A' for Active; 'I' for Inactive)
REMARK    1  A    between atoms: C_1  and  O_2
REMARK    2  A    between atoms: O_2  and  C_3
REMARK    3  A    between atoms: C_3  and  C_5
REMARK    4  A    between atoms: C_8  and  N_9
REMARK    5  A    between atoms: N_9  and  C_10
REMARK    6  A    between atoms: C_10  and  C_11
REMARK    7  A    between atoms: C_13  and  O_14
REMARK    8  A    between atoms: C_17  and  O_18
REMARK    9  A    between atoms: C_20  and  O_21
REMARK                            x       y       z     vdW  Elec       q    Type
REMARK                         _______ _______ _______ _____ _____    ______ ____
ROOT
ATOM      1  N   UNL     1      25.320   0.732  53.201  0.00  0.00    -0.340 N 
ATOM      2  H   UNL     1      25.274  -0.161  52.786  0.00  0.00    +0.000 HD
ENDROOT
BRANCH   1   6
ATOM      3  C   UNL     1      22.415   3.617  51.984  0.00  0.00    +0.100 A 
ATOM      4  C   UNL     1      22.280   2.258  51.651  0.00  0.00    -0.042 A 
ATOM      5  C   UNL     1      23.237   1.324  52.054  0.00  0.00    -0.040 A 
ATOM      6  C   UNL     1      24.354   1.721  52.800  0.00  0.00    +0.031 A 
ATOM      7  C   UNL     1      24.498   3.079  53.136  0.00  0.00    +0.002 A 
ATOM      8  C   UNL     1      23.542   4.024  52.735  0.00  0.00    +0.133 A 
BRANCH   3   9
ATOM      9  C   UNL     1      21.376   4.580  51.537  0.00  0.00    +0.342 C 
ATOM     10  O   UNL     1      21.699   5.724  51.114  0.00  0.00    -0.245 OA
BRANCH   9  12
ATOM     11  C   UNL     1      19.141   4.388  50.488  0.00  0.00    +0.082 C 
ATOM     12  O   UNL     1      20.026   4.215  51.588  0.00  0.00    -0.464 OA
ENDBRANCH   9  12
ENDBRANCH   3   9
BRANCH   8  13
ATOM     13  O   UNL     1      23.718   5.364  53.085  0.00  0.00    -0.506 OA
ATOM     14  H   UNL     1      24.384   5.603  53.700  0.00  0.00    +0.000 HD
ENDBRANCH   8  13
ENDBRANCH   1   6
BRANCH   1  15
ATOM     15  C   UNL     1      26.366   0.983  54.194  0.00  0.00    +0.038 C 
BRANCH  15  16
ATOM     16  C   UNL     1      27.598   0.161  53.897  0.00  0.00    +0.014 A 
ATOM     17  C   UNL     1      27.450  -1.177  53.490  0.00  0.00    -0.012 A 
ATOM     18  C   UNL     1      28.573  -1.968  53.214  0.00  0.00    +0.117 A 
ATOM     19  C   UNL     1      29.853  -1.426  53.351  0.00  0.00    -0.017 A 
ATOM     20  C   UNL     1      30.015  -0.103  53.767  0.00  0.00    -0.016 A 
ATOM     21  C   UNL     1      28.901   0.696  54.049  0.00  0.00    +0.122 A 
BRANCH  18  22
ATOM     22  O   UNL     1      28.428  -3.291  52.806  0.00  0.00    -0.507 OA
ATOM     23  H   UNL     1      27.907  -3.495  52.054  0.00  0.00    +0.000 HD
ENDBRANCH  18  22
BRANCH  21  24
ATOM     24  O   UNL     1      29.122   2.005  54.482  0.00  0.00    -0.506 OA
ATOM     25  H   UNL     1      28.759   2.724  54.004  0.00  0.00    +0.000 HD
ENDBRANCH  21  24
ENDBRANCH  15  16
ENDBRANCH   1  15
TORSDOF 8
ENDMDL
MODEL 7
REMARK VINA RESULT:    -7.310      3.211      4.203
REMARK INTER + INTRA:         -10.698
REMARK INTER:                  -9.748
REMARK INTRA:                  -0.950
REMARK UNBOUND:                -0.611
REMARK  Name = 
REMARK  9 active torsions:
REMARK  status: ('A' for Active; 'I' for Inactive)
REMARK    1  A    between atoms: C_1  and  O_2
REMARK    2  A    between atoms: O_2  and  C_3
REMARK    3  A    between atoms: C_3  and  C_5
REMARK    4  A    between atoms: C_8  and  N_9
REMARK    5  A    between atoms: N_9  and  C_10
REMARK    6  A    between atoms: C_10  and  C_11
REMARK    7  A    between atoms: C_13  and  O_14
REMARK    8  A    between atoms: C_17  and  O_18
REMARK    9  A    between atoms: C_20  and  O_21
REMARK                            x       y       z     vdW  Elec       q    Type
REMARK                         _______ _______ _______ _____ _____    ______ ____
ROOT
ATOM      1  N   UNL     1      26.376   2.632  52.812  0.00  0.00    -0.340 N 
ATOM      2  H   UNL     1      27.048   3.352  52.851  0.00  0.00    +0.000 HD
ENDROOT
BRANCH   1   6
ATOM      3  C   UNL     1      23.640   2.671  49.532  0.00  0.00    +0.100 A 
ATOM      4  C   UNL     1      24.824   3.430  49.507  0.00  0.00    -0.042 A 
ATOM      5  C   UNL     1      25.710   3.409  50.585  0.00  0.00    -0.040 A 
ATOM      6  C   UNL     1      25.440   2.631  51.718  0.00  0.00    +0.031 A 
ATOM      7  C   UNL     1      24.258   1.870  51.753  0.00  0.00    +0.002 A 
ATOM      8  C   UNL     1      23.361   1.885  50.674  0.00  0.00    +0.133 A 
BRANCH   3   9
ATOM      9  C   UNL     1      22.723   2.719  48.364  0.00  0.00    +0.342 C 
ATOM     10  O   UNL     1      22.165   1.668  47.942  0.00  0.00    -0.245 OA
BRANCH   9  12
ATOM     11  C   UNL     1      21.176   4.503  47.619  0.00  0.00    +0.082 C 
ATOM     12  O   UNL     1      22.478   3.939  47.725  0.00  0.00    -0.464 OA
ENDBRANCH   9  12
ENDBRANCH   3   9
BRANCH   8  13
ATOM     13  O   UNL     1      22.197   1.118  50.744  0.00  0.00    -0.506 OA
ATOM     14  H   UNL     1      22.252   0.198  50.913  0.00  0.00    +0.000 HD
ENDBRANCH   8  13
ENDBRANCH   1   6
BRANCH   1  15
ATOM     15  C   UNL     1      26.383   1.618  53.868  0.00  0.00    +0.038 C 
BRANCH  15  16
ATOM     16  C   UNL     1      27.545   0.669  53.694  0.00  0.00    +0.014 A 
ATOM     17  C   UNL     1      27.294  -0.671  53.348  0.00  0.00    -0.012 A 
ATOM     18  C   UNL     1      28.350  -1.577  53.187  0.00  0.00    +0.117 A 
ATOM     19  C   UNL     1      29.666  -1.150  53.379  0.00  0.00    -0.017 A 
ATOM     20  C   UNL     1      29.929   0.174  53.736  0.00  0.00    -0.016 A 
ATOM     21  C   UNL     1      28.882   1.088  53.903  0.00  0.00    +0.122 A 
BRANCH  18  22
ATOM     22  O   UNL     1      28.102  -2.902  52.839  0.00  0.00    -0.507 OA
ATOM     23  H   UNL     1      27.517  -3.422  53.355  0.00  0.00    +0.000 HD
ENDBRANCH  18  22
BRANCH  21  24
ATOM     24  O   UNL     1      29.202   2.393  54.282  0.00  0.00    -0.506 OA
ATOM     25  H   UNL     1      28.716   3.115  53.933  0.00  0.00    +0.000 HD
ENDBRANCH  21  24
ENDBRANCH  15  16
ENDBRANCH   1  15
TORSDOF 8
ENDMDL
MODEL 8
REMARK VINA RESULT:    -7.103      3.307      7.380
REMARK INTER + INTRA:         -10.412
REMARK INTER:                  -9.285
REMARK INTRA:                  -1.128
REMARK UNBOUND:                -0.611
REMARK  Name = 
REMARK  9 active torsions:
REMARK  status: ('A' for Active; 'I' for Inactive)
REMARK    1  A    between atoms: C_1  and  O_2
REMARK    2  A    between atoms: O_2  and  C_3
REMARK    3  A    between atoms: C_3  and  C_5
REMARK    4  A    between atoms: C_8  and  N_9
REMARK    5  A    between atoms: N_9  and  C_10
REMARK    6  A    between atoms: C_10  and  C_11
REMARK    7  A    between atoms: C_13  and  O_14
REMARK    8  A    between atoms: C_17  and  O_18
REMARK    9  A    between atoms: C_20  and  O_21
REMARK                            x       y       z     vdW  Elec       q    Type
REMARK                         _______ _______ _______ _____ _____    ______ ____
ROOT
ATOM      1  N   UNL     1      23.291   1.101  51.785  0.00  0.00    -0.340 N 
ATOM      2  H   UNL     1      22.901   0.486  51.122  0.00  0.00    +0.000 HD
ENDROOT
BRANCH   1   6
ATOM      3  C   UNL     1      27.057   0.082  53.523  0.00  0.00    +0.100 A 
ATOM      4  C   UNL     1      26.978   0.732  52.279  0.00  0.00    -0.042 A 
ATOM      5  C   UNL     1      25.740   1.060  51.721  0.00  0.00    -0.040 A 
ATOM      6  C   UNL     1      24.550   0.748  52.389  0.00  0.00    +0.031 A 
ATOM      7  C   UNL     1      24.619   0.096  53.633  0.00  0.00    +0.002 A 
ATOM      8  C   UNL     1      25.858  -0.237  54.202  0.00  0.00    +0.133 A 
BRANCH   3   9
ATOM      9  C   UNL     1      28.392  -0.249  54.084  0.00  0.00    +0.342 C 
ATOM     10  O   UNL     1      28.767   0.244  55.184  0.00  0.00    -0.245 OA
BRANCH   9  12
ATOM     11  C   UNL     1      28.946  -2.491  53.191  0.00  0.00    +0.082 C 
ATOM     12  O   UNL     1      29.243  -1.114  53.386  0.00  0.00    -0.464 OA
ENDBRANCH   9  12
ENDBRANCH   3   9
BRANCH   8  13
ATOM     13  O   UNL     1      25.890  -0.885  55.437  0.00  0.00    -0.506 OA
ATOM     14  H   UNL     1      26.037  -1.810  55.477  0.00  0.00    +0.000 HD
ENDBRANCH   8  13
ENDBRANCH   1   6
BRANCH   1  15
ATOM     15  C   UNL     1      22.561   2.330  52.105  0.00  0.00    +0.038 C 
BRANCH  15  16
ATOM     16  C   UNL     1      23.136   3.508  51.354  0.00  0.00    +0.014 A 
ATOM     17  C   UNL     1      23.525   4.655  52.068  0.00  0.00    -0.012 A 
ATOM     18  C   UNL     1      24.055   5.766  51.400  0.00  0.00    +0.117 A 
ATOM     19  C   UNL     1      24.193   5.740  50.011  0.00  0.00    -0.017 A 
ATOM     20  C   UNL     1      23.798   4.612  49.288  0.00  0.00    -0.016 A 
ATOM     21  C   UNL     1      23.264   3.497  49.943  0.00  0.00    +0.122 A 
BRANCH  18  22
ATOM     22  O   UNL     1      24.445   6.900  52.107  0.00  0.00    -0.507 OA
ATOM     23  H   UNL     1      23.995   7.712  51.978  0.00  0.00    +0.000 HD
ENDBRANCH  18  22
BRANCH  21  24
ATOM     24  O   UNL     1      22.866   2.405  49.168  0.00  0.00    -0.506 OA
ATOM     25  H   UNL     1      22.606   1.606  49.583  0.00  0.00    +0.000 HD
ENDBRANCH  21  24
ENDBRANCH  15  16
ENDBRANCH   1  15
TORSDOF 8
ENDMDL
MODEL 9
REMARK VINA RESULT:    -7.039      4.672      6.452
REMARK INTER + INTRA:         -10.324
REMARK INTER:                  -9.466
REMARK INTRA:                  -0.858
REMARK UNBOUND:                -0.611
REMARK  Name = 
REMARK  9 active torsions:
REMARK  status: ('A' for Active; 'I' for Inactive)
REMARK    1  A    between atoms: C_1  and  O_2
REMARK    2  A    between atoms: O_2  and  C_3
REMARK    3  A    between atoms: C_3  and  C_5
REMARK    4  A    between atoms: C_8  and  N_9
REMARK    5  A    between atoms: N_9  and  C_10
REMARK    6  A    between atoms: C_10  and  C_11
REMARK    7  A    between atoms: C_13  and  O_14
REMARK    8  A    between atoms: C_17  and  O_18
REMARK    9  A    between atoms: C_20  and  O_21
REMARK                            x       y       z     vdW  Elec       q    Type
REMARK                         _______ _______ _______ _____ _____    ______ ____
ROOT
ATOM      1  N   UNL     1      26.835   3.245  51.004  0.00  0.00    -0.340 N 
ATOM      2  H   UNL     1      27.446   3.852  51.483  0.00  0.00    +0.000 HD
ENDROOT
BRANCH   1   6
ATOM      3  C   UNL     1      24.696   0.307  53.250  0.00  0.00    +0.100 A 
ATOM      4  C   UNL     1      24.066   1.477  52.788  0.00  0.00    -0.042 A 
ATOM      5  C   UNL     1      24.777   2.430  52.055  0.00  0.00    -0.040 A 
ATOM      6  C   UNL     1      26.133   2.242  51.764  0.00  0.00    +0.031 A 
ATOM      7  C   UNL     1      26.772   1.077  52.223  0.00  0.00    +0.002 A 
ATOM      8  C   UNL     1      26.067   0.113  52.960  0.00  0.00    +0.133 A 
BRANCH   3   9
ATOM      9  C   UNL     1      23.907  -0.683  54.026  0.00  0.00    +0.342 C 
ATOM     10  O   UNL     1      24.330  -1.119  55.132  0.00  0.00    -0.245 OA
BRANCH   9  12
ATOM     11  C   UNL     1      21.618  -1.565  54.366  0.00  0.00    +0.082 C 
ATOM     12  O   UNL     1      22.682  -1.139  53.524  0.00  0.00    -0.464 OA
ENDBRANCH   9  12
ENDBRANCH   3   9
BRANCH   8  13
ATOM     13  O   UNL     1      26.733  -1.030  53.402  0.00  0.00    -0.506 OA
ATOM     14  H   UNL     1      26.296  -1.639  53.965  0.00  0.00    +0.000 HD
ENDBRANCH   8  13
ENDBRANCH   1   6
BRANCH   1  15
ATOM     15  C   UNL     1      26.686   3.410  49.557  0.00  0.00    +0.038 C 
BRANCH  15  16
ATOM     16  C   UNL     1      26.916   4.847  49.153  0.00  0.00    +0.014 A 
ATOM     17  C   UNL     1      28.061   5.176  48.406  0.00  0.00    -0.012 A 
ATOM     18  C   UNL     1      28.307   6.501  48.023  0.00  0.00    +0.117 A 
ATOM     19  C   UNL     1      27.411   7.507  48.390  0.00  0.00    -0.017 A 
ATOM     20  C   UNL     1      26.276   7.196  49.143  0.00  0.00    -0.016 A 
ATOM     21  C   UNL     1      26.022   5.877  49.536  0.00  0.00    +0.122 A 
BRANCH  18  22
ATOM     22  O   UNL     1      29.437   6.827  47.278  0.00  0.00    -0.507 OA
ATOM     23  H   UNL     1      30.050   6.159  47.038  0.00  0.00    +0.000 HD
ENDBRANCH  18  22
BRANCH  21  24
ATOM     24  O   UNL     1      24.885   5.627  50.307  0.00  0.00    -0.506 OA
ATOM     25  H   UNL     1      24.936   5.660  51.242  0.00  0.00    +0.000 HD
ENDBRANCH  21  24
ENDBRANCH  15  16
ENDBRANCH   1  15
TORSDOF 8
ENDMDL
