MODEL 1
REMARK VINA RESULT:    -5.669      0.000      0.000
REMARK INTER + INTRA:          -7.423
REMARK INTER:                  -7.160
REMARK INTRA:                  -0.263
REMARK UNBOUND:                -0.263
REMARK  Name = 
REMARK  5 active torsions:
REMARK  status: ('A' for Active; 'I' for Inactive)
REMARK    1  A    between atoms: C_2  and  C_3
REMARK    2  A    between atoms: C_3  and  C_4
REMARK    3  A    between atoms: N_6  and  N_7
REMARK    4  A    between atoms: N_7  and  C_8
REMARK    5  A    between atoms: C_11  and  O_12
REMARK                            x       y       z     vdW  Elec       q    Type
REMARK                         _______ _______ _______ _____ _____    ______ ____
ROOT
ATOM      1  N   UNL     1      26.724   1.801  52.712  0.00  0.00    -0.236 N 
ATOM      2  H   UNL     1      26.120   2.168  53.398  0.00  0.00    +0.000 HD
ENDROOT
BRANCH   1   3
ATOM      3  C   UNL     1      27.206   0.455  52.841  0.00  0.00    +0.049 A 
ATOM      4  C   UNL     1      26.397  -0.616  52.428  0.00  0.00    -0.036 A 
ATOM      5  C   UNL     1      26.852  -1.934  52.548  0.00  0.00    -0.018 A 
ATOM      6  C   UNL     1      28.120  -2.194  53.084  0.00  0.00    +0.117 A 
ATOM      7  C   UNL     1      28.930  -1.132  53.498  0.00  0.00    -0.018 A 
ATOM      8  C   UNL     1      28.478   0.186  53.379  0.00  0.00    -0.036 A 
BRANCH   6   9
ATOM      9  O   UNL     1      28.583  -3.502  53.208  0.00  0.00    -0.507 OA
ATOM     10  H   UNL     1      28.598  -3.916  54.049  0.00  0.00    +0.000 HD
ENDBRANCH   6   9
ENDBRANCH   1   3
BRANCH   1  12
ATOM     11  C   UNL     1      26.269   3.060  50.729  0.00  0.00    +0.234 C 
ATOM     12  N   UNL     1      27.100   2.602  51.618  0.00  0.00    -0.160 NA
BRANCH  11  14
ATOM     13  N   UNL     1      27.177   4.521  48.790  0.00  0.00    -0.188 NA
ATOM     14  C   UNL     1      26.772   3.869  49.655  0.00  0.00    +0.132 C 
ENDBRANCH  11  14
BRANCH  11  15
ATOM     15  C   UNL     1      24.855   2.784  50.783  0.00  0.00    +0.132 C 
ATOM     16  N   UNL     1      23.720   2.563  50.827  0.00  0.00    -0.188 NA
ENDBRANCH  11  15
ENDBRANCH   1  12
TORSDOF 5
ENDMDL
MODEL 2
REMARK VINA RESULT:    -5.644      3.174      4.701
REMARK INTER + INTRA:          -7.392
REMARK INTER:                  -7.100
REMARK INTRA:                  -0.292
REMARK UNBOUND:                -0.263
REMARK  Name = 
REMARK  5 active torsions:
REMARK  status: ('A' for Active; 'I' for Inactive)
REMARK    1  A    between atoms: C_2  and  C_3
REMARK    2  A    between atoms: C_3  and  C_4
REMARK    3  A    between atoms: N_6  and  N_7
REMARK    4  A    between atoms: N_7  and  C_8
REMARK    5  A    between atoms: C_11  and  O_12
REMARK                            x       y       z     vdW  Elec       q    Type
REMARK                         _______ _______ _______ _____ _____    ______ ____
ROOT
ATOM      1  N   UNL     1      26.018  -0.313  52.525  0.00  0.00    -0.236 N 
ATOM      2  H   UNL     1      26.067  -0.492  51.558  0.00  0.00    +0.000 HD
ENDROOT
BRANCH   1   3
ATOM      3  C   UNL     1      27.073   0.423  53.162  0.00  0.00    +0.049 A 
ATOM      4  C   UNL     1      27.324   1.750  52.778  0.00  0.00    -0.036 A 
ATOM      5  C   UNL     1      28.349   2.482  53.388  0.00  0.00    -0.018 A 
ATOM      6  C   UNL     1      29.134   1.893  54.388  0.00  0.00    +0.117 A 
ATOM      7  C   UNL     1      28.889   0.571  54.775  0.00  0.00    -0.018 A 
ATOM      8  C   UNL     1      27.865  -0.162  54.167  0.00  0.00    -0.036 A 
BRANCH   6   9
ATOM      9  O   UNL     1      30.157   2.611  55.003  0.00  0.00    -0.507 OA
ATOM     10  H   UNL     1      30.795   3.058  54.481  0.00  0.00    +0.000 HD
ENDBRANCH   6   9
ENDBRANCH   1   3
BRANCH   1  12
ATOM     11  C   UNL     1      23.782  -0.153  53.361  0.00  0.00    +0.234 C 
ATOM     12  N   UNL     1      24.915  -0.783  53.263  0.00  0.00    -0.160 NA
BRANCH  11  14
ATOM     13  N   UNL     1      21.878  -1.199  54.776  0.00  0.00    -0.188 NA
ATOM     14  C   UNL     1      22.728  -0.732  54.144  0.00  0.00    +0.132 C 
ENDBRANCH  11  14
BRANCH  11  15
ATOM     15  C   UNL     1      23.545   1.111  52.709  0.00  0.00    +0.132 C 
ATOM     16  N   UNL     1      23.355   2.126  52.187  0.00  0.00    -0.188 NA
ENDBRANCH  11  15
ENDBRANCH   1  12
TORSDOF 5
ENDMDL
MODEL 3
REMARK VINA RESULT:    -5.529      0.948      2.116
REMARK INTER + INTRA:          -7.247
REMARK INTER:                  -6.997
REMARK INTRA:                  -0.250
REMARK UNBOUND:                -0.263
REMARK  Name = 
REMARK  5 active torsions:
REMARK  status: ('A' for Active; 'I' for Inactive)
REMARK    1  A    between atoms: C_2  and  C_3
REMARK    2  A    between atoms: C_3  and  C_4
REMARK    3  A    between atoms: N_6  and  N_7
REMARK    4  A    between atoms: N_7  and  C_8
REMARK    5  A    between atoms: C_11  and  O_12
REMARK                            x       y       z     vdW  Elec       q    Type
REMARK                         _______ _______ _______ _____ _____    ______ ____
ROOT
ATOM      1  N   UNL     1      27.212   1.954  52.866  0.00  0.00    -0.236 N 
ATOM      2  H   UNL     1      27.898   2.659  52.804  0.00  0.00    +0.000 HD
ENDROOT
BRANCH   1   3
ATOM      3  C   UNL     1      27.618   0.583  52.988  0.00  0.00    +0.049 A 
ATOM      4  C   UNL     1      26.763  -0.437  52.540  0.00  0.00    -0.036 A 
ATOM      5  C   UNL     1      27.142  -1.779  52.652  0.00  0.00    -0.018 A 
ATOM      6  C   UNL     1      28.381  -2.115  53.213  0.00  0.00    +0.117 A 
ATOM      7  C   UNL     1      29.237  -1.104  53.662  0.00  0.00    -0.018 A 
ATOM      8  C   UNL     1      28.860   0.238  53.551  0.00  0.00    -0.036 A 
BRANCH   6   9
ATOM      9  O   UNL     1      28.770  -3.448  53.330  0.00  0.00    -0.507 OA
ATOM     10  H   UNL     1      29.656  -3.695  53.149  0.00  0.00    +0.000 HD
ENDBRANCH   6   9
ENDBRANCH   1   3
BRANCH   1  12
ATOM     11  C   UNL     1      25.243   2.779  51.786  0.00  0.00    +0.234 C 
ATOM     12  N   UNL     1      25.850   2.306  52.835  0.00  0.00    -0.160 NA
BRANCH  11  14
ATOM     13  N   UNL     1      22.722   3.363  51.948  0.00  0.00    -0.188 NA
ATOM     14  C   UNL     1      23.848   3.103  51.876  0.00  0.00    +0.132 C 
ENDBRANCH  11  14
BRANCH  11  15
ATOM     15  C   UNL     1      25.923   2.992  50.534  0.00  0.00    +0.132 C 
ATOM     16  N   UNL     1      26.469   3.162  49.527  0.00  0.00    -0.188 NA
ENDBRANCH  11  15
ENDBRANCH   1  12
TORSDOF 5
ENDMDL
MODEL 4
REMARK VINA RESULT:    -5.512      3.723      5.418
REMARK INTER + INTRA:          -7.225
REMARK INTER:                  -7.015
REMARK INTRA:                  -0.210
REMARK UNBOUND:                -0.263
REMARK  Name = 
REMARK  5 active torsions:
REMARK  status: ('A' for Active; 'I' for Inactive)
REMARK    1  A    between atoms: C_2  and  C_3
REMARK    2  A    between atoms: C_3  and  C_4
REMARK    3  A    between atoms: N_6  and  N_7
REMARK    4  A    between atoms: N_7  and  C_8
REMARK    5  A    between atoms: C_11  and  O_12
REMARK                            x       y       z     vdW  Elec       q    Type
REMARK                         _______ _______ _______ _____ _____    ______ ____
ROOT
ATOM      1  N   UNL     1      25.817   0.339  53.275  0.00  0.00    -0.236 N 
ATOM      2  H   UNL     1      25.869   1.241  52.885  0.00  0.00    +0.000 HD
ENDROOT
BRANCH   1   3
ATOM      3  C   UNL     1      24.547  -0.172  53.708  0.00  0.00    +0.049 A 
ATOM      4  C   UNL     1      23.402   0.059  52.928  0.00  0.00    -0.036 A 
ATOM      5  C   UNL     1      22.157  -0.431  53.337  0.00  0.00    -0.018 A 
ATOM      6  C   UNL     1      22.043  -1.156  54.530  0.00  0.00    +0.117 A 
ATOM      7  C   UNL     1      23.179  -1.388  55.312  0.00  0.00    -0.018 A 
ATOM      8  C   UNL     1      24.425  -0.900  54.906  0.00  0.00    -0.036 A 
BRANCH   6   9
ATOM      9  O   UNL     1      20.809  -1.648  54.947  0.00  0.00    -0.507 OA
ATOM     10  H   UNL     1      20.104  -1.726  54.335  0.00  0.00    +0.000 HD
ENDBRANCH   6   9
ENDBRANCH   1   3
BRANCH   1  12
ATOM     11  C   UNL     1      28.180   0.068  53.534  0.00  0.00    +0.234 C 
ATOM     12  N   UNL     1      26.987  -0.433  53.398  0.00  0.00    -0.160 NA
BRANCH  11  14
ATOM     13  N   UNL     1      30.203  -1.539  53.745  0.00  0.00    -0.188 NA
ATOM     14  C   UNL     1      29.300  -0.822  53.651  0.00  0.00    +0.132 C 
ENDBRANCH  11  14
BRANCH  11  15
ATOM     15  C   UNL     1      28.418   1.489  53.570  0.00  0.00    +0.132 C 
ATOM     16  N   UNL     1      28.610   2.630  53.601  0.00  0.00    -0.188 NA
ENDBRANCH  11  15
ENDBRANCH   1  12
TORSDOF 5
ENDMDL
MODEL 5
REMARK VINA RESULT:    -5.392      4.018      5.583
REMARK INTER + INTRA:          -7.073
REMARK INTER:                  -6.862
REMARK INTRA:                  -0.211
REMARK UNBOUND:                -0.263
REMARK  Name = 
REMARK  5 active torsions:
REMARK  status: ('A' for Active; 'I' for Inactive)
REMARK    1  A    between atoms: C_2  and  C_3
REMARK    2  A    between atoms: C_3  and  C_4
REMARK    3  A    between atoms: N_6  and  N_7
REMARK    4  A    between atoms: N_7  and  C_8
REMARK    5  A    between atoms: C_11  and  O_12
REMARK                            x       y       z     vdW  Elec       q    Type
REMARK                         _______ _______ _______ _____ _____    ______ ____
ROOT
ATOM      1  N   UNL     1      25.825  -0.796  54.557  0.00  0.00    -0.236 N 
ATOM      2  H   UNL     1      26.275  -1.641  54.788  0.00  0.00    +0.000 HD
ENDROOT
BRANCH   1   3
ATOM      3  C   UNL     1      24.397  -0.770  54.419  0.00  0.00    +0.049 A 
ATOM      4  C   UNL     1      23.596  -1.441  55.358  0.00  0.00    -0.036 A 
ATOM      5  C   UNL     1      22.202  -1.426  55.238  0.00  0.00    -0.018 A 
ATOM      6  C   UNL     1      21.594  -0.742  54.177  0.00  0.00    +0.117 A 
ATOM      7  C   UNL     1      22.386  -0.073  53.238  0.00  0.00    -0.018 A 
ATOM      8  C   UNL     1      23.779  -0.086  53.356  0.00  0.00    -0.036 A 
BRANCH   6   9
ATOM      9  O   UNL     1      20.208  -0.721  54.047  0.00  0.00    -0.507 OA
ATOM     10  H   UNL     1      19.790  -0.012  53.598  0.00  0.00    +0.000 HD
ENDBRANCH   6   9
ENDBRANCH   1   3
BRANCH   1  12
ATOM     11  C   UNL     1      27.816   0.373  53.926  0.00  0.00    +0.234 C 
ATOM     12  N   UNL     1      26.592   0.369  54.366  0.00  0.00    -0.160 NA
BRANCH  11  14
ATOM     13  N   UNL     1      29.046   2.638  53.649  0.00  0.00    -0.188 NA
ATOM     14  C   UNL     1      28.497   1.627  53.772  0.00  0.00    +0.132 C 
ENDBRANCH  11  14
BRANCH  11  15
ATOM     15  C   UNL     1      28.515  -0.840  53.586  0.00  0.00    +0.132 C 
ATOM     16  N   UNL     1      29.076  -1.815  53.311  0.00  0.00    -0.188 NA
ENDBRANCH  11  15
ENDBRANCH   1  12
TORSDOF 5
ENDMDL
MODEL 6
REMARK VINA RESULT:    -5.378      0.944      2.513
REMARK INTER + INTRA:          -7.056
REMARK INTER:                  -6.809
REMARK INTRA:                  -0.247
REMARK UNBOUND:                -0.263
REMARK  Name = 
REMARK  5 active torsions:
REMARK  status: ('A' for Active; 'I' for Inactive)
REMARK    1  A    between atoms: C_2  and  C_3
REMARK    2  A    between atoms: C_3  and  C_4
REMARK    3  A    between atoms: N_6  and  N_7
REMARK    4  A    between atoms: N_7  and  C_8
REMARK    5  A    between atoms: C_11  and  O_12
REMARK                            x       y       z     vdW  Elec       q    Type
REMARK                         _______ _______ _______ _____ _____    ______ ____
ROOT
ATOM      1  N   UNL     1      26.727   2.052  53.075  0.00  0.00    -0.236 N 
ATOM      2  H   UNL     1      27.387   2.760  53.257  0.00  0.00    +0.000 HD
ENDROOT
BRANCH   1   3
ATOM      3  C   UNL     1      27.151   0.682  53.040  0.00  0.00    +0.049 A 
ATOM      4  C   UNL     1      28.454   0.347  53.443  0.00  0.00    -0.036 A 
ATOM      5  C   UNL     1      28.884  -0.984  53.415  0.00  0.00    -0.018 A 
ATOM      6  C   UNL     1      28.016  -1.994  52.982  0.00  0.00    +0.117 A 
ATOM      7  C   UNL     1      26.717  -1.668  52.578  0.00  0.00    -0.018 A 
ATOM      8  C   UNL     1      26.285  -0.339  52.606  0.00  0.00    -0.036 A 
BRANCH   6   9
ATOM      9  O   UNL     1      28.432  -3.323  52.949  0.00  0.00    -0.507 OA
ATOM     10  H   UNL     1      28.934  -3.675  53.658  0.00  0.00    +0.000 HD
ENDBRANCH   6   9
ENDBRANCH   1   3
BRANCH   1  12
ATOM     11  C   UNL     1      24.936   2.924  51.748  0.00  0.00    +0.234 C 
ATOM     12  N   UNL     1      25.381   2.399  52.852  0.00  0.00    -0.160 NA
BRANCH  11  14
ATOM     13  N   UNL     1      22.413   3.488  51.550  0.00  0.00    -0.188 NA
ATOM     14  C   UNL     1      23.539   3.236  51.638  0.00  0.00    +0.132 C 
ENDBRANCH  11  14
BRANCH  11  15
ATOM     15  C   UNL     1      25.798   3.205  50.628  0.00  0.00    +0.132 C 
ATOM     16  N   UNL     1      26.489   3.432  49.728  0.00  0.00    -0.188 NA
ENDBRANCH  11  15
ENDBRANCH   1  12
TORSDOF 5
ENDMDL
MODEL 7
REMARK VINA RESULT:    -5.143      4.129      5.788
REMARK INTER + INTRA:          -6.759
REMARK INTER:                  -6.587
REMARK INTRA:                  -0.172
REMARK UNBOUND:                -0.263
REMARK  Name = 
REMARK  5 active torsions:
REMARK  status: ('A' for Active; 'I' for Inactive)
REMARK    1  A    between atoms: C_2  and  C_3
REMARK    2  A    between atoms: C_3  and  C_4
REMARK    3  A    between atoms: N_6  and  N_7
REMARK    4  A    between atoms: N_7  and  C_8
REMARK    5  A    between atoms: C_11  and  O_12
REMARK                            x       y       z     vdW  Elec       q    Type
REMARK                         _______ _______ _______ _____ _____    ______ ____
ROOT
ATOM      1  N   UNL     1      24.731   0.645  52.454  0.00  0.00    -0.236 N 
ATOM      2  H   UNL     1      24.834   0.903  51.509  0.00  0.00    +0.000 HD
ENDROOT
BRANCH   1   3
ATOM      3  C   UNL     1      23.467   0.142  52.914  0.00  0.00    +0.049 A 
ATOM      4  C   UNL     1      22.296   0.449  52.203  0.00  0.00    -0.036 A 
ATOM      5  C   UNL     1      21.057  -0.033  52.639  0.00  0.00    -0.018 A 
ATOM      6  C   UNL     1      20.976  -0.826  53.790  0.00  0.00    +0.117 A 
ATOM      7  C   UNL     1      22.139  -1.134  54.504  0.00  0.00    -0.018 A 
ATOM      8  C   UNL     1      23.378  -0.655  54.071  0.00  0.00    -0.036 A 
BRANCH   6   9
ATOM      9  O   UNL     1      19.748  -1.311  54.234  0.00  0.00    -0.507 OA
ATOM     10  H   UNL     1      19.658  -2.213  54.473  0.00  0.00    +0.000 HD
ENDBRANCH   6   9
ENDBRANCH   1   3
BRANCH   1  12
ATOM     11  C   UNL     1      26.764  -0.114  53.461  0.00  0.00    +0.234 C 
ATOM     12  N   UNL     1      25.822   0.774  53.333  0.00  0.00    -0.160 NA
BRANCH  11  14
ATOM     13  N   UNL     1      28.687   0.325  55.144  0.00  0.00    -0.188 NA
ATOM     14  C   UNL     1      27.829   0.129  54.392  0.00  0.00    +0.132 C 
ENDBRANCH  11  14
BRANCH  11  15
ATOM     15  C   UNL     1      26.778  -1.337  52.699  0.00  0.00    +0.132 C 
ATOM     16  N   UNL     1      26.789  -2.320  52.088  0.00  0.00    -0.188 NA
ENDBRANCH  11  15
ENDBRANCH   1  12
TORSDOF 5
ENDMDL
MODEL 8
REMARK VINA RESULT:    -5.004      4.040      4.981
REMARK INTER + INTRA:          -6.583
REMARK INTER:                  -6.373
REMARK INTRA:                  -0.210
REMARK UNBOUND:                -0.263
REMARK  Name = 
REMARK  5 active torsions:
REMARK  status: ('A' for Active; 'I' for Inactive)
REMARK    1  A    between atoms: C_2  and  C_3
REMARK    2  A    between atoms: C_3  and  C_4
REMARK    3  A    between atoms: N_6  and  N_7
REMARK    4  A    between atoms: N_7  and  C_8
REMARK    5  A    between atoms: C_11  and  O_12
REMARK                            x       y       z     vdW  Elec       q    Type
REMARK                         _______ _______ _______ _____ _____    ______ ____
ROOT
ATOM      1  N   UNL     1      24.827   0.421  53.002  0.00  0.00    -0.236 N 
ATOM      2  H   UNL     1      25.560   0.125  53.590  0.00  0.00    +0.000 HD
ENDROOT
BRANCH   1   3
ATOM      3  C   UNL     1      23.484  -0.006  53.277  0.00  0.00    +0.049 A 
ATOM      4  C   UNL     1      22.445   0.370  52.410  0.00  0.00    -0.036 A 
ATOM      5  C   UNL     1      21.130  -0.038  52.663  0.00  0.00    -0.018 A 
ATOM      6  C   UNL     1      20.841  -0.823  53.786  0.00  0.00    +0.117 A 
ATOM      7  C   UNL     1      21.872  -1.200  54.654  0.00  0.00    -0.018 A 
ATOM      8  C   UNL     1      23.186  -0.795  54.403  0.00  0.00    -0.036 A 
BRANCH   6   9
ATOM      9  O   UNL     1      19.536  -1.235  54.048  0.00  0.00    -0.507 OA
ATOM     10  H   UNL     1      19.164  -1.947  53.567  0.00  0.00    +0.000 HD
ENDBRANCH   6   9
ENDBRANCH   1   3
BRANCH   1  12
ATOM     11  C   UNL     1      26.203   1.953  51.784  0.00  0.00    +0.234 C 
ATOM     12  N   UNL     1      25.111   1.256  51.906  0.00  0.00    -0.160 NA
BRANCH  11  14
ATOM     13  N   UNL     1      26.524   3.430  49.678  0.00  0.00    -0.188 NA
ATOM     14  C   UNL     1      26.380   2.771  50.618  0.00  0.00    +0.132 C 
ENDBRANCH  11  14
BRANCH  11  15
ATOM     15  C   UNL     1      27.244   1.934  52.780  0.00  0.00    +0.132 C 
ATOM     16  N   UNL     1      28.079   1.917  53.581  0.00  0.00    -0.188 NA
ENDBRANCH  11  15
ENDBRANCH   1  12
TORSDOF 5
ENDMDL
MODEL 9
REMARK VINA RESULT:    -4.964      3.661      4.904
REMARK INTER + INTRA:          -6.533
REMARK INTER:                  -6.337
REMARK INTRA:                  -0.196
REMARK UNBOUND:                -0.263
REMARK  Name = 
REMARK  5 active torsions:
REMARK  status: ('A' for Active; 'I' for Inactive)
REMARK    1  A    between atoms: C_2  and  C_3
REMARK    2  A    between atoms: C_3  and  C_4
REMARK    3  A    between atoms: N_6  and  N_7
REMARK    4  A    between atoms: N_7  and  C_8
REMARK    5  A    between atoms: C_11  and  O_12
REMARK                            x       y       z     vdW  Elec       q    Type
REMARK                         _______ _______ _______ _____ _____    ______ ____
ROOT
ATOM      1  N   UNL     1      24.062  -0.124  53.719  0.00  0.00    -0.236 N 
ATOM      2  H   UNL     1      23.831  -0.996  54.112  0.00  0.00    +0.000 HD
ENDROOT
BRANCH   1   3
ATOM      3  C   UNL     1      25.442   0.253  53.597  0.00  0.00    +0.049 A 
ATOM      4  C   UNL     1      26.332  -0.017  54.649  0.00  0.00    -0.036 A 
ATOM      5  C   UNL     1      27.680   0.344  54.547  0.00  0.00    -0.018 A 
ATOM      6  C   UNL     1      28.152   0.979  53.391  0.00  0.00    +0.117 A 
ATOM      7  C   UNL     1      27.271   1.252  52.340  0.00  0.00    -0.018 A 
ATOM      8  C   UNL     1      25.923   0.892  52.440  0.00  0.00    -0.036 A 
BRANCH   6   9
ATOM      9  O   UNL     1      29.492   1.343  53.278  0.00  0.00    -0.507 OA
ATOM     10  H   UNL     1      30.122   0.722  52.970  0.00  0.00    +0.000 HD
ENDBRANCH   6   9
ENDBRANCH   1   3
BRANCH   1  12
ATOM     11  C   UNL     1      21.768   0.464  53.377  0.00  0.00    +0.234 C 
ATOM     12  N   UNL     1      23.036   0.736  53.284  0.00  0.00    -0.160 NA
BRANCH  11  14
ATOM     13  N   UNL     1      20.042   2.194  52.512  0.00  0.00    -0.188 NA
ATOM     14  C   UNL     1      20.813   1.421  52.898  0.00  0.00    +0.132 C 
ENDBRANCH  11  14
BRANCH  11  15
ATOM     15  C   UNL     1      21.286  -0.770  53.946  0.00  0.00    +0.132 C 
ATOM     16  N   UNL     1      20.900  -1.760  54.403  0.00  0.00    -0.188 NA
ENDBRANCH  11  15
ENDBRANCH   1  12
TORSDOF 5
ENDMDL
