MODEL 1
REMARK VINA RESULT:    -8.028      0.000      0.000
REMARK INTER + INTRA:          -9.615
REMARK INTER:                  -9.436
REMARK INTRA:                  -0.179
REMARK UNBOUND:                -0.179
REMARK  Name = 
REMARK  5 active torsions:
REMARK  status: ('A' for Active; 'I' for Inactive)
REMARK    1  A    between atoms: O_1  and  C_2
REMARK    2  A    between atoms: C_4  and  O_5
REMARK    3  A    between atoms: C_8  and  C_9
REMARK    4  A    between atoms: C_12  and  O_13
REMARK    5  A    between atoms: C_14  and  O_15
REMARK                            x       y       z     vdW  Elec       q    Type
REMARK                         _______ _______ _______ _____ _____    ______ ____
ROOT
ATOM      1  C   UNL     1      19.481   0.038  52.432  0.00  0.00    +0.122 A 
ATOM      2  C   UNL     1      19.721  -0.801  53.539  0.00  0.00    +0.023 A 
ATOM      3  C   UNL     1      21.028  -0.992  54.026  0.00  0.00    +0.147 A 
ATOM      4  C   UNL     1      22.084  -0.328  53.387  0.00  0.00    +0.120 A 
ATOM      5  N   UNL     1      23.388  -0.421  53.752  0.00  0.00    -0.235 NA
ATOM      6  C   UNL     1      24.186   0.332  52.951  0.00  0.00    +0.110 A 
ATOM      7  S   UNL     1      23.284   1.139  51.759  0.00  0.00    -0.067 S 
ATOM      8  C   UNL     1      21.834   0.494  52.300  0.00  0.00    +0.047 A 
ATOM      9  C   UNL     1      20.551   0.698  51.802  0.00  0.00    -0.004 A 
ENDROOT
BRANCH   6  10
ATOM     10  C   UNL     1      25.656   0.416  53.121  0.00  0.00    +0.011 A 
ATOM     11  C   UNL     1      26.465  -0.691  52.817  0.00  0.00    -0.048 A 
ATOM     12  C   UNL     1      27.852  -0.620  52.975  0.00  0.00    -0.016 A 
ATOM     13  C   UNL     1      28.452   0.557  53.438  0.00  0.00    +0.158 A 
ATOM     14  C   UNL     1      27.652   1.670  53.746  0.00  0.00    +0.159 A 
ATOM     15  C   UNL     1      26.263   1.597  53.588  0.00  0.00    -0.007 A 
BRANCH  13  16
ATOM     16  O   UNL     1      29.835   0.624  53.595  0.00  0.00    -0.503 OA
ATOM     17  H   UNL     1      30.283   1.437  53.460  0.00  0.00    +0.000 HD
ENDBRANCH  13  16
BRANCH  14  18
ATOM     18  O   UNL     1      28.219   2.856  54.211  0.00  0.00    -0.503 OA
ATOM     19  H   UNL     1      29.094   3.087  53.964  0.00  0.00    +0.000 HD
ENDBRANCH  14  18
ENDBRANCH   6  10
BRANCH   1  20
ATOM     20  O   UNL     1      18.177   0.208  51.971  0.00  0.00    -0.507 OA
ATOM     21  H   UNL     1      17.454  -0.066  52.501  0.00  0.00    +0.000 HD
ENDBRANCH   1  20
BRANCH   3  22
ATOM     22  O   UNL     1      21.244  -1.825  55.121  0.00  0.00    -0.504 OA
ATOM     23  H   UNL     1      20.777  -2.634  55.196  0.00  0.00    +0.000 HD
ENDBRANCH   3  22
TORSDOF 5
ENDMDL
MODEL 2
REMARK VINA RESULT:    -7.767      1.694      7.249
REMARK INTER + INTRA:          -9.308
REMARK INTER:                  -9.120
REMARK INTRA:                  -0.188
REMARK UNBOUND:                -0.179
REMARK  Name = 
REMARK  5 active torsions:
REMARK  status: ('A' for Active; 'I' for Inactive)
REMARK    1  A    between atoms: O_1  and  C_2
REMARK    2  A    between atoms: C_4  and  O_5
REMARK    3  A    between atoms: C_8  and  C_9
REMARK    4  A    between atoms: C_12  and  O_13
REMARK    5  A    between atoms: C_14  and  O_15
REMARK                            x       y       z     vdW  Elec       q    Type
REMARK                         _______ _______ _______ _____ _____    ______ ____
ROOT
ATOM      1  C   UNL     1      29.720  -0.026  53.562  0.00  0.00    +0.122 A 
ATOM      2  C   UNL     1      29.441  -1.378  53.275  0.00  0.00    +0.023 A 
ATOM      3  C   UNL     1      28.115  -1.819  53.109  0.00  0.00    +0.147 A 
ATOM      4  C   UNL     1      27.078  -0.884  53.234  0.00  0.00    +0.120 A 
ATOM      5  N   UNL     1      25.758  -1.171  53.097  0.00  0.00    -0.235 NA
ATOM      6  C   UNL     1      24.986  -0.068  53.273  0.00  0.00    +0.110 A 
ATOM      7  S   UNL     1      25.931   1.305  53.603  0.00  0.00    -0.067 S 
ATOM      8  C   UNL     1      27.365   0.442  53.516  0.00  0.00    +0.047 A 
ATOM      9  C   UNL     1      28.668   0.900  53.684  0.00  0.00    -0.004 A 
ENDROOT
BRANCH   6  10
ATOM     10  C   UNL     1      23.507  -0.092  53.180  0.00  0.00    +0.011 A 
ATOM     11  C   UNL     1      22.846   0.727  52.249  0.00  0.00    -0.048 A 
ATOM     12  C   UNL     1      21.452   0.711  52.155  0.00  0.00    -0.016 A 
ATOM     13  C   UNL     1      20.696  -0.121  52.989  0.00  0.00    +0.158 A 
ATOM     14  C   UNL     1      21.346  -0.943  53.925  0.00  0.00    +0.159 A 
ATOM     15  C   UNL     1      22.743  -0.926  54.017  0.00  0.00    -0.007 A 
BRANCH  13  16
ATOM     16  O   UNL     1      19.306  -0.134  52.893  0.00  0.00    -0.503 OA
ATOM     17  H   UNL     1      18.798   0.501  53.359  0.00  0.00    +0.000 HD
ENDBRANCH  13  16
BRANCH  14  18
ATOM     18  O   UNL     1      20.622  -1.783  54.770  0.00  0.00    -0.503 OA
ATOM     19  H   UNL     1      20.005  -1.420  55.375  0.00  0.00    +0.000 HD
ENDBRANCH  14  18
ENDBRANCH   6  10
BRANCH   1  20
ATOM     20  O   UNL     1      31.042   0.382  53.722  0.00  0.00    -0.507 OA
ATOM     21  H   UNL     1      31.717  -0.002  53.197  0.00  0.00    +0.000 HD
ENDBRANCH   1  20
BRANCH   3  22
ATOM     22  O   UNL     1      27.861  -3.159  52.825  0.00  0.00    -0.504 OA
ATOM     23  H   UNL     1      28.387  -3.829  53.215  0.00  0.00    +0.000 HD
ENDBRANCH   3  22
TORSDOF 5
ENDMDL
MODEL 3
REMARK VINA RESULT:    -7.716      1.553      2.078
REMARK INTER + INTRA:          -9.248
REMARK INTER:                  -9.063
REMARK INTRA:                  -0.185
REMARK UNBOUND:                -0.179
REMARK  Name = 
REMARK  5 active torsions:
REMARK  status: ('A' for Active; 'I' for Inactive)
REMARK    1  A    between atoms: O_1  and  C_2
REMARK    2  A    between atoms: C_4  and  O_5
REMARK    3  A    between atoms: C_8  and  C_9
REMARK    4  A    between atoms: C_12  and  O_13
REMARK    5  A    between atoms: C_14  and  O_15
REMARK                            x       y       z     vdW  Elec       q    Type
REMARK                         _______ _______ _______ _____ _____    ______ ____
ROOT
ATOM      1  C   UNL     1      20.117  -0.727  53.636  0.00  0.00    +0.122 A 
ATOM      2  C   UNL     1      20.318   0.101  52.512  0.00  0.00    +0.023 A 
ATOM      3  C   UNL     1      21.612   0.517  52.148  0.00  0.00    +0.147 A 
ATOM      4  C   UNL     1      22.696   0.090  52.926  0.00  0.00    +0.120 A 
ATOM      5  N   UNL     1      23.993   0.415  52.688  0.00  0.00    -0.235 NA
ATOM      6  C   UNL     1      24.824  -0.142  53.606  0.00  0.00    +0.110 A 
ATOM      7  S   UNL     1      23.963  -1.062  54.746  0.00  0.00    -0.067 S 
ATOM      8  C   UNL     1      22.487  -0.724  54.027  0.00  0.00    +0.047 A 
ATOM      9  C   UNL     1      21.217  -1.148  54.406  0.00  0.00    -0.004 A 
ENDROOT
BRANCH   6  10
ATOM     10  C   UNL     1      26.294   0.047  53.588  0.00  0.00    +0.011 A 
ATOM     11  C   UNL     1      27.136  -1.012  53.210  0.00  0.00    -0.048 A 
ATOM     12  C   UNL     1      28.523  -0.843  53.191  0.00  0.00    -0.016 A 
ATOM     13  C   UNL     1      29.091   0.385  53.549  0.00  0.00    +0.158 A 
ATOM     14  C   UNL     1      28.259   1.451  53.929  0.00  0.00    +0.159 A 
ATOM     15  C   UNL     1      26.869   1.280  53.948  0.00  0.00    -0.007 A 
BRANCH  13  16
ATOM     16  O   UNL     1      30.475   0.551  53.528  0.00  0.00    -0.503 OA
ATOM     17  H   UNL     1      31.032  -0.118  53.877  0.00  0.00    +0.000 HD
ENDBRANCH  13  16
BRANCH  14  18
ATOM     18  O   UNL     1      28.793   2.687  54.292  0.00  0.00    -0.503 OA
ATOM     19  H   UNL     1      28.257   3.456  54.265  0.00  0.00    +0.000 HD
ENDBRANCH  14  18
ENDBRANCH   6  10
BRANCH   1  20
ATOM     20  O   UNL     1      18.825  -1.124  53.973  0.00  0.00    -0.507 OA
ATOM     21  H   UNL     1      18.096  -0.578  53.756  0.00  0.00    +0.000 HD
ENDBRANCH   1  20
BRANCH   3  22
ATOM     22  O   UNL     1      21.788   1.336  51.034  0.00  0.00    -0.504 OA
ATOM     23  H   UNL     1      21.459   2.213  51.039  0.00  0.00    +0.000 HD
ENDBRANCH   3  22
TORSDOF 5
ENDMDL
MODEL 4
REMARK VINA RESULT:    -7.462      1.449      7.363
REMARK INTER + INTRA:          -8.950
REMARK INTER:                  -8.769
REMARK INTRA:                  -0.181
REMARK UNBOUND:                -0.179
REMARK  Name = 
REMARK  5 active torsions:
REMARK  status: ('A' for Active; 'I' for Inactive)
REMARK    1  A    between atoms: O_1  and  C_2
REMARK    2  A    between atoms: C_4  and  O_5
REMARK    3  A    between atoms: C_8  and  C_9
REMARK    4  A    between atoms: C_12  and  O_13
REMARK    5  A    between atoms: C_14  and  O_15
REMARK                            x       y       z     vdW  Elec       q    Type
REMARK                         _______ _______ _______ _____ _____    ______ ____
ROOT
ATOM      1  C   UNL     1      29.683   0.022  53.609  0.00  0.00    +0.122 A 
ATOM      2  C   UNL     1      29.339   1.359  53.893  0.00  0.00    +0.023 A 
ATOM      3  C   UNL     1      27.993   1.769  53.902  0.00  0.00    +0.147 A 
ATOM      4  C   UNL     1      27.002   0.818  53.625  0.00  0.00    +0.120 A 
ATOM      5  N   UNL     1      25.668   1.075  53.602  0.00  0.00    -0.235 NA
ATOM      6  C   UNL     1      24.950  -0.037  53.303  0.00  0.00    +0.110 A 
ATOM      7  S   UNL     1      25.960  -1.382  53.059  0.00  0.00    -0.067 S 
ATOM      8  C   UNL     1      27.352  -0.493  53.348  0.00  0.00    +0.047 A 
ATOM      9  C   UNL     1      28.676  -0.921  53.333  0.00  0.00    -0.004 A 
ENDROOT
BRANCH   6  10
ATOM     10  C   UNL     1      23.471  -0.045  53.209  0.00  0.00    +0.011 A 
ATOM     11  C   UNL     1      22.819   0.781  52.278  0.00  0.00    -0.048 A 
ATOM     12  C   UNL     1      21.425   0.780  52.183  0.00  0.00    -0.016 A 
ATOM     13  C   UNL     1      20.660  -0.045  53.016  0.00  0.00    +0.158 A 
ATOM     14  C   UNL     1      21.300  -0.875  53.951  0.00  0.00    +0.159 A 
ATOM     15  C   UNL     1      22.697  -0.872  54.045  0.00  0.00    -0.007 A 
BRANCH  13  16
ATOM     16  O   UNL     1      19.270  -0.043  52.919  0.00  0.00    -0.503 OA
ATOM     17  H   UNL     1      18.764  -0.662  53.410  0.00  0.00    +0.000 HD
ENDBRANCH  13  16
BRANCH  14  18
ATOM     18  O   UNL     1      20.567  -1.707  54.795  0.00  0.00    -0.503 OA
ATOM     19  H   UNL     1      20.390  -1.443  55.677  0.00  0.00    +0.000 HD
ENDBRANCH  14  18
ENDBRANCH   6  10
BRANCH   1  20
ATOM     20  O   UNL     1      31.024  -0.356  53.606  0.00  0.00    -0.507 OA
ATOM     21  H   UNL     1      31.639   0.100  54.146  0.00  0.00    +0.000 HD
ENDBRANCH   1  20
BRANCH   3  22
ATOM     22  O   UNL     1      27.674   3.095  54.185  0.00  0.00    -0.504 OA
ATOM     23  H   UNL     1      26.783   3.383  54.147  0.00  0.00    +0.000 HD
ENDBRANCH   3  22
TORSDOF 5
ENDMDL
MODEL 5
REMARK VINA RESULT:    -7.460      1.841      2.461
REMARK INTER + INTRA:          -8.948
REMARK INTER:                  -8.757
REMARK INTRA:                  -0.191
REMARK UNBOUND:                -0.179
REMARK  Name = 
REMARK  5 active torsions:
REMARK  status: ('A' for Active; 'I' for Inactive)
REMARK    1  A    between atoms: O_1  and  C_2
REMARK    2  A    between atoms: C_4  and  O_5
REMARK    3  A    between atoms: C_8  and  C_9
REMARK    4  A    between atoms: C_12  and  O_13
REMARK    5  A    between atoms: C_14  and  O_15
REMARK                            x       y       z     vdW  Elec       q    Type
REMARK                         _______ _______ _______ _____ _____    ______ ____
ROOT
ATOM      1  C   UNL     1      20.681   2.190  52.623  0.00  0.00    +0.122 A 
ATOM      2  C   UNL     1      20.468   0.995  53.338  0.00  0.00    +0.023 A 
ATOM      3  C   UNL     1      21.548   0.166  53.692  0.00  0.00    +0.147 A 
ATOM      4  C   UNL     1      22.841   0.556  53.319  0.00  0.00    +0.120 A 
ATOM      5  N   UNL     1      23.970  -0.147  53.596  0.00  0.00    -0.235 NA
ATOM      6  C   UNL     1      25.076   0.474  53.110  0.00  0.00    +0.110 A 
ATOM      7  S   UNL     1      24.677   1.924  52.318  0.00  0.00    -0.067 S 
ATOM      8  C   UNL     1      23.039   1.733  52.616  0.00  0.00    +0.047 A 
ATOM      9  C   UNL     1      21.986   2.568  52.256  0.00  0.00    -0.004 A 
ENDROOT
BRANCH   6  10
ATOM     10  C   UNL     1      26.445  -0.071  53.267  0.00  0.00    +0.011 A 
ATOM     11  C   UNL     1      27.484   0.755  53.728  0.00  0.00    -0.048 A 
ATOM     12  C   UNL     1      28.778   0.250  53.879  0.00  0.00    -0.016 A 
ATOM     13  C   UNL     1      29.056  -1.087  53.571  0.00  0.00    +0.158 A 
ATOM     14  C   UNL     1      28.026  -1.922  53.108  0.00  0.00    +0.159 A 
ATOM     15  C   UNL     1      26.730  -1.414  52.958  0.00  0.00    -0.007 A 
BRANCH  13  16
ATOM     16  O   UNL     1      30.348  -1.588  53.723  0.00  0.00    -0.503 OA
ATOM     17  H   UNL     1      30.956  -1.537  53.012  0.00  0.00    +0.000 HD
ENDBRANCH  13  16
BRANCH  14  18
ATOM     18  O   UNL     1      28.269  -3.258  52.792  0.00  0.00    -0.503 OA
ATOM     19  H   UNL     1      27.554  -3.860  52.715  0.00  0.00    +0.000 HD
ENDBRANCH  14  18
ENDBRANCH   6  10
BRANCH   1  20
ATOM     20  O   UNL     1      19.593   2.992  52.286  0.00  0.00    -0.507 OA
ATOM     21  H   UNL     1      19.684   3.925  52.276  0.00  0.00    +0.000 HD
ENDBRANCH   1  20
BRANCH   3  22
ATOM     22  O   UNL     1      21.316  -1.012  54.400  0.00  0.00    -0.504 OA
ATOM     23  H   UNL     1      20.487  -1.155  54.814  0.00  0.00    +0.000 HD
ENDBRANCH   3  22
TORSDOF 5
ENDMDL
MODEL 6
REMARK VINA RESULT:    -7.384      2.727      3.723
REMARK INTER + INTRA:          -8.858
REMARK INTER:                  -8.668
REMARK INTRA:                  -0.189
REMARK UNBOUND:                -0.179
REMARK  Name = 
REMARK  5 active torsions:
REMARK  status: ('A' for Active; 'I' for Inactive)
REMARK    1  A    between atoms: O_1  and  C_2
REMARK    2  A    between atoms: C_4  and  O_5
REMARK    3  A    between atoms: C_8  and  C_9
REMARK    4  A    between atoms: C_12  and  O_13
REMARK    5  A    between atoms: C_14  and  O_15
REMARK                            x       y       z     vdW  Elec       q    Type
REMARK                         _______ _______ _______ _____ _____    ______ ____
ROOT
ATOM      1  C   UNL     1      20.990   3.294  52.328  0.00  0.00    +0.122 A 
ATOM      2  C   UNL     1      21.913   4.352  52.197  0.00  0.00    +0.023 A 
ATOM      3  C   UNL     1      23.295   4.119  52.322  0.00  0.00    +0.147 A 
ATOM      4  C   UNL     1      23.734   2.813  52.578  0.00  0.00    +0.120 A 
ATOM      5  N   UNL     1      25.034   2.449  52.720  0.00  0.00    -0.235 NA
ATOM      6  C   UNL     1      25.156   1.118  52.963  0.00  0.00    +0.110 A 
ATOM      7  S   UNL     1      23.640   0.353  53.005  0.00  0.00    -0.067 S 
ATOM      8  C   UNL     1      22.817   1.782  52.704  0.00  0.00    +0.047 A 
ATOM      9  C   UNL     1      21.446   1.988  52.584  0.00  0.00    -0.004 A 
ENDROOT
BRANCH   6  10
ATOM     10  C   UNL     1      26.463   0.447  53.160  0.00  0.00    +0.011 A 
ATOM     11  C   UNL     1      27.583   1.193  53.564  0.00  0.00    -0.048 A 
ATOM     12  C   UNL     1      28.819   0.569  53.752  0.00  0.00    -0.016 A 
ATOM     13  C   UNL     1      28.957  -0.808  53.540  0.00  0.00    +0.158 A 
ATOM     14  C   UNL     1      27.843  -1.563  53.136  0.00  0.00    +0.159 A 
ATOM     15  C   UNL     1      26.606  -0.936  52.948  0.00  0.00    -0.007 A 
BRANCH  13  16
ATOM     16  O   UNL     1      30.191  -1.427  53.729  0.00  0.00    -0.503 OA
ATOM     17  H   UNL     1      30.919  -0.933  54.052  0.00  0.00    +0.000 HD
ENDBRANCH  13  16
BRANCH  14  18
ATOM     18  O   UNL     1      27.946  -2.936  52.916  0.00  0.00    -0.503 OA
ATOM     19  H   UNL     1      27.205  -3.492  53.060  0.00  0.00    +0.000 HD
ENDBRANCH  14  18
ENDBRANCH   6  10
BRANCH   1  20
ATOM     20  O   UNL     1      19.627   3.553  52.199  0.00  0.00    -0.507 OA
ATOM     21  H   UNL     1      19.252   4.303  52.617  0.00  0.00    +0.000 HD
ENDBRANCH   1  20
BRANCH   3  22
ATOM     22  O   UNL     1      24.191   5.178  52.189  0.00  0.00    -0.504 OA
ATOM     23  H   UNL     1      24.948   5.087  51.645  0.00  0.00    +0.000 HD
ENDBRANCH   3  22
TORSDOF 5
ENDMDL
MODEL 7
REMARK VINA RESULT:    -7.321      2.252      7.131
REMARK INTER + INTRA:          -8.784
REMARK INTER:                  -8.588
REMARK INTRA:                  -0.195
REMARK UNBOUND:                -0.179
REMARK  Name = 
REMARK  5 active torsions:
REMARK  status: ('A' for Active; 'I' for Inactive)
REMARK    1  A    between atoms: O_1  and  C_2
REMARK    2  A    between atoms: C_4  and  O_5
REMARK    3  A    between atoms: C_8  and  C_9
REMARK    4  A    between atoms: C_12  and  O_13
REMARK    5  A    between atoms: C_14  and  O_15
REMARK                            x       y       z     vdW  Elec       q    Type
REMARK                         _______ _______ _______ _____ _____    ______ ____
ROOT
ATOM      1  C   UNL     1      29.101  -0.582  53.650  0.00  0.00    +0.122 A 
ATOM      2  C   UNL     1      29.257   0.796  53.902  0.00  0.00    +0.023 A 
ATOM      3  C   UNL     1      28.158   1.671  53.824  0.00  0.00    +0.147 A 
ATOM      4  C   UNL     1      26.904   1.141  53.492  0.00  0.00    +0.120 A 
ATOM      5  N   UNL     1      25.762   1.868  53.384  0.00  0.00    -0.235 NA
ATOM      6  C   UNL     1      24.702   1.087  53.049  0.00  0.00    +0.110 A 
ATOM      7  S   UNL     1      25.159  -0.540  52.879  0.00  0.00    -0.067 S 
ATOM      8  C   UNL     1      26.762  -0.215  53.247  0.00  0.00    +0.047 A 
ATOM      9  C   UNL     1      27.835  -1.098  53.318  0.00  0.00    -0.004 A 
ENDROOT
BRANCH   6  10
ATOM     10  C   UNL     1      23.331   1.619  52.863  0.00  0.00    +0.011 A 
ATOM     11  C   UNL     1      22.218   0.825  53.187  0.00  0.00    -0.048 A 
ATOM     12  C   UNL     1      20.922   1.318  53.015  0.00  0.00    -0.016 A 
ATOM     13  C   UNL     1      20.716   2.610  52.517  0.00  0.00    +0.158 A 
ATOM     14  C   UNL     1      21.822   3.412  52.189  0.00  0.00    +0.159 A 
ATOM     15  C   UNL     1      23.120   2.916  52.362  0.00  0.00    -0.007 A 
BRANCH  13  16
ATOM     16  O   UNL     1      19.422   3.098  52.346  0.00  0.00    -0.503 OA
ATOM     17  H   UNL     1      18.903   3.321  53.094  0.00  0.00    +0.000 HD
ENDBRANCH  13  16
BRANCH  14  18
ATOM     18  O   UNL     1      21.652   4.703  51.690  0.00  0.00    -0.503 OA
ATOM     19  H   UNL     1      21.582   5.429  52.280  0.00  0.00    +0.000 HD
ENDBRANCH  14  18
ENDBRANCH   6  10
BRANCH   1  20
ATOM     20  O   UNL     1      30.207  -1.424  53.734  0.00  0.00    -0.507 OA
ATOM     21  H   UNL     1      30.973  -1.244  53.224  0.00  0.00    +0.000 HD
ENDBRANCH   1  20
BRANCH   3  22
ATOM     22  O   UNL     1      28.333   3.030  54.077  0.00  0.00    -0.504 OA
ATOM     23  H   UNL     1      27.657   3.639  53.857  0.00  0.00    +0.000 HD
ENDBRANCH   3  22
TORSDOF 5
ENDMDL
MODEL 8
REMARK VINA RESULT:    -7.205      1.634      7.242
REMARK INTER + INTRA:          -8.647
REMARK INTER:                  -8.448
REMARK INTRA:                  -0.200
REMARK UNBOUND:                -0.179
REMARK  Name = 
REMARK  5 active torsions:
REMARK  status: ('A' for Active; 'I' for Inactive)
REMARK    1  A    between atoms: O_1  and  C_2
REMARK    2  A    between atoms: C_4  and  O_5
REMARK    3  A    between atoms: C_8  and  C_9
REMARK    4  A    between atoms: C_12  and  O_13
REMARK    5  A    between atoms: C_14  and  O_15
REMARK                            x       y       z     vdW  Elec       q    Type
REMARK                         _______ _______ _______ _____ _____    ______ ____
ROOT
ATOM      1  C   UNL     1      28.635   1.047  53.711  0.00  0.00    +0.122 A 
ATOM      2  C   UNL     1      28.113   2.040  52.857  0.00  0.00    +0.023 A 
ATOM      3  C   UNL     1      26.735   2.095  52.578  0.00  0.00    +0.147 A 
ATOM      4  C   UNL     1      25.893   1.143  53.169  0.00  0.00    +0.120 A 
ATOM      5  N   UNL     1      24.549   1.081  52.987  0.00  0.00    -0.235 NA
ATOM      6  C   UNL     1      23.997   0.055  53.684  0.00  0.00    +0.110 A 
ATOM      7  S   UNL     1      25.175  -0.810  54.552  0.00  0.00    -0.067 S 
ATOM      8  C   UNL     1      26.419   0.173  54.007  0.00  0.00    +0.047 A 
ATOM      9  C   UNL     1      27.777   0.099  54.297  0.00  0.00    -0.004 A 
ENDROOT
BRANCH   6  10
ATOM     10  C   UNL     1      22.547  -0.248  53.668  0.00  0.00    +0.011 A 
ATOM     11  C   UNL     1      22.046  -1.337  54.402  0.00  0.00    -0.048 A 
ATOM     12  C   UNL     1      20.680  -1.629  54.393  0.00  0.00    -0.016 A 
ATOM     13  C   UNL     1      19.792  -0.840  53.652  0.00  0.00    +0.158 A 
ATOM     14  C   UNL     1      20.281   0.251  52.914  0.00  0.00    +0.159 A 
ATOM     15  C   UNL     1      21.651   0.542  52.925  0.00  0.00    -0.007 A 
BRANCH  13  16
ATOM     16  O   UNL     1      18.430  -1.135  53.645  0.00  0.00    -0.503 OA
ATOM     17  H   UNL     1      17.927  -1.007  52.865  0.00  0.00    +0.000 HD
ENDBRANCH  13  16
BRANCH  14  18
ATOM     18  O   UNL     1      19.424   1.056  52.166  0.00  0.00    -0.503 OA
ATOM     19  H   UNL     1      19.316   0.899  51.247  0.00  0.00    +0.000 HD
ENDBRANCH  14  18
ENDBRANCH   6  10
BRANCH   1  20
ATOM     20  O   UNL     1      30.004   1.017  53.970  0.00  0.00    -0.507 OA
ATOM     21  H   UNL     1      30.312   0.833  54.836  0.00  0.00    +0.000 HD
ENDBRANCH   1  20
BRANCH   3  22
ATOM     22  O   UNL     1      26.239   3.084  51.731  0.00  0.00    -0.504 OA
ATOM     23  H   UNL     1      25.314   3.185  51.618  0.00  0.00    +0.000 HD
ENDBRANCH   3  22
TORSDOF 5
ENDMDL
MODEL 9
REMARK VINA RESULT:    -6.933      3.362      7.201
REMARK INTER + INTRA:          -8.328
REMARK INTER:                  -8.137
REMARK INTRA:                  -0.191
REMARK UNBOUND:                -0.179
REMARK  Name = 
REMARK  5 active torsions:
REMARK  status: ('A' for Active; 'I' for Inactive)
REMARK    1  A    between atoms: O_1  and  C_2
REMARK    2  A    between atoms: C_4  and  O_5
REMARK    3  A    between atoms: C_8  and  C_9
REMARK    4  A    between atoms: C_12  and  O_13
REMARK    5  A    between atoms: C_14  and  O_15
REMARK                            x       y       z     vdW  Elec       q    Type
REMARK                         _______ _______ _______ _____ _____    ______ ____
ROOT
ATOM      1  C   UNL     1      26.502   4.045  49.826  0.00  0.00    +0.122 A 
ATOM      2  C   UNL     1      25.367   4.576  49.181  0.00  0.00    +0.023 A 
ATOM      3  C   UNL     1      24.081   4.084  49.469  0.00  0.00    +0.147 A 
ATOM      4  C   UNL     1      23.953   3.054  50.411  0.00  0.00    +0.120 A 
ATOM      5  N   UNL     1      22.776   2.488  50.783  0.00  0.00    -0.235 NA
ATOM      6  C   UNL     1      22.961   1.515  51.712  0.00  0.00    +0.110 A 
ATOM      7  S   UNL     1      24.605   1.332  52.100  0.00  0.00    -0.067 S 
ATOM      8  C   UNL     1      25.077   2.540  51.038  0.00  0.00    +0.047 A 
ATOM      9  C   UNL     1      26.358   3.011  50.769  0.00  0.00    -0.004 A 
ENDROOT
BRANCH   6  10
ATOM     10  C   UNL     1      21.848   0.730  52.295  0.00  0.00    +0.011 A 
ATOM     11  C   UNL     1      20.565   0.795  51.724  0.00  0.00    -0.048 A 
ATOM     12  C   UNL     1      19.510   0.058  52.268  0.00  0.00    -0.016 A 
ATOM     13  C   UNL     1      19.717  -0.755  53.388  0.00  0.00    +0.158 A 
ATOM     14  C   UNL     1      20.995  -0.827  53.967  0.00  0.00    +0.159 A 
ATOM     15  C   UNL     1      22.051  -0.088  53.421  0.00  0.00    -0.007 A 
BRANCH  13  16
ATOM     16  O   UNL     1      18.662  -1.488  53.928  0.00  0.00    -0.503 OA
ATOM     17  H   UNL     1      18.215  -2.123  53.402  0.00  0.00    +0.000 HD
ENDBRANCH  13  16
BRANCH  14  18
ATOM     18  O   UNL     1      21.235  -1.627  55.084  0.00  0.00    -0.503 OA
ATOM     19  H   UNL     1      20.560  -2.190  55.412  0.00  0.00    +0.000 HD
ENDBRANCH  14  18
ENDBRANCH   6  10
BRANCH   1  20
ATOM     20  O   UNL     1      27.764   4.552  49.522  0.00  0.00    -0.507 OA
ATOM     21  H   UNL     1      28.485   3.967  49.393  0.00  0.00    +0.000 HD
ENDBRANCH   1  20
BRANCH   3  22
ATOM     22  O   UNL     1      22.971   4.623  48.821  0.00  0.00    -0.504 OA
ATOM     23  H   UNL     1      22.150   4.684  49.269  0.00  0.00    +0.000 HD
ENDBRANCH   3  22
TORSDOF 5
ENDMDL
