MODEL 1
REMARK VINA RESULT:   -11.301      0.000      0.000
REMARK INTER + INTRA:         -11.780
REMARK INTER:                 -13.282
REMARK INTRA:                   1.503
REMARK UNBOUND:                 1.503
REMARK  Name = 
REMARK  7 active torsions:
REMARK  status: ('A' for Active; 'I' for Inactive)
REMARK    1  A    between atoms: C_1  and  O_2
REMARK    2  A    between atoms: O_2  and  C_3
REMARK    3  A    between atoms: C_4  and  N_5
REMARK    4  A    between atoms: N_5  and  C_6
REMARK    5  A    between atoms: N_5  and  S_7
REMARK    6  A    between atoms: S_7  and  C_8
REMARK    7  A    between atoms: C_14  and  C_15
REMARK                            x       y       z     vdW  Elec       q    Type
REMARK                         _______ _______ _______ _____ _____    ______ ____
ROOT
ATOM      1  C   UNL     1      22.402   4.128  49.249  0.00  0.00    +0.123 C 
ATOM      2  C   UNL     1      23.421   5.017  50.013  0.00  0.00    +0.066 C 
ATOM      3  C   UNL     1      24.123   4.238  51.121  0.00  0.00    +0.013 C 
ATOM      4  C   UNL     1      24.805   2.991  50.531  0.00  0.00    +0.140 C 
ATOM      5  O   UNL     1      24.158   2.415  49.411  0.00  0.00    -0.328 OA
ATOM      6  C   UNL     1      22.746   2.588  49.346  0.00  0.00    +0.174 C 
ATOM      7  C   UNL     1      22.371   1.900  48.011  0.00  0.00    -0.014 C 
ATOM      8  N   UNL     1      22.041   1.880  50.473  0.00  0.00    -0.307 N 
ATOM      9  C   UNL     1      20.710   1.530  50.551  0.00  0.00    +0.053 A 
ATOM     10  C   UNL     1      19.648   1.882  49.696  0.00  0.00    -0.037 A 
ATOM     11  C   UNL     1      18.362   1.382  49.958  0.00  0.00    -0.060 A 
ATOM     12  C   UNL     1      18.133   0.535  51.054  0.00  0.00    -0.061 A 
ATOM     13  C   UNL     1      19.187   0.177  51.901  0.00  0.00    -0.052 A 
ATOM     14  C   UNL     1      20.458   0.687  51.626  0.00  0.00    +0.008 A 
ATOM     15  C   UNL     1      21.656   0.485  52.255  0.00  0.00    +0.015 A 
ATOM     16  C   UNL     1      22.016  -0.293  53.371  0.00  0.00    -0.008 A 
ATOM     17  C   UNL     1      23.345  -0.314  53.793  0.00  0.00    +0.052 A 
ATOM     18  C   UNL     1      24.305   0.468  53.119  0.00  0.00    +0.022 A 
ATOM     19  C   UNL     1      25.635   0.799  53.359  0.00  0.00    +0.008 A 
ATOM     20  C   UNL     1      26.536   0.439  54.365  0.00  0.00    -0.052 A 
ATOM     21  C   UNL     1      27.812   1.026  54.356  0.00  0.00    -0.061 A 
ATOM     22  C   UNL     1      28.163   1.967  53.370  0.00  0.00    -0.060 A 
ATOM     23  C   UNL     1      27.241   2.336  52.378  0.00  0.00    -0.037 A 
ATOM     24  C   UNL     1      25.981   1.729  52.389  0.00  0.00    +0.052 A 
ATOM     25  N   UNL     1      24.940   1.973  51.557  0.00  0.00    -0.311 N 
ATOM     26  C   UNL     1      23.926   1.214  52.001  0.00  0.00    +0.077 A 
ATOM     27  C   UNL     1      22.595   1.223  51.545  0.00  0.00    +0.077 A 
ATOM     28  C   UNL     1      23.393  -1.212  54.931  0.00  0.00    +0.245 C 
ATOM     29  O   UNL     1      24.418  -1.581  55.555  0.00  0.00    -0.270 OA
ATOM     30  N   UNL     1      22.093  -1.709  55.214  0.00  0.00    -0.307 N 
ATOM     31  C   UNL     1      21.153  -1.162  54.241  0.00  0.00    +0.039 C 
ATOM     32  H   UNL     1      21.864  -2.325  55.948  0.00  0.00    +0.000 HD
ENDROOT
BRANCH   1  34
ATOM     33  C   UNL     1      20.212   4.647  48.617  0.00  0.00    +0.037 C 
ATOM     34  O   UNL     1      21.084   4.385  49.698  0.00  0.00    -0.373 OA
ENDBRANCH   1  34
BRANCH   2  35
ATOM     35  N   UNL     1      22.835   6.330  50.434  0.00  0.00    -0.179 NA
ATOM     36  C   UNL     1      21.619   6.130  51.238  0.00  0.00    +0.009 C 
BRANCH  35  37
ATOM     37  S   UNL     1      22.480   7.499  49.162  0.00  0.00    +0.029 S 
ATOM     38  C   UNL     1      22.989   6.987  47.526  0.00  0.00    +0.071 C 
ATOM     39  O   UNL     1      23.228   8.769  49.461  0.00  0.00    -0.158 OA
ATOM     40  O   UNL     1      21.010   7.819  49.137  0.00  0.00    -0.158 OA
ENDBRANCH  35  37
ENDBRANCH   2  35
TORSDOF 3
ENDMDL
MODEL 2
REMARK VINA RESULT:   -10.488      2.280      5.343
REMARK INTER + INTRA:         -10.824
REMARK INTER:                 -11.003
REMARK INTRA:                   0.178
REMARK UNBOUND:                 1.503
REMARK  Name = 
REMARK  7 active torsions:
REMARK  status: ('A' for Active; 'I' for Inactive)
REMARK    1  A    between atoms: C_1  and  O_2
REMARK    2  A    between atoms: O_2  and  C_3
REMARK    3  A    between atoms: C_4  and  N_5
REMARK    4  A    between atoms: N_5  and  C_6
REMARK    5  A    between atoms: N_5  and  S_7
REMARK    6  A    between atoms: S_7  and  C_8
REMARK    7  A    between atoms: C_14  and  C_15
REMARK                            x       y       z     vdW  Elec       q    Type
REMARK                         _______ _______ _______ _____ _____    ______ ____
ROOT
ATOM      1  C   UNL     1      21.743   5.648  49.981  0.00  0.00    +0.123 C 
ATOM      2  C   UNL     1      20.529   4.680  49.943  0.00  0.00    +0.066 C 
ATOM      3  C   UNL     1      20.830   3.377  50.676  0.00  0.00    +0.013 C 
ATOM      4  C   UNL     1      21.257   3.678  52.124  0.00  0.00    +0.140 C 
ATOM      5  O   UNL     1      21.947   4.900  52.314  0.00  0.00    -0.328 OA
ATOM      6  C   UNL     1      22.706   5.370  51.204  0.00  0.00    +0.174 C 
ATOM      7  C   UNL     1      23.277   6.715  51.716  0.00  0.00    -0.014 C 
ATOM      8  N   UNL     1      23.851   4.448  50.876  0.00  0.00    -0.307 N 
ATOM      9  C   UNL     1      24.975   4.728  50.129  0.00  0.00    +0.053 A 
ATOM     10  C   UNL     1      25.262   5.866  49.351  0.00  0.00    -0.037 A 
ATOM     11  C   UNL     1      26.498   5.949  48.687  0.00  0.00    -0.060 A 
ATOM     12  C   UNL     1      27.441   4.915  48.799  0.00  0.00    -0.061 A 
ATOM     13  C   UNL     1      27.162   3.786  49.577  0.00  0.00    -0.052 A 
ATOM     14  C   UNL     1      25.926   3.721  50.227  0.00  0.00    +0.008 A 
ATOM     15  C   UNL     1      25.406   2.770  51.060  0.00  0.00    +0.015 A 
ATOM     16  C   UNL     1      25.925   1.554  51.546  0.00  0.00    -0.008 A 
ATOM     17  C   UNL     1      25.154   0.775  52.407  0.00  0.00    +0.052 A 
ATOM     18  C   UNL     1      23.855   1.195  52.758  0.00  0.00    +0.022 A 
ATOM     19  C   UNL     1      22.791   0.610  53.437  0.00  0.00    +0.008 A 
ATOM     20  C   UNL     1      22.633  -0.628  54.066  0.00  0.00    -0.052 A 
ATOM     21  C   UNL     1      21.374  -0.945  54.603  0.00  0.00    -0.061 A 
ATOM     22  C   UNL     1      20.298  -0.045  54.490  0.00  0.00    -0.060 A 
ATOM     23  C   UNL     1      20.464   1.186  53.837  0.00  0.00    -0.037 A 
ATOM     24  C   UNL     1      21.728   1.495  53.323  0.00  0.00    +0.052 A 
ATOM     25  N   UNL     1      22.088   2.599  52.625  0.00  0.00    -0.311 N 
ATOM     26  C   UNL     1      23.372   2.416  52.279  0.00  0.00    +0.077 A 
ATOM     27  C   UNL     1      24.148   3.227  51.433  0.00  0.00    +0.077 A 
ATOM     28  C   UNL     1      25.966  -0.380  52.741  0.00  0.00    +0.245 C 
ATOM     29  O   UNL     1      25.681  -1.288  53.561  0.00  0.00    -0.270 OA
ATOM     30  N   UNL     1      27.210  -0.313  52.060  0.00  0.00    -0.307 N 
ATOM     31  C   UNL     1      27.256   0.915  51.273  0.00  0.00    +0.039 C 
ATOM     32  H   UNL     1      27.927  -0.987  52.113  0.00  0.00    +0.000 HD
ENDROOT
BRANCH   1  34
ATOM     33  C   UNL     1      22.366   6.834  48.064  0.00  0.00    +0.037 C 
ATOM     34  O   UNL     1      22.452   5.604  48.755  0.00  0.00    -0.373 OA
ENDBRANCH   1  34
BRANCH   2  35
ATOM     35  N   UNL     1      19.967   4.518  48.565  0.00  0.00    -0.179 NA
ATOM     36  C   UNL     1      18.996   5.582  48.263  0.00  0.00    +0.009 C 
BRANCH  35  37
ATOM     37  S   UNL     1      19.234   2.962  48.171  0.00  0.00    +0.029 S 
ATOM     38  C   UNL     1      18.179   2.299  49.453  0.00  0.00    +0.071 C 
ATOM     39  O   UNL     1      20.333   1.958  47.963  0.00  0.00    -0.158 OA
ATOM     40  O   UNL     1      18.445   3.062  46.894  0.00  0.00    -0.158 OA
ENDBRANCH  35  37
ENDBRANCH   2  35
TORSDOF 3
ENDMDL
MODEL 3
REMARK VINA RESULT:   -10.197      4.683      7.519
REMARK INTER + INTRA:         -10.483
REMARK INTER:                 -11.021
REMARK INTRA:                   0.538
REMARK UNBOUND:                 1.503
REMARK  Name = 
REMARK  7 active torsions:
REMARK  status: ('A' for Active; 'I' for Inactive)
REMARK    1  A    between atoms: C_1  and  O_2
REMARK    2  A    between atoms: O_2  and  C_3
REMARK    3  A    between atoms: C_4  and  N_5
REMARK    4  A    between atoms: N_5  and  C_6
REMARK    5  A    between atoms: N_5  and  S_7
REMARK    6  A    between atoms: S_7  and  C_8
REMARK    7  A    between atoms: C_14  and  C_15
REMARK                            x       y       z     vdW  Elec       q    Type
REMARK                         _______ _______ _______ _____ _____    ______ ____
ROOT
ATOM      1  C   UNL     1      14.283   0.311  51.232  0.00  0.00    +0.123 C 
ATOM      2  C   UNL     1      14.232   1.843  51.482  0.00  0.00    +0.066 C 
ATOM      3  C   UNL     1      15.628   2.423  51.683  0.00  0.00    +0.013 C 
ATOM      4  C   UNL     1      16.513   2.087  50.470  0.00  0.00    +0.140 C 
ATOM      5  O   UNL     1      16.224   0.858  49.827  0.00  0.00    -0.328 OA
ATOM      6  C   UNL     1      15.674  -0.165  50.649  0.00  0.00    +0.174 C 
ATOM      7  C   UNL     1      15.435  -1.325  49.651  0.00  0.00    -0.014 C 
ATOM      8  N   UNL     1      16.647  -0.623  51.704  0.00  0.00    -0.307 N 
ATOM      9  C   UNL     1      16.617  -1.792  52.433  0.00  0.00    +0.053 A 
ATOM     10  C   UNL     1      15.602  -2.766  52.506  0.00  0.00    -0.037 A 
ATOM     11  C   UNL     1      15.801  -3.904  53.304  0.00  0.00    -0.060 A 
ATOM     12  C   UNL     1      16.998  -4.079  54.018  0.00  0.00    -0.061 A 
ATOM     13  C   UNL     1      18.011  -3.117  53.941  0.00  0.00    -0.052 A 
ATOM     14  C   UNL     1      17.793  -1.990  53.144  0.00  0.00    +0.008 A 
ATOM     15  C   UNL     1      18.603  -0.925  52.865  0.00  0.00    +0.015 A 
ATOM     16  C   UNL     1      19.913  -0.603  53.271  0.00  0.00    -0.008 A 
ATOM     17  C   UNL     1      20.503   0.574  52.812  0.00  0.00    +0.052 A 
ATOM     18  C   UNL     1      19.775   1.443  51.975  0.00  0.00    +0.022 A 
ATOM     19  C   UNL     1      19.986   2.726  51.481  0.00  0.00    +0.008 A 
ATOM     20  C   UNL     1      21.042   3.632  51.614  0.00  0.00    -0.052 A 
ATOM     21  C   UNL     1      20.902   4.906  51.039  0.00  0.00    -0.061 A 
ATOM     22  C   UNL     1      19.718   5.264  50.366  0.00  0.00    -0.060 A 
ATOM     23  C   UNL     1      18.657   4.352  50.259  0.00  0.00    -0.037 A 
ATOM     24  C   UNL     1      18.818   3.081  50.821  0.00  0.00    +0.052 A 
ATOM     25  N   UNL     1      17.909   2.078  50.868  0.00  0.00    -0.311 N 
ATOM     26  C   UNL     1      18.485   1.089  51.569  0.00  0.00    +0.077 A 
ATOM     27  C   UNL     1      17.886  -0.108  51.999  0.00  0.00    +0.077 A 
ATOM     28  C   UNL     1      21.838   0.603  53.381  0.00  0.00    +0.245 C 
ATOM     29  O   UNL     1      22.735   1.450  53.149  0.00  0.00    -0.270 OA
ATOM     30  N   UNL     1      22.041  -0.536  54.204  0.00  0.00    -0.307 N 
ATOM     31  C   UNL     1      20.840  -1.364  54.175  0.00  0.00    +0.039 C 
ATOM     32  H   UNL     1      22.862  -0.735  54.710  0.00  0.00    +0.000 HD
ENDROOT
BRANCH   1  34
ATOM     33  C   UNL     1      12.832  -1.231  52.224  0.00  0.00    +0.037 C 
ATOM     34  O   UNL     1      13.957  -0.397  52.415  0.00  0.00    -0.373 OA
ENDBRANCH   1  34
BRANCH   2  35
ATOM     35  N   UNL     1      13.231   2.220  52.530  0.00  0.00    -0.179 NA
ATOM     36  C   UNL     1      11.857   1.994  52.052  0.00  0.00    +0.009 C 
BRANCH  35  37
ATOM     37  S   UNL     1      13.333   3.852  53.192  0.00  0.00    +0.029 S 
ATOM     38  C   UNL     1      12.209   4.170  54.545  0.00  0.00    +0.071 C 
ATOM     39  O   UNL     1      12.978   4.829  52.105  0.00  0.00    -0.158 OA
ATOM     40  O   UNL     1      14.738   4.148  53.644  0.00  0.00    -0.158 OA
ENDBRANCH  35  37
ENDBRANCH   2  35
TORSDOF 3
ENDMDL
MODEL 4
REMARK VINA RESULT:    -9.909      2.231      3.553
REMARK INTER + INTRA:         -10.144
REMARK INTER:                 -11.642
REMARK INTRA:                   1.497
REMARK UNBOUND:                 1.503
REMARK  Name = 
REMARK  7 active torsions:
REMARK  status: ('A' for Active; 'I' for Inactive)
REMARK    1  A    between atoms: C_1  and  O_2
REMARK    2  A    between atoms: O_2  and  C_3
REMARK    3  A    between atoms: C_4  and  N_5
REMARK    4  A    between atoms: N_5  and  C_6
REMARK    5  A    between atoms: N_5  and  S_7
REMARK    6  A    between atoms: S_7  and  C_8
REMARK    7  A    between atoms: C_14  and  C_15
REMARK                            x       y       z     vdW  Elec       q    Type
REMARK                         _______ _______ _______ _____ _____    ______ ____
ROOT
ATOM      1  C   UNL     1      22.357   3.933  49.343  0.00  0.00    +0.123 C 
ATOM      2  C   UNL     1      23.090   4.182  50.690  0.00  0.00    +0.066 C 
ATOM      3  C   UNL     1      22.724   3.126  51.729  0.00  0.00    +0.013 C 
ATOM      4  C   UNL     1      23.033   1.723  51.178  0.00  0.00    +0.140 C 
ATOM      5  O   UNL     1      22.892   1.573  49.777  0.00  0.00    -0.328 OA
ATOM      6  C   UNL     1      21.936   2.422  49.149  0.00  0.00    +0.174 C 
ATOM      7  C   UNL     1      22.066   2.047  47.653  0.00  0.00    -0.014 C 
ATOM      8  N   UNL     1      20.533   2.121  49.607  0.00  0.00    -0.307 N 
ATOM      9  C   UNL     1      19.350   2.471  48.993  0.00  0.00    +0.053 A 
ATOM     10  C   UNL     1      19.140   3.325  47.893  0.00  0.00    -0.037 A 
ATOM     11  C   UNL     1      17.833   3.517  47.414  0.00  0.00    -0.060 A 
ATOM     12  C   UNL     1      16.746   2.862  48.015  0.00  0.00    -0.061 A 
ATOM     13  C   UNL     1      16.953   2.006  49.102  0.00  0.00    -0.052 A 
ATOM     14  C   UNL     1      18.259   1.831  49.566  0.00  0.00    +0.008 A 
ATOM     15  C   UNL     1      18.750   1.046  50.573  0.00  0.00    +0.015 A 
ATOM     16  C   UNL     1      18.124   0.159  51.470  0.00  0.00    -0.008 A 
ATOM     17  C   UNL     1      18.895  -0.526  52.408  0.00  0.00    +0.052 A 
ATOM     18  C   UNL     1      20.285  -0.300  52.470  0.00  0.00    +0.022 A 
ATOM     19  C   UNL     1      21.295  -0.675  53.350  0.00  0.00    +0.008 A 
ATOM     20  C   UNL     1      21.303  -1.461  54.506  0.00  0.00    -0.052 A 
ATOM     21  C   UNL     1      22.506  -1.580  55.221  0.00  0.00    -0.061 A 
ATOM     22  C   UNL     1      23.666  -0.906  54.793  0.00  0.00    -0.060 A 
ATOM     23  C   UNL     1      23.638  -0.102  53.643  0.00  0.00    -0.037 A 
ATOM     24  C   UNL     1      22.438  -0.008  52.931  0.00  0.00    +0.052 A 
ATOM     25  N   UNL     1      22.187   0.741  51.832  0.00  0.00    -0.311 N 
ATOM     26  C   UNL     1      20.885   0.569  51.555  0.00  0.00    +0.077 A 
ATOM     27  C   UNL     1      20.125   1.245  50.584  0.00  0.00    +0.077 A 
ATOM     28  C   UNL     1      17.974  -1.364  53.152  0.00  0.00    +0.245 C 
ATOM     29  O   UNL     1      18.270  -2.208  54.033  0.00  0.00    -0.270 OA
ATOM     30  N   UNL     1      16.648  -1.163  52.685  0.00  0.00    -0.307 N 
ATOM     31  C   UNL     1      16.670  -0.196  51.593  0.00  0.00    +0.039 C 
ATOM     32  H   UNL     1      15.844  -1.607  53.041  0.00  0.00    +0.000 HD
ENDROOT
BRANCH   1  34
ATOM     33  C   UNL     1      21.245   5.474  47.980  0.00  0.00    +0.037 C 
ATOM     34  O   UNL     1      21.239   4.793  49.219  0.00  0.00    -0.373 OA
ENDBRANCH   1  34
BRANCH   2  35
ATOM     35  N   UNL     1      22.968   5.599  51.156  0.00  0.00    -0.179 NA
ATOM     36  C   UNL     1      21.556   5.994  51.280  0.00  0.00    +0.009 C 
BRANCH  35  37
ATOM     37  S   UNL     1      23.814   6.832  50.220  0.00  0.00    +0.029 S 
ATOM     38  C   UNL     1      24.762   6.193  48.846  0.00  0.00    +0.071 C 
ATOM     39  O   UNL     1      24.794   7.527  51.125  0.00  0.00    -0.158 OA
ATOM     40  O   UNL     1      22.843   7.861  49.707  0.00  0.00    -0.158 OA
ENDBRANCH  35  37
ENDBRANCH   2  35
TORSDOF 3
ENDMDL
MODEL 5
REMARK VINA RESULT:    -9.699      1.460      1.820
REMARK INTER + INTRA:          -9.897
REMARK INTER:                 -11.414
REMARK INTRA:                   1.516
REMARK UNBOUND:                 1.503
REMARK  Name = 
REMARK  7 active torsions:
REMARK  status: ('A' for Active; 'I' for Inactive)
REMARK    1  A    between atoms: C_1  and  O_2
REMARK    2  A    between atoms: O_2  and  C_3
REMARK    3  A    between atoms: C_4  and  N_5
REMARK    4  A    between atoms: N_5  and  C_6
REMARK    5  A    between atoms: N_5  and  S_7
REMARK    6  A    between atoms: S_7  and  C_8
REMARK    7  A    between atoms: C_14  and  C_15
REMARK                            x       y       z     vdW  Elec       q    Type
REMARK                         _______ _______ _______ _____ _____    ______ ____
ROOT
ATOM      1  C   UNL     1      23.132   5.269  48.740  0.00  0.00    +0.123 C 
ATOM      2  C   UNL     1      24.383   5.691  49.556  0.00  0.00    +0.066 C 
ATOM      3  C   UNL     1      24.711   4.672  50.643  0.00  0.00    +0.013 C 
ATOM      4  C   UNL     1      24.902   3.281  50.015  0.00  0.00    +0.140 C 
ATOM      5  O   UNL     1      24.121   3.021  48.862  0.00  0.00    -0.328 OA
ATOM      6  C   UNL     1      22.877   3.708  48.780  0.00  0.00    +0.174 C 
ATOM      7  C   UNL     1      22.315   3.252  47.411  0.00  0.00    -0.014 C 
ATOM      8  N   UNL     1      21.925   3.278  49.865  0.00  0.00    -0.307 N 
ATOM      9  C   UNL     1      20.558   3.445  49.906  0.00  0.00    +0.053 A 
ATOM     10  C   UNL     1      19.729   4.193  49.048  0.00  0.00    -0.037 A 
ATOM     11  C   UNL     1      18.342   4.198  49.268  0.00  0.00    -0.060 A 
ATOM     12  C   UNL     1      17.781   3.463  50.324  0.00  0.00    -0.061 A 
ATOM     13  C   UNL     1      18.601   2.713  51.174  0.00  0.00    -0.052 A 
ATOM     14  C   UNL     1      19.979   2.723  50.941  0.00  0.00    +0.008 A 
ATOM     15  C   UNL     1      20.996   2.071  51.581  0.00  0.00    +0.015 A 
ATOM     16  C   UNL     1      21.008   1.179  52.671  0.00  0.00    -0.008 A 
ATOM     17  C   UNL     1      22.221   0.654  53.114  0.00  0.00    +0.052 A 
ATOM     18  C   UNL     1      23.423   1.043  52.489  0.00  0.00    +0.022 A 
ATOM     19  C   UNL     1      24.773   0.849  52.764  0.00  0.00    +0.008 A 
ATOM     20  C   UNL     1      25.445   0.149  53.770  0.00  0.00    -0.052 A 
ATOM     21  C   UNL     1      26.847   0.220  53.807  0.00  0.00    -0.061 A 
ATOM     22  C   UNL     1      27.552   0.994  52.865  0.00  0.00    -0.060 A 
ATOM     23  C   UNL     1      26.863   1.710  51.874  0.00  0.00    -0.037 A 
ATOM     24  C   UNL     1      25.468   1.615  51.839  0.00  0.00    +0.052 A 
ATOM     25  N   UNL     1      24.618   2.254  51.001  0.00  0.00    -0.311 N 
ATOM     26  C   UNL     1      23.381   1.912  51.396  0.00  0.00    +0.077 A 
ATOM     27  C   UNL     1      22.163   2.428  50.919  0.00  0.00    +0.077 A 
ATOM     28  C   UNL     1      21.897  -0.234  54.216  0.00  0.00    +0.245 C 
ATOM     29  O   UNL     1      22.693  -0.976  54.842  0.00  0.00    -0.270 OA
ATOM     30  N   UNL     1      20.498  -0.221  54.456  0.00  0.00    -0.307 N 
ATOM     31  C   UNL     1      19.858   0.667  53.490  0.00  0.00    +0.039 C 
ATOM     32  H   UNL     1      20.035  -0.731  55.160  0.00  0.00    +0.000 HD
ENDROOT
BRANCH   1  34
ATOM     33  C   UNL     1      21.275   6.531  48.087  0.00  0.00    +0.037 C 
ATOM     34  O   UNL     1      21.989   5.982  49.176  0.00  0.00    -0.373 OA
ENDBRANCH   1  34
BRANCH   2  35
ATOM     35  N   UNL     1      24.313   7.113  50.020  0.00  0.00    -0.179 NA
ATOM     36  C   UNL     1      23.088   7.353  50.800  0.00  0.00    +0.009 C 
BRANCH  35  37
ATOM     37  S   UNL     1      24.449   8.370  48.789  0.00  0.00    +0.029 S 
ATOM     38  C   UNL     1      24.766   7.757  47.141  0.00  0.00    +0.071 C 
ATOM     39  O   UNL     1      25.609   9.258  49.144  0.00  0.00    -0.158 OA
ATOM     40  O   UNL     1      23.205   9.217  48.764  0.00  0.00    -0.158 OA
ENDBRANCH  35  37
ENDBRANCH   2  35
TORSDOF 3
ENDMDL
MODEL 6
REMARK VINA RESULT:    -9.058      2.981      7.731
REMARK INTER + INTRA:          -9.144
REMARK INTER:                  -9.398
REMARK INTRA:                   0.254
REMARK UNBOUND:                 1.503
REMARK  Name = 
REMARK  7 active torsions:
REMARK  status: ('A' for Active; 'I' for Inactive)
REMARK    1  A    between atoms: C_1  and  O_2
REMARK    2  A    between atoms: O_2  and  C_3
REMARK    3  A    between atoms: C_4  and  N_5
REMARK    4  A    between atoms: N_5  and  C_6
REMARK    5  A    between atoms: N_5  and  S_7
REMARK    6  A    between atoms: S_7  and  C_8
REMARK    7  A    between atoms: C_14  and  C_15
REMARK                            x       y       z     vdW  Elec       q    Type
REMARK                         _______ _______ _______ _____ _____    ______ ____
ROOT
ATOM      1  C   UNL     1      19.171   1.303  50.445  0.00  0.00    +0.123 C 
ATOM      2  C   UNL     1      17.873   2.149  50.334  0.00  0.00    +0.066 C 
ATOM      3  C   UNL     1      18.180   3.600  49.976  0.00  0.00    +0.013 C 
ATOM      4  C   UNL     1      18.993   3.655  48.670  0.00  0.00    +0.140 C 
ATOM      5  O   UNL     1      19.859   2.557  48.445  0.00  0.00    -0.328 OA
ATOM      6  C   UNL     1      20.367   1.912  49.608  0.00  0.00    +0.174 C 
ATOM      7  C   UNL     1      21.216   0.756  49.023  0.00  0.00    -0.014 C 
ATOM      8  N   UNL     1      21.265   2.819  50.407  0.00  0.00    -0.307 N 
ATOM      9  C   UNL     1      22.191   2.464  51.365  0.00  0.00    +0.053 A 
ATOM     10  C   UNL     1      22.416   1.207  51.957  0.00  0.00    -0.037 A 
ATOM     11  C   UNL     1      23.445   1.071  52.905  0.00  0.00    -0.060 A 
ATOM     12  C   UNL     1      24.245   2.169  53.256  0.00  0.00    -0.061 A 
ATOM     13  C   UNL     1      24.028   3.418  52.664  0.00  0.00    -0.052 A 
ATOM     14  C   UNL     1      22.999   3.534  51.726  0.00  0.00    +0.008 A 
ATOM     15  C   UNL     1      22.588   4.605  50.981  0.00  0.00    +0.015 A 
ATOM     16  C   UNL     1      23.053   5.932  50.898  0.00  0.00    -0.008 A 
ATOM     17  C   UNL     1      22.431   6.823  50.025  0.00  0.00    +0.052 A 
ATOM     18  C   UNL     1      21.326   6.397  49.260  0.00  0.00    +0.022 A 
ATOM     19  C   UNL     1      20.402   7.038  48.441  0.00  0.00    +0.008 A 
ATOM     20  C   UNL     1      20.250   8.370  48.043  0.00  0.00    -0.052 A 
ATOM     21  C   UNL     1      19.138   8.705  47.254  0.00  0.00    -0.061 A 
ATOM     22  C   UNL     1      18.192   7.726  46.893  0.00  0.00    -0.060 A 
ATOM     23  C   UNL     1      18.345   6.398  47.318  0.00  0.00    -0.037 A 
ATOM     24  C   UNL     1      19.467   6.075  48.088  0.00  0.00    +0.052 A 
ATOM     25  N   UNL     1      19.778   4.875  48.632  0.00  0.00    -0.311 N 
ATOM     26  C   UNL     1      20.899   5.070  49.344  0.00  0.00    +0.077 A 
ATOM     27  C   UNL     1      21.534   4.151  50.198  0.00  0.00    +0.077 A 
ATOM     28  C   UNL     1      23.146   8.079  50.155  0.00  0.00    +0.245 C 
ATOM     29  O   UNL     1      22.962   9.121  49.479  0.00  0.00    -0.270 OA
ATOM     30  N   UNL     1      24.176   7.954  51.124  0.00  0.00    -0.307 N 
ATOM     31  C   UNL     1      24.179   6.590  51.642  0.00  0.00    +0.039 C 
ATOM     32  H   UNL     1      24.791   8.673  51.400  0.00  0.00    +0.000 HD
ENDROOT
BRANCH   1  34
ATOM     33  C   UNL     1      19.499  -0.234  52.176  0.00  0.00    +0.037 C 
ATOM     34  O   UNL     1      19.537   1.129  51.802  0.00  0.00    -0.373 OA
ENDBRANCH   1  34
BRANCH   2  35
ATOM     35  N   UNL     1      16.966   1.964  51.511  0.00  0.00    -0.179 NA
ATOM     36  C   UNL     1      16.327   0.638  51.480  0.00  0.00    +0.009 C 
BRANCH  35  37
ATOM     37  S   UNL     1      15.717   3.183  51.765  0.00  0.00    +0.029 S 
ATOM     38  C   UNL     1      14.423   2.688  52.894  0.00  0.00    +0.071 C 
ATOM     39  O   UNL     1      15.048   3.460  50.447  0.00  0.00    -0.158 OA
ATOM     40  O   UNL     1      16.328   4.467  52.256  0.00  0.00    -0.158 OA
ENDBRANCH  35  37
ENDBRANCH   2  35
TORSDOF 3
ENDMDL
MODEL 7
REMARK VINA RESULT:    -8.335      4.336      7.920
REMARK INTER + INTRA:          -8.294
REMARK INTER:                  -8.516
REMARK INTRA:                   0.221
REMARK UNBOUND:                 1.503
REMARK  Name = 
REMARK  7 active torsions:
REMARK  status: ('A' for Active; 'I' for Inactive)
REMARK    1  A    between atoms: C_1  and  O_2
REMARK    2  A    between atoms: O_2  and  C_3
REMARK    3  A    between atoms: C_4  and  N_5
REMARK    4  A    between atoms: N_5  and  C_6
REMARK    5  A    between atoms: N_5  and  S_7
REMARK    6  A    between atoms: S_7  and  C_8
REMARK    7  A    between atoms: C_14  and  C_15
REMARK                            x       y       z     vdW  Elec       q    Type
REMARK                         _______ _______ _______ _____ _____    ______ ____
ROOT
ATOM      1  C   UNL     1      14.867   0.522  51.238  0.00  0.00    +0.123 C 
ATOM      2  C   UNL     1      14.300   1.967  51.188  0.00  0.00    +0.066 C 
ATOM      3  C   UNL     1      15.397   2.987  50.896  0.00  0.00    +0.013 C 
ATOM      4  C   UNL     1      16.111   2.625  49.582  0.00  0.00    +0.140 C 
ATOM      5  O   UNL     1      16.184   1.241  49.290  0.00  0.00    -0.328 OA
ATOM      6  C   UNL     1      16.207   0.364  50.413  0.00  0.00    +0.174 C 
ATOM      7  C   UNL     1      16.238  -1.039  49.760  0.00  0.00    -0.014 C 
ATOM      8  N   UNL     1      17.452   0.544  51.241  0.00  0.00    -0.307 N 
ATOM      9  C   UNL     1      17.986  -0.327  52.165  0.00  0.00    +0.053 A 
ATOM     10  C   UNL     1      17.432  -1.510  52.693  0.00  0.00    -0.037 A 
ATOM     11  C   UNL     1      18.177  -2.263  53.616  0.00  0.00    -0.060 A 
ATOM     12  C   UNL     1      19.460  -1.850  54.008  0.00  0.00    -0.061 A 
ATOM     13  C   UNL     1      20.016  -0.680  53.480  0.00  0.00    -0.052 A 
ATOM     14  C   UNL     1      19.259   0.057  52.565  0.00  0.00    +0.008 A 
ATOM     15  C   UNL     1      19.556   1.202  51.879  0.00  0.00    +0.015 A 
ATOM     16  C   UNL     1      20.704   2.017  51.853  0.00  0.00    -0.008 A 
ATOM     17  C   UNL     1      20.727   3.144  51.035  0.00  0.00    +0.052 A 
ATOM     18  C   UNL     1      19.592   3.475  50.266  0.00  0.00    +0.022 A 
ATOM     19  C   UNL     1      19.223   4.572  49.494  0.00  0.00    +0.008 A 
ATOM     20  C   UNL     1      19.877   5.762  49.163  0.00  0.00    -0.052 A 
ATOM     21  C   UNL     1      19.177   6.718  48.409  0.00  0.00    -0.061 A 
ATOM     22  C   UNL     1      17.844   6.488  48.017  0.00  0.00    -0.060 A 
ATOM     23  C   UNL     1      17.193   5.297  48.374  0.00  0.00    -0.037 A 
ATOM     24  C   UNL     1      17.909   4.347  49.110  0.00  0.00    +0.052 A 
ATOM     25  N   UNL     1      17.458   3.164  49.590  0.00  0.00    -0.311 N 
ATOM     26  C   UNL     1      18.474   2.639  50.293  0.00  0.00    +0.077 A 
ATOM     27  C   UNL     1      18.446   1.481  51.092  0.00  0.00    +0.077 A 
ATOM     28  C   UNL     1      22.035   3.746  51.213  0.00  0.00    +0.245 C 
ATOM     29  O   UNL     1      22.501   4.733  50.591  0.00  0.00    -0.270 OA
ATOM     30  N   UNL     1      22.789   3.000  52.159  0.00  0.00    -0.307 N 
ATOM     31  C   UNL     1      21.992   1.864  52.610  0.00  0.00    +0.039 C 
ATOM     32  H   UNL     1      23.702   3.216  52.459  0.00  0.00    +0.000 HD
ENDROOT
BRANCH   1  34
ATOM     33  C   UNL     1      14.238  -1.020  52.879  0.00  0.00    +0.037 C 
ATOM     34  O   UNL     1      15.043   0.102  52.579  0.00  0.00    -0.373 OA
ENDBRANCH   1  34
BRANCH   2  35
ATOM     35  N   UNL     1      13.436   2.285  52.369  0.00  0.00    -0.179 NA
ATOM     36  C   UNL     1      12.112   1.656  52.238  0.00  0.00    +0.009 C 
BRANCH  35  37
ATOM     37  S   UNL     1      13.211   3.989  52.767  0.00  0.00    +0.029 S 
ATOM     38  C   UNL     1      12.737   5.014  51.381  0.00  0.00    +0.071 C 
ATOM     39  O   UNL     1      14.517   4.536  53.273  0.00  0.00    -0.158 OA
ATOM     40  O   UNL     1      12.186   4.142  53.859  0.00  0.00    -0.158 OA
ENDBRANCH  35  37
ENDBRANCH   2  35
TORSDOF 3
ENDMDL
