MODEL 1
REMARK VINA RESULT:    -8.716      0.000      0.000
REMARK INTER + INTRA:          -9.542
REMARK INTER:                  -9.225
REMARK INTRA:                  -0.317
REMARK UNBOUND:                -0.317
REMARK  Name = 
REMARK  3 active torsions:
REMARK  status: ('A' for Active; 'I' for Inactive)
REMARK    1  A    between atoms: C_1  and  N_2
REMARK    2  A    between atoms: C_8  and  C_9
REMARK    3  A    between atoms: N_19  and  C_20
REMARK                            x       y       z     vdW  Elec       q    Type
REMARK                         _______ _______ _______ _____ _____    ______ ____
ROOT
ATOM      1  C   UNL     1      18.583   0.035  52.535  0.00  0.00    +0.000 C 
ATOM      2  N   UNL     1      19.254  -0.689  53.607  0.00  0.00    -0.316 N 
ATOM      3  C   UNL     1      20.679  -0.697  53.739  0.00  0.00    +0.217 A 
ATOM      4  N   UNL     1      21.258  -1.389  54.755  0.00  0.00    -0.222 NA
ATOM      5  C   UNL     1      22.606  -1.415  54.908  0.00  0.00    +0.042 A 
ATOM      6  C   UNL     1      23.423  -0.721  54.009  0.00  0.00    +0.037 A 
ATOM      7  C   UNL     1      24.810  -0.710  54.141  0.00  0.00    -0.037 A 
ATOM      8  C   UNL     1      25.586   0.015  53.235  0.00  0.00    +0.050 A 
ATOM      9  C   UNL     1      24.955   0.716  52.189  0.00  0.00    +0.260 A 
ATOM     10  O   UNL     1      25.663   1.379  51.381  0.00  0.00    -0.267 OA
ATOM     11  N   UNL     1      23.587   0.676  52.047  0.00  0.00    -0.295 N 
ATOM     12  C   UNL     1      22.935   1.432  50.963  0.00  0.00    +0.017 C 
ATOM     13  C   UNL     1      22.817  -0.011  52.954  0.00  0.00    +0.148 A 
ATOM     14  N   UNL     1      21.458  -0.019  52.853  0.00  0.00    -0.196 NA
ATOM     15  H   UNL     1      18.711  -1.187  54.259  0.00  0.00    +0.000 HD
ENDROOT
BRANCH   8  16
ATOM     16  C   UNL     1      27.057   0.040  53.395  0.00  0.00    +0.024 A 
ATOM     17  C   UNL     1      27.704   1.204  53.862  0.00  0.00    +0.050 A 
ATOM     18 CL   UNL     1      26.796   2.651  54.294  0.00  0.00    -0.083 Cl
ATOM     19  C   UNL     1      29.095   1.218  54.012  0.00  0.00    -0.043 A 
ATOM     20  C   UNL     1      29.848   0.085  53.702  0.00  0.00    -0.059 A 
ATOM     21  C   UNL     1      29.216  -1.071  53.241  0.00  0.00    -0.043 A 
ATOM     22  C   UNL     1      27.826  -1.101  53.086  0.00  0.00    +0.050 A 
ATOM     23 CL   UNL     1      27.080  -2.579  52.483  0.00  0.00    -0.083 Cl
ENDBRANCH   8  16
TORSDOF 1
ENDMDL
MODEL 2
REMARK VINA RESULT:    -8.711      0.029      1.966
REMARK INTER + INTRA:          -9.537
REMARK INTER:                  -9.242
REMARK INTRA:                  -0.295
REMARK UNBOUND:                -0.317
REMARK  Name = 
REMARK  3 active torsions:
REMARK  status: ('A' for Active; 'I' for Inactive)
REMARK    1  A    between atoms: C_1  and  N_2
REMARK    2  A    between atoms: C_8  and  C_9
REMARK    3  A    between atoms: N_19  and  C_20
REMARK                            x       y       z     vdW  Elec       q    Type
REMARK                         _______ _______ _______ _____ _____    ______ ____
ROOT
ATOM      1  C   UNL     1      18.582   0.062  52.535  0.00  0.00    +0.000 C 
ATOM      2  N   UNL     1      19.251  -0.675  53.600  0.00  0.00    -0.316 N 
ATOM      3  C   UNL     1      20.676  -0.692  53.730  0.00  0.00    +0.217 A 
ATOM      4  N   UNL     1      21.253  -1.396  54.739  0.00  0.00    -0.222 NA
ATOM      5  C   UNL     1      22.601  -1.431  54.890  0.00  0.00    +0.042 A 
ATOM      6  C   UNL     1      23.420  -0.735  53.996  0.00  0.00    +0.037 A 
ATOM      7  C   UNL     1      24.807  -0.733  54.125  0.00  0.00    -0.037 A 
ATOM      8  C   UNL     1      25.586  -0.005  53.224  0.00  0.00    +0.050 A 
ATOM      9  C   UNL     1      24.958   0.708  52.185  0.00  0.00    +0.260 A 
ATOM     10  O   UNL     1      25.668   1.374  51.381  0.00  0.00    -0.267 OA
ATOM     11  N   UNL     1      23.589   0.677  52.045  0.00  0.00    -0.295 N 
ATOM     12  C   UNL     1      22.941   1.447  50.968  0.00  0.00    +0.017 C 
ATOM     13  C   UNL     1      22.817  -0.012  52.948  0.00  0.00    +0.148 A 
ATOM     14  N   UNL     1      21.458  -0.011  52.848  0.00  0.00    -0.196 NA
ATOM     15  H   UNL     1      18.706  -1.175  54.249  0.00  0.00    +0.000 HD
ENDROOT
BRANCH   8  16
ATOM     16  C   UNL     1      27.058   0.010  53.383  0.00  0.00    +0.024 A 
ATOM     17  C   UNL     1      27.820  -1.136  53.068  0.00  0.00    +0.050 A 
ATOM     18 CL   UNL     1      27.064  -2.605  52.456  0.00  0.00    -0.083 Cl
ATOM     19  C   UNL     1      29.210  -1.114  53.220  0.00  0.00    -0.043 A 
ATOM     20  C   UNL     1      29.850   0.038  53.680  0.00  0.00    -0.059 A 
ATOM     21  C   UNL     1      29.104   1.176  53.992  0.00  0.00    -0.043 A 
ATOM     22  C   UNL     1      27.712   1.170  53.846  0.00  0.00    +0.050 A 
ATOM     23 CL   UNL     1      26.816   2.625  54.272  0.00  0.00    -0.083 Cl
ENDBRANCH   8  16
TORSDOF 1
ENDMDL
MODEL 3
REMARK VINA RESULT:    -8.471      1.617      2.757
REMARK INTER + INTRA:          -9.283
REMARK INTER:                  -9.012
REMARK INTRA:                  -0.271
REMARK UNBOUND:                -0.317
REMARK  Name = 
REMARK  3 active torsions:
REMARK  status: ('A' for Active; 'I' for Inactive)
REMARK    1  A    between atoms: C_1  and  N_2
REMARK    2  A    between atoms: C_8  and  C_9
REMARK    3  A    between atoms: N_19  and  C_20
REMARK                            x       y       z     vdW  Elec       q    Type
REMARK                         _______ _______ _______ _____ _____    ______ ____
ROOT
ATOM      1  C   UNL     1      19.025   1.659  51.751  0.00  0.00    +0.000 C 
ATOM      2  N   UNL     1      20.087   2.223  50.926  0.00  0.00    -0.316 N 
ATOM      3  C   UNL     1      21.468   1.948  51.177  0.00  0.00    +0.217 A 
ATOM      4  N   UNL     1      22.421   2.498  50.380  0.00  0.00    -0.222 NA
ATOM      5  C   UNL     1      23.739   2.255  50.591  0.00  0.00    +0.042 A 
ATOM      6  C   UNL     1      24.135   1.427  51.646  0.00  0.00    +0.037 A 
ATOM      7  C   UNL     1      25.477   1.140  51.886  0.00  0.00    -0.037 A 
ATOM      8  C   UNL     1      25.826   0.288  52.936  0.00  0.00    +0.050 A 
ATOM      9  C   UNL     1      24.815  -0.260  53.747  0.00  0.00    +0.260 A 
ATOM     10  O   UNL     1      25.138  -1.039  54.687  0.00  0.00    -0.267 OA
ATOM     11  N   UNL     1      23.493   0.051  53.523  0.00  0.00    -0.295 N 
ATOM     12  C   UNL     1      22.441  -0.548  54.364  0.00  0.00    +0.017 C 
ATOM     13  C   UNL     1      23.143   0.864  52.472  0.00  0.00    +0.148 A 
ATOM     14  N   UNL     1      21.835   1.141  52.210  0.00  0.00    -0.196 NA
ATOM     15  H   UNL     1      19.845   2.809  50.173  0.00  0.00    +0.000 HD
ENDROOT
BRANCH   8  16
ATOM     16  C   UNL     1      27.253  -0.028  53.171  0.00  0.00    +0.024 A 
ATOM     17  C   UNL     1      28.121   0.949  53.703  0.00  0.00    +0.050 A 
ATOM     18 CL   UNL     1      27.546   2.558  54.129  0.00  0.00    -0.083 Cl
ATOM     19  C   UNL     1      29.468   0.641  53.923  0.00  0.00    -0.043 A 
ATOM     20  C   UNL     1      29.959  -0.629  53.619  0.00  0.00    -0.059 A 
ATOM     21  C   UNL     1      29.107  -1.602  53.094  0.00  0.00    -0.043 A 
ATOM     22  C   UNL     1      27.757  -1.310  52.868  0.00  0.00    +0.050 A 
ATOM     23 CL   UNL     1      26.728  -2.567  52.186  0.00  0.00    -0.083 Cl
ENDBRANCH   8  16
TORSDOF 1
ENDMDL
MODEL 4
REMARK VINA RESULT:    -8.089      1.500      3.155
REMARK INTER + INTRA:          -8.879
REMARK INTER:                  -8.546
REMARK INTRA:                  -0.333
REMARK UNBOUND:                -0.317
REMARK  Name = 
REMARK  3 active torsions:
REMARK  status: ('A' for Active; 'I' for Inactive)
REMARK    1  A    between atoms: C_1  and  N_2
REMARK    2  A    between atoms: C_8  and  C_9
REMARK    3  A    between atoms: N_19  and  C_20
REMARK                            x       y       z     vdW  Elec       q    Type
REMARK                         _______ _______ _______ _____ _____    ______ ____
ROOT
ATOM      1  C   UNL     1      17.898  -1.023  52.799  0.00  0.00    +0.000 C 
ATOM      2  N   UNL     1      18.601  -0.217  51.809  0.00  0.00    -0.316 N 
ATOM      3  C   UNL     1      20.006   0.038  51.899  0.00  0.00    +0.217 A 
ATOM      4  N   UNL     1      20.616   0.798  50.952  0.00  0.00    -0.222 NA
ATOM      5  C   UNL     1      21.947   1.056  51.009  0.00  0.00    +0.042 A 
ATOM      6  C   UNL     1      22.714   0.537  52.056  0.00  0.00    +0.037 A 
ATOM      7  C   UNL     1      24.085   0.766  52.142  0.00  0.00    -0.037 A 
ATOM      8  C   UNL     1      24.817   0.209  53.192  0.00  0.00    +0.050 A 
ATOM      9  C   UNL     1      24.154  -0.568  54.161  0.00  0.00    +0.260 A 
ATOM     10  O   UNL     1      24.824  -1.079  55.101  0.00  0.00    -0.267 OA
ATOM     11  N   UNL     1      22.794  -0.766  54.087  0.00  0.00    -0.295 N 
ATOM     12  C   UNL     1      22.114  -1.601  55.094  0.00  0.00    +0.017 C 
ATOM     13  C   UNL     1      22.075  -0.245  53.038  0.00  0.00    +0.148 A 
ATOM     14  N   UNL     1      20.737  -0.473  52.928  0.00  0.00    -0.196 NA
ATOM     15  H   UNL     1      18.094   0.164  51.057  0.00  0.00    +0.000 HD
ENDROOT
BRANCH   8  16
ATOM     16  C   UNL     1      26.277   0.439  53.263  0.00  0.00    +0.024 A 
ATOM     17  C   UNL     1      27.179  -0.601  52.950  0.00  0.00    +0.050 A 
ATOM     18 CL   UNL     1      26.611  -2.189  52.442  0.00  0.00    -0.083 Cl
ATOM     19  C   UNL     1      28.558  -0.374  53.018  0.00  0.00    -0.043 A 
ATOM     20  C   UNL     1      29.048   0.877  53.394  0.00  0.00    -0.059 A 
ATOM     21  C   UNL     1      28.163   1.911  53.704  0.00  0.00    -0.043 A 
ATOM     22  C   UNL     1      26.781   1.701  53.640  0.00  0.00    +0.050 A 
ATOM     23 CL   UNL     1      25.708   3.033  54.060  0.00  0.00    -0.083 Cl
ENDBRANCH   8  16
TORSDOF 1
ENDMDL
MODEL 5
REMARK VINA RESULT:    -7.969      5.331      8.079
REMARK INTER + INTRA:          -8.752
REMARK INTER:                  -8.144
REMARK INTRA:                  -0.608
REMARK UNBOUND:                -0.317
REMARK  Name = 
REMARK  3 active torsions:
REMARK  status: ('A' for Active; 'I' for Inactive)
REMARK    1  A    between atoms: C_1  and  N_2
REMARK    2  A    between atoms: C_8  and  C_9
REMARK    3  A    between atoms: N_19  and  C_20
REMARK                            x       y       z     vdW  Elec       q    Type
REMARK                         _______ _______ _______ _____ _____    ______ ____
ROOT
ATOM      1  C   UNL     1      27.761   9.411  48.496  0.00  0.00    +0.000 C 
ATOM      2  N   UNL     1      28.218   8.059  48.199  0.00  0.00    -0.316 N 
ATOM      3  C   UNL     1      27.521   6.903  48.674  0.00  0.00    +0.217 A 
ATOM      4  N   UNL     1      27.987   5.663  48.371  0.00  0.00    -0.222 NA
ATOM      5  C   UNL     1      27.348   4.547  48.805  0.00  0.00    +0.042 A 
ATOM      6  C   UNL     1      26.189   4.664  49.578  0.00  0.00    +0.037 A 
ATOM      7  C   UNL     1      25.495   3.544  50.029  0.00  0.00    -0.037 A 
ATOM      8  C   UNL     1      24.328   3.706  50.779  0.00  0.00    +0.050 A 
ATOM      9  C   UNL     1      23.875   5.005  51.081  0.00  0.00    +0.260 A 
ATOM     10  O   UNL     1      22.813   5.145  51.749  0.00  0.00    -0.267 OA
ATOM     11  N   UNL     1      24.582   6.108  50.657  0.00  0.00    -0.295 N 
ATOM     12  C   UNL     1      24.086   7.462  50.959  0.00  0.00    +0.017 C 
ATOM     13  C   UNL     1      25.713   5.952  49.893  0.00  0.00    +0.148 A 
ATOM     14  N   UNL     1      26.395   7.036  49.427  0.00  0.00    -0.196 NA
ATOM     15  H   UNL     1      29.030   7.938  47.656  0.00  0.00    +0.000 HD
ENDROOT
BRANCH   8  16
ATOM     16  C   UNL     1      23.585   2.511  51.236  0.00  0.00    +0.024 A 
ATOM     17  C   UNL     1      22.623   1.906  50.398  0.00  0.00    +0.050 A 
ATOM     18 CL   UNL     1      22.288   2.526  48.784  0.00  0.00    -0.083 Cl
ATOM     19  C   UNL     1      21.926   0.776  50.838  0.00  0.00    -0.043 A 
ATOM     20  C   UNL     1      22.178   0.241  52.101  0.00  0.00    -0.059 A 
ATOM     21  C   UNL     1      23.128   0.831  52.935  0.00  0.00    -0.043 A 
ATOM     22  C   UNL     1      23.834   1.962  52.510  0.00  0.00    +0.050 A 
ATOM     23 CL   UNL     1      25.010   2.680  53.609  0.00  0.00    -0.083 Cl
ENDBRANCH   8  16
TORSDOF 1
ENDMDL
MODEL 6
REMARK VINA RESULT:    -7.927      2.662      4.677
REMARK INTER + INTRA:          -8.707
REMARK INTER:                  -8.647
REMARK INTRA:                  -0.060
REMARK UNBOUND:                -0.317
REMARK  Name = 
REMARK  3 active torsions:
REMARK  status: ('A' for Active; 'I' for Inactive)
REMARK    1  A    between atoms: C_1  and  N_2
REMARK    2  A    between atoms: C_8  and  C_9
REMARK    3  A    between atoms: N_19  and  C_20
REMARK                            x       y       z     vdW  Elec       q    Type
REMARK                         _______ _______ _______ _____ _____    ______ ____
ROOT
ATOM      1  C   UNL     1      21.295   4.776  49.448  0.00  0.00    +0.000 C 
ATOM      2  N   UNL     1      22.656   4.847  48.929  0.00  0.00    -0.316 N 
ATOM      3  C   UNL     1      23.730   4.106  49.516  0.00  0.00    +0.217 A 
ATOM      4  N   UNL     1      24.982   4.207  48.996  0.00  0.00    -0.222 NA
ATOM      5  C   UNL     1      26.021   3.515  49.529  0.00  0.00    +0.042 A 
ATOM      6  C   UNL     1      25.811   2.683  50.633  0.00  0.00    +0.037 A 
ATOM      7  C   UNL     1      26.848   1.945  51.199  0.00  0.00    -0.037 A 
ATOM      8  C   UNL     1      26.589   1.107  52.285  0.00  0.00    +0.050 A 
ATOM      9  C   UNL     1      25.283   1.030  52.804  0.00  0.00    +0.260 A 
ATOM     10  O   UNL     1      25.053   0.261  53.779  0.00  0.00    -0.267 OA
ATOM     11  N   UNL     1      24.269   1.785  52.259  0.00  0.00    -0.295 N 
ATOM     12  C   UNL     1      22.900   1.679  52.794  0.00  0.00    +0.017 C 
ATOM     13  C   UNL     1      24.512   2.587  51.170  0.00  0.00    +0.148 A 
ATOM     14  N   UNL     1      23.508   3.302  50.591  0.00  0.00    -0.196 NA
ATOM     15  H   UNL     1      22.840   5.422  48.151  0.00  0.00    +0.000 HD
ENDROOT
BRANCH   8  16
ATOM     16  C   UNL     1      27.692   0.309  52.867  0.00  0.00    +0.024 A 
ATOM     17  C   UNL     1      27.691  -1.097  52.754  0.00  0.00    +0.050 A 
ATOM     18 CL   UNL     1      26.407  -1.951  51.904  0.00  0.00    -0.083 Cl
ATOM     19  C   UNL     1      28.738  -1.843  53.306  0.00  0.00    -0.043 A 
ATOM     20  C   UNL     1      29.786  -1.202  53.968  0.00  0.00    -0.059 A 
ATOM     21  C   UNL     1      29.796   0.188  54.083  0.00  0.00    -0.043 A 
ATOM     22  C   UNL     1      28.756   0.949  53.536  0.00  0.00    +0.050 A 
ATOM     23 CL   UNL     1      28.806   2.699  53.726  0.00  0.00    -0.083 Cl
ENDBRANCH   8  16
TORSDOF 1
ENDMDL
MODEL 7
REMARK VINA RESULT:    -7.649      3.219      6.797
REMARK INTER + INTRA:          -8.413
REMARK INTER:                  -7.923
REMARK INTRA:                  -0.490
REMARK UNBOUND:                -0.317
REMARK  Name = 
REMARK  3 active torsions:
REMARK  status: ('A' for Active; 'I' for Inactive)
REMARK    1  A    between atoms: C_1  and  N_2
REMARK    2  A    between atoms: C_8  and  C_9
REMARK    3  A    between atoms: N_19  and  C_20
REMARK                            x       y       z     vdW  Elec       q    Type
REMARK                         _______ _______ _______ _____ _____    ______ ____
ROOT
ATOM      1  C   UNL     1      29.101   2.311  54.022  0.00  0.00    +0.000 C 
ATOM      2  N   UNL     1      28.645   0.938  53.843  0.00  0.00    -0.316 N 
ATOM      3  C   UNL     1      27.283   0.626  53.537  0.00  0.00    +0.217 A 
ATOM      4  N   UNL     1      26.906  -0.670  53.381  0.00  0.00    -0.222 NA
ATOM      5  C   UNL     1      25.622  -0.998  53.089  0.00  0.00    +0.042 A 
ATOM      6  C   UNL     1      24.662   0.008  52.945  0.00  0.00    +0.037 A 
ATOM      7  C   UNL     1      23.337  -0.287  52.631  0.00  0.00    -0.037 A 
ATOM      8  C   UNL     1      22.415   0.750  52.472  0.00  0.00    +0.050 A 
ATOM      9  C   UNL     1      22.836   2.082  52.648  0.00  0.00    +0.260 A 
ATOM     10  O   UNL     1      22.000   3.016  52.491  0.00  0.00    -0.267 OA
ATOM     11  N   UNL     1      24.140   2.364  52.988  0.00  0.00    -0.295 N 
ATOM     12  C   UNL     1      24.575   3.764  53.145  0.00  0.00    +0.017 C 
ATOM     13  C   UNL     1      25.057   1.349  53.114  0.00  0.00    +0.148 A 
ATOM     14  N   UNL     1      26.361   1.618  53.403  0.00  0.00    -0.196 NA
ATOM     15  H   UNL     1      29.295   0.204  53.935  0.00  0.00    +0.000 HD
ENDROOT
BRANCH   8  16
ATOM     16  C   UNL     1      21.015   0.430  52.117  0.00  0.00    +0.024 A 
ATOM     17  C   UNL     1      20.566   0.577  50.787  0.00  0.00    +0.050 A 
ATOM     18 CL   UNL     1      21.647   1.115  49.504  0.00  0.00    -0.083 Cl
ATOM     19  C   UNL     1      19.241   0.271  50.459  0.00  0.00    -0.043 A 
ATOM     20  C   UNL     1      18.359  -0.181  51.441  0.00  0.00    -0.059 A 
ATOM     21  C   UNL     1      18.795  -0.330  52.759  0.00  0.00    -0.043 A 
ATOM     22  C   UNL     1      20.117  -0.028  53.103  0.00  0.00    +0.050 A 
ATOM     23 CL   UNL     1      20.612  -0.215  54.783  0.00  0.00    -0.083 Cl
ENDBRANCH   8  16
TORSDOF 1
ENDMDL
MODEL 8
REMARK VINA RESULT:    -7.539      3.309      6.667
REMARK INTER + INTRA:          -8.297
REMARK INTER:                  -7.683
REMARK INTRA:                  -0.614
REMARK UNBOUND:                -0.317
REMARK  Name = 
REMARK  3 active torsions:
REMARK  status: ('A' for Active; 'I' for Inactive)
REMARK    1  A    between atoms: C_1  and  N_2
REMARK    2  A    between atoms: C_8  and  C_9
REMARK    3  A    between atoms: N_19  and  C_20
REMARK                            x       y       z     vdW  Elec       q    Type
REMARK                         _______ _______ _______ _____ _____    ______ ____
ROOT
ATOM      1  C   UNL     1      28.840  -0.361  53.618  0.00  0.00    +0.000 C 
ATOM      2  N   UNL     1      27.536  -0.810  54.090  0.00  0.00    -0.316 N 
ATOM      3  C   UNL     1      26.316  -0.252  53.590  0.00  0.00    +0.217 A 
ATOM      4  N   UNL     1      25.125  -0.704  54.063  0.00  0.00    -0.222 NA
ATOM      5  C   UNL     1      23.951  -0.197  53.608  0.00  0.00    +0.042 A 
ATOM      6  C   UNL     1      23.957   0.809  52.637  0.00  0.00    +0.037 A 
ATOM      7  C   UNL     1      22.774   1.345  52.133  0.00  0.00    -0.037 A 
ATOM      8  C   UNL     1      22.825   2.331  51.146  0.00  0.00    +0.050 A 
ATOM      9  C   UNL     1      24.076   2.782  50.682  0.00  0.00    +0.260 A 
ATOM     10  O   UNL     1      24.114   3.665  49.781  0.00  0.00    -0.267 OA
ATOM     11  N   UNL     1      25.241   2.270  51.206  0.00  0.00    -0.295 N 
ATOM     12  C   UNL     1      26.545   2.732  50.696  0.00  0.00    +0.017 C 
ATOM     13  C   UNL     1      25.195   1.277  52.155  0.00  0.00    +0.148 A 
ATOM     14  N   UNL     1      26.341   0.728  52.646  0.00  0.00    -0.196 NA
ATOM     15  H   UNL     1      27.493  -1.518  54.772  0.00  0.00    +0.000 HD
ENDROOT
BRANCH   8  16
ATOM     16  C   UNL     1      21.563   2.879  50.600  0.00  0.00    +0.024 A 
ATOM     17  C   UNL     1      20.985   4.036  51.165  0.00  0.00    +0.050 A 
ATOM     18 CL   UNL     1      21.745   4.881  52.511  0.00  0.00    -0.083 Cl
ATOM     19  C   UNL     1      19.792   4.548  50.643  0.00  0.00    -0.043 A 
ATOM     20  C   UNL     1      19.170   3.920  49.563  0.00  0.00    -0.059 A 
ATOM     21  C   UNL     1      19.736   2.777  48.997  0.00  0.00    -0.043 A 
ATOM     22  C   UNL     1      20.928   2.252  49.508  0.00  0.00    +0.050 A 
ATOM     23 CL   UNL     1      21.590   0.796  48.770  0.00  0.00    -0.083 Cl
ENDBRANCH   8  16
TORSDOF 1
ENDMDL
MODEL 9
REMARK VINA RESULT:    -7.391      3.670      5.178
REMARK INTER + INTRA:          -8.141
REMARK INTER:                  -7.534
REMARK INTRA:                  -0.606
REMARK UNBOUND:                -0.317
REMARK  Name = 
REMARK  3 active torsions:
REMARK  status: ('A' for Active; 'I' for Inactive)
REMARK    1  A    between atoms: C_1  and  N_2
REMARK    2  A    between atoms: C_8  and  C_9
REMARK    3  A    between atoms: N_19  and  C_20
REMARK                            x       y       z     vdW  Elec       q    Type
REMARK                         _______ _______ _______ _____ _____    ______ ____
ROOT
ATOM      1  C   UNL     1      18.810   6.128  48.220  0.00  0.00    +0.000 C 
ATOM      2  N   UNL     1      19.100   4.774  47.765  0.00  0.00    -0.316 N 
ATOM      3  C   UNL     1      20.065   3.945  48.420  0.00  0.00    +0.217 A 
ATOM      4  N   UNL     1      20.300   2.689  47.957  0.00  0.00    -0.222 NA
ATOM      5  C   UNL     1      21.207   1.878  48.558  0.00  0.00    +0.042 A 
ATOM      6  C   UNL     1      21.917   2.332  49.673  0.00  0.00    +0.037 A 
ATOM      7  C   UNL     1      22.845   1.524  50.327  0.00  0.00    -0.037 A 
ATOM      8  C   UNL     1      23.514   2.010  51.452  0.00  0.00    +0.050 A 
ATOM      9  C   UNL     1      23.252   3.317  51.903  0.00  0.00    +0.260 A 
ATOM     10  O   UNL     1      23.853   3.745  52.928  0.00  0.00    -0.267 OA
ATOM     11  N   UNL     1      22.357   4.121  51.234  0.00  0.00    -0.295 N 
ATOM     12  C   UNL     1      22.072   5.479  51.729  0.00  0.00    +0.017 C 
ATOM     13  C   UNL     1      21.673   3.636  50.146  0.00  0.00    +0.148 A 
ATOM     14  N   UNL     1      20.748   4.404  49.504  0.00  0.00    -0.196 NA
ATOM     15  H   UNL     1      18.618   4.420  46.983  0.00  0.00    +0.000 HD
ENDROOT
BRANCH   8  16
ATOM     16  C   UNL     1      24.482   1.137  52.154  0.00  0.00    +0.024 A 
ATOM     17  C   UNL     1      24.042   0.243  53.154  0.00  0.00    +0.050 A 
ATOM     18 CL   UNL     1      22.339   0.111  53.584  0.00  0.00    -0.083 Cl
ATOM     19  C   UNL     1      24.963  -0.579  53.812  0.00  0.00    -0.043 A 
ATOM     20  C   UNL     1      26.318  -0.520  53.484  0.00  0.00    -0.059 A 
ATOM     21  C   UNL     1      26.763   0.360  52.496  0.00  0.00    -0.043 A 
ATOM     22  C   UNL     1      25.853   1.189  51.828  0.00  0.00    +0.050 A 
ATOM     23 CL   UNL     1      26.468   2.295  50.603  0.00  0.00    -0.083 Cl
ENDBRANCH   8  16
TORSDOF 1
ENDMDL
