MODEL 1
REMARK VINA RESULT:    -8.181      0.000      0.000
REMARK INTER + INTRA:         -16.510
REMARK INTER:                 -14.398
REMARK INTRA:                  -2.113
REMARK UNBOUND:                -2.113
REMARK  Name = 
REMARK  14 active torsions:
REMARK  status: ('A' for Active; 'I' for Inactive)
REMARK    1  A    between atoms: C_1  and  S_2
REMARK    2  A    between atoms: S_2  and  C_5
REMARK    3  A    between atoms: C_5  and  C_6
REMARK    4  A    between atoms: C_6  and  N_7
REMARK    5  A    between atoms: N_7  and  C_8
REMARK    6  A    between atoms: C_8  and  C_9
REMARK    7  A    between atoms: C_9  and  C_10
REMARK    8  A    between atoms: C_10  and  C_11
REMARK    9  A    between atoms: C_11  and  O_12
REMARK   10  A    between atoms: O_12  and  C_13
REMARK   11  A    between atoms: N_21  and  C_22
REMARK   12  A    between atoms: C_25  and  O_26
REMARK   13  A    between atoms: O_26  and  C_27
REMARK   14  A    between atoms: C_27  and  C_28
REMARK                            x       y       z     vdW  Elec       q    Type
REMARK                         _______ _______ _______ _____ _____    ______ ____
ROOT
ATOM      1  C   UNL     1      25.588   0.861  52.084  0.00  0.00    +0.121 A 
ATOM      2  C   UNL     1      26.097  -0.084  52.980  0.00  0.00    -0.018 A 
ATOM      3  C   UNL     1      25.258  -0.718  53.896  0.00  0.00    -0.032 A 
ATOM      4  C   UNL     1      23.896  -0.407  53.934  0.00  0.00    +0.076 A 
ATOM      5  N   UNL     1      23.085  -1.044  54.815  0.00  0.00    -0.235 NA
ATOM      6  C   UNL     1      21.759  -0.767  54.871  0.00  0.00    +0.119 A 
ATOM      7  N   UNL     1      21.223   0.167  54.047  0.00  0.00    -0.220 NA
ATOM      8  C   UNL     1      21.980   0.840  53.137  0.00  0.00    +0.134 A 
ATOM      9  N   UNL     1      21.364   1.856  52.327  0.00  0.00    -0.299 N 
ATOM     10  C   UNL     1      23.363   0.561  53.053  0.00  0.00    +0.044 A 
ATOM     11  C   UNL     1      24.216   1.181  52.117  0.00  0.00    -0.007 A 
ATOM     12  H   UNL     1      21.912   2.624  52.045  0.00  0.00    +0.000 HD
ENDROOT
BRANCH   9  13
ATOM     13  C   UNL     1      19.989   1.805  51.905  0.00  0.00    +0.034 A 
ATOM     14  C   UNL     1      19.417   0.574  51.559  0.00  0.00    -0.037 A 
ATOM     15  C   UNL     1      18.083   0.499  51.150  0.00  0.00    -0.017 A 
ATOM     16  C   UNL     1      17.293   1.662  51.085  0.00  0.00    +0.139 A 
ATOM     17  C   UNL     1      17.856   2.891  51.462  0.00  0.00    +0.084 A 
ATOM     18 CL   UNL     1      16.892   4.358  51.430  0.00  0.00    -0.080 Cl
ATOM     19  C   UNL     1      19.191   2.961  51.876  0.00  0.00    -0.019 A 
BRANCH  16  20
ATOM     20  O   UNL     1      15.953   1.641  50.658  0.00  0.00    -0.486 OA
BRANCH  20  21
ATOM     21  C   UNL     1      14.835   1.267  51.464  0.00  0.00    +0.115 C 
BRANCH  21  22
ATOM     22  C   UNL     1      14.023   2.474  51.860  0.00  0.00    -0.008 A 
ATOM     23  C   UNL     1      13.304   3.194  50.892  0.00  0.00    -0.055 A 
ATOM     24  C   UNL     1      12.574   4.330  51.256  0.00  0.00    -0.059 A 
ATOM     25  C   UNL     1      12.569   4.763  52.585  0.00  0.00    -0.026 A 
ATOM     26  C   UNL     1      13.292   4.061  53.553  0.00  0.00    +0.124 A 
ATOM     27  F   UNL     1      13.297   4.487  54.839  0.00  0.00    -0.205 F 
ATOM     28  C   UNL     1      14.023   2.924  53.192  0.00  0.00    -0.020 A 
ENDBRANCH  21  22
ENDBRANCH  20  21
ENDBRANCH  16  20
ENDBRANCH   9  13
BRANCH   1  29
ATOM     29  O   UNL     1      26.479   1.454  51.177  0.00  0.00    -0.492 OA
BRANCH  29  30
ATOM     30  C   UNL     1      26.655   2.859  51.010  0.00  0.00    +0.090 C 
BRANCH  30  31
ATOM     31  C   UNL     1      26.173   3.283  49.623  0.00  0.00    -0.017 C 
BRANCH  31  32
ATOM     32  C   UNL     1      26.971   4.480  49.087  0.00  0.00    -0.037 C 
BRANCH  32  33
ATOM     33  C   UNL     1      26.083   5.720  48.951  0.00  0.00    -0.004 C 
BRANCH  33  34
ATOM     34  N   UNL     1      26.208   6.561  50.150  0.00  0.00    -0.314 N 
ATOM     35  H   UNL     1      26.695   6.036  50.875  0.00  0.00    +0.000 HD
ATOM     36  H   UNL     1      26.730   7.401  49.899  0.00  0.00    +0.000 HD
BRANCH  34  37
ATOM     37  C   UNL     1      24.890   6.971  50.658  0.00  0.00    +0.015 C 
BRANCH  37  38
ATOM     38  C   UNL     1      24.353   5.939  51.654  0.00  0.00    +0.078 C 
BRANCH  38  40
ATOM     39  C   UNL     1      22.610   4.442  49.835  0.00  0.00    +0.054 C 
ATOM     40  S   UNL     1      22.665   5.490  51.274  0.00  0.00    -0.033 S 
ATOM     41  O   UNL     1      22.053   4.765  52.441  0.00  0.00    -0.175 OA
ATOM     42  O   UNL     1      21.874   6.739  51.004  0.00  0.00    -0.175 OA
ENDBRANCH  38  40
ENDBRANCH  37  38
ENDBRANCH  34  37
ENDBRANCH  33  34
ENDBRANCH  32  33
ENDBRANCH  31  32
ENDBRANCH  30  31
ENDBRANCH  29  30
ENDBRANCH   1  29
TORSDOF 13
ENDMDL
MODEL 2
REMARK VINA RESULT:    -8.175      4.523      9.792
REMARK INTER + INTRA:         -16.501
REMARK INTER:                 -14.111
REMARK INTRA:                  -2.390
REMARK UNBOUND:                -2.113
REMARK  Name = 
REMARK  14 active torsions:
REMARK  status: ('A' for Active; 'I' for Inactive)
REMARK    1  A    between atoms: C_1  and  S_2
REMARK    2  A    between atoms: S_2  and  C_5
REMARK    3  A    between atoms: C_5  and  C_6
REMARK    4  A    between atoms: C_6  and  N_7
REMARK    5  A    between atoms: N_7  and  C_8
REMARK    6  A    between atoms: C_8  and  C_9
REMARK    7  A    between atoms: C_9  and  C_10
REMARK    8  A    between atoms: C_10  and  C_11
REMARK    9  A    between atoms: C_11  and  O_12
REMARK   10  A    between atoms: O_12  and  C_13
REMARK   11  A    between atoms: N_21  and  C_22
REMARK   12  A    between atoms: C_25  and  O_26
REMARK   13  A    between atoms: O_26  and  C_27
REMARK   14  A    between atoms: C_27  and  C_28
REMARK                            x       y       z     vdW  Elec       q    Type
REMARK                         _______ _______ _______ _____ _____    ______ ____
ROOT
ATOM      1  C   UNL     1      21.072  -0.132  53.704  0.00  0.00    +0.121 A 
ATOM      2  C   UNL     1      21.642  -1.003  54.637  0.00  0.00    -0.018 A 
ATOM      3  C   UNL     1      23.028  -1.120  54.747  0.00  0.00    -0.032 A 
ATOM      4  C   UNL     1      23.864  -0.371  53.915  0.00  0.00    +0.076 A 
ATOM      5  N   UNL     1      25.210  -0.477  54.044  0.00  0.00    -0.235 NA
ATOM      6  C   UNL     1      26.047   0.242  53.255  0.00  0.00    +0.119 A 
ATOM      7  N   UNL     1      25.544   1.074  52.310  0.00  0.00    -0.220 NA
ATOM      8  C   UNL     1      24.203   1.230  52.132  0.00  0.00    +0.134 A 
ATOM      9  N   UNL     1      23.731   2.089  51.079  0.00  0.00    -0.299 N 
ATOM     10  C   UNL     1      23.311   0.500  52.949  0.00  0.00    +0.044 A 
ATOM     11  C   UNL     1      21.910   0.626  52.861  0.00  0.00    -0.007 A 
ATOM     12  H   UNL     1      22.877   1.866  50.642  0.00  0.00    +0.000 HD
ENDROOT
BRANCH   9  13
ATOM     13  C   UNL     1      24.442   3.258  50.634  0.00  0.00    +0.034 A 
ATOM     14  C   UNL     1      25.535   3.115  49.768  0.00  0.00    -0.037 A 
ATOM     15  C   UNL     1      26.239   4.235  49.319  0.00  0.00    -0.017 A 
ATOM     16  C   UNL     1      25.856   5.527  49.729  0.00  0.00    +0.139 A 
ATOM     17  C   UNL     1      24.742   5.672  50.570  0.00  0.00    +0.084 A 
ATOM     18 CL   UNL     1      24.211   7.269  51.071  0.00  0.00    -0.080 Cl
ATOM     19  C   UNL     1      24.037   4.548  51.012  0.00  0.00    -0.019 A 
BRANCH  16  20
ATOM     20  O   UNL     1      26.546   6.682  49.322  0.00  0.00    -0.486 OA
BRANCH  20  21
ATOM     21  C   UNL     1      27.221   6.846  48.074  0.00  0.00    +0.115 C 
BRANCH  21  22
ATOM     22  C   UNL     1      28.716   6.848  48.262  0.00  0.00    -0.008 A 
ATOM     23  C   UNL     1      29.455   5.667  48.082  0.00  0.00    -0.055 A 
ATOM     24  C   UNL     1      30.839   5.664  48.283  0.00  0.00    -0.059 A 
ATOM     25  C   UNL     1      31.492   6.835  48.679  0.00  0.00    -0.026 A 
ATOM     26  C   UNL     1      30.763   8.011  48.873  0.00  0.00    +0.124 A 
ATOM     27  F   UNL     1      31.394   9.144  49.268  0.00  0.00    -0.205 F 
ATOM     28  C   UNL     1      29.379   8.019  48.672  0.00  0.00    -0.020 A 
ENDBRANCH  21  22
ENDBRANCH  20  21
ENDBRANCH  16  20
ENDBRANCH   9  13
BRANCH   1  29
ATOM     29  O   UNL     1      19.673  -0.048  53.651  0.00  0.00    -0.492 OA
BRANCH  29  30
ATOM     30  C   UNL     1      18.808  -1.113  53.263  0.00  0.00    +0.090 C 
BRANCH  30  31
ATOM     31  C   UNL     1      17.854  -0.637  52.167  0.00  0.00    -0.017 C 
BRANCH  31  32
ATOM     32  C   UNL     1      18.606   0.062  51.026  0.00  0.00    -0.037 C 
BRANCH  32  33
ATOM     33  C   UNL     1      17.780   1.211  50.443  0.00  0.00    -0.004 C 
BRANCH  33  34
ATOM     34  N   UNL     1      18.279   1.559  49.105  0.00  0.00    -0.314 N 
ATOM     35  H   UNL     1      19.246   1.248  49.020  0.00  0.00    +0.000 HD
ATOM     36  H   UNL     1      17.688   1.099  48.412  0.00  0.00    +0.000 HD
BRANCH  34  37
ATOM     37  C   UNL     1      18.221   3.010  48.870  0.00  0.00    +0.015 C 
BRANCH  37  38
ATOM     38  C   UNL     1      18.511   3.777  50.164  0.00  0.00    +0.078 C 
BRANCH  38  40
ATOM     39  C   UNL     1      20.629   3.799  52.190  0.00  0.00    +0.054 C 
ATOM     40  S   UNL     1      20.269   3.926  50.449  0.00  0.00    -0.033 S 
ATOM     41  O   UNL     1      21.001   2.840  49.710  0.00  0.00    -0.175 OA
ATOM     42  O   UNL     1      20.736   5.262  49.946  0.00  0.00    -0.175 OA
ENDBRANCH  38  40
ENDBRANCH  37  38
ENDBRANCH  34  37
ENDBRANCH  33  34
ENDBRANCH  32  33
ENDBRANCH  31  32
ENDBRANCH  30  31
ENDBRANCH  29  30
ENDBRANCH   1  29
TORSDOF 13
ENDMDL
MODEL 3
REMARK VINA RESULT:    -7.947      4.868     10.310
REMARK INTER + INTRA:         -16.100
REMARK INTER:                 -13.613
REMARK INTRA:                  -2.487
REMARK UNBOUND:                -2.113
REMARK  Name = 
REMARK  14 active torsions:
REMARK  status: ('A' for Active; 'I' for Inactive)
REMARK    1  A    between atoms: C_1  and  S_2
REMARK    2  A    between atoms: S_2  and  C_5
REMARK    3  A    between atoms: C_5  and  C_6
REMARK    4  A    between atoms: C_6  and  N_7
REMARK    5  A    between atoms: N_7  and  C_8
REMARK    6  A    between atoms: C_8  and  C_9
REMARK    7  A    between atoms: C_9  and  C_10
REMARK    8  A    between atoms: C_10  and  C_11
REMARK    9  A    between atoms: C_11  and  O_12
REMARK   10  A    between atoms: O_12  and  C_13
REMARK   11  A    between atoms: N_21  and  C_22
REMARK   12  A    between atoms: C_25  and  O_26
REMARK   13  A    between atoms: O_26  and  C_27
REMARK   14  A    between atoms: C_27  and  C_28
REMARK                            x       y       z     vdW  Elec       q    Type
REMARK                         _______ _______ _______ _____ _____    ______ ____
ROOT
ATOM      1  C   UNL     1      22.678   0.234  52.645  0.00  0.00    +0.121 A 
ATOM      2  C   UNL     1      23.311  -0.508  53.647  0.00  0.00    -0.018 A 
ATOM      3  C   UNL     1      24.669  -0.333  53.910  0.00  0.00    -0.032 A 
ATOM      4  C   UNL     1      25.416   0.583  53.166  0.00  0.00    +0.076 A 
ATOM      5  N   UNL     1      26.733   0.761  53.443  0.00  0.00    -0.235 NA
ATOM      6  C   UNL     1      27.482   1.647  52.742  0.00  0.00    +0.119 A 
ATOM      7  N   UNL     1      26.923   2.365  51.737  0.00  0.00    -0.220 NA
ATOM      8  C   UNL     1      25.608   2.238  51.410  0.00  0.00    +0.134 A 
ATOM      9  N   UNL     1      25.085   2.991  50.301  0.00  0.00    -0.299 N 
ATOM     10  C   UNL     1      24.803   1.329  52.133  0.00  0.00    +0.044 A 
ATOM     11  C   UNL     1      23.426   1.159  51.890  0.00  0.00    -0.007 A 
ATOM     12  H   UNL     1      24.351   2.598  49.775  0.00  0.00    +0.000 HD
ENDROOT
BRANCH   9  13
ATOM     13  C   UNL     1      25.580   4.288  49.922  0.00  0.00    +0.034 A 
ATOM     14  C   UNL     1      26.701   4.382  49.086  0.00  0.00    -0.037 A 
ATOM     15  C   UNL     1      27.198   5.630  48.701  0.00  0.00    -0.017 A 
ATOM     16  C   UNL     1      26.575   6.812  49.146  0.00  0.00    +0.139 A 
ATOM     17  C   UNL     1      25.434   6.717  49.956  0.00  0.00    +0.084 A 
ATOM     18 CL   UNL     1      24.607   8.167  50.500  0.00  0.00    -0.080 Cl
ATOM     19  C   UNL     1      24.936   5.465  50.335  0.00  0.00    -0.019 A 
BRANCH  16  20
ATOM     20  O   UNL     1      27.051   8.090  48.804  0.00  0.00    -0.486 OA
BRANCH  20  21
ATOM     21  C   UNL     1      27.845   8.929  49.643  0.00  0.00    +0.115 C 
BRANCH  21  22
ATOM     22  C   UNL     1      29.222   9.130  49.063  0.00  0.00    -0.008 A 
ATOM     23  C   UNL     1      29.993   8.025  48.667  0.00  0.00    -0.055 A 
ATOM     24  C   UNL     1      31.281   8.211  48.156  0.00  0.00    -0.059 A 
ATOM     25  C   UNL     1      31.814   9.499  48.051  0.00  0.00    -0.026 A 
ATOM     26  C   UNL     1      31.059  10.603  48.455  0.00  0.00    +0.124 A 
ATOM     27  F   UNL     1      31.579  11.852  48.363  0.00  0.00    -0.205 F 
ATOM     28  C   UNL     1      29.770  10.421  48.966  0.00  0.00    -0.020 A 
ENDBRANCH  21  22
ENDBRANCH  20  21
ENDBRANCH  16  20
ENDBRANCH   9  13
BRANCH   1  29
ATOM     29  O   UNL     1      21.307   0.023  52.437  0.00  0.00    -0.492 OA
BRANCH  29  30
ATOM     30  C   UNL     1      20.318   0.022  53.464  0.00  0.00    +0.090 C 
BRANCH  30  31
ATOM     31  C   UNL     1      18.964  -0.389  52.884  0.00  0.00    -0.017 C 
BRANCH  31  32
ATOM     32  C   UNL     1      18.827   0.033  51.415  0.00  0.00    -0.037 C 
BRANCH  32  33
ATOM     33  C   UNL     1      18.425   1.506  51.298  0.00  0.00    -0.004 C 
BRANCH  33  34
ATOM     34  N   UNL     1      19.555   2.297  50.790  0.00  0.00    -0.314 N 
ATOM     35  H   UNL     1      19.202   3.175  50.413  0.00  0.00    +0.000 HD
ATOM     36  H   UNL     1      20.200   2.468  51.563  0.00  0.00    +0.000 HD
BRANCH  34  37
ATOM     37  C   UNL     1      20.282   1.579  49.733  0.00  0.00    +0.015 C 
BRANCH  37  38
ATOM     38  C   UNL     1      20.463   2.472  48.502  0.00  0.00    +0.078 C 
BRANCH  38  40
ATOM     39  C   UNL     1      20.791   5.384  48.501  0.00  0.00    +0.054 C 
ATOM     40  S   UNL     1      21.581   3.824  48.841  0.00  0.00    -0.033 S 
ATOM     41  O   UNL     1      22.008   3.786  50.282  0.00  0.00    -0.175 OA
ATOM     42  O   UNL     1      22.795   3.687  47.966  0.00  0.00    -0.175 OA
ENDBRANCH  38  40
ENDBRANCH  37  38
ENDBRANCH  34  37
ENDBRANCH  33  34
ENDBRANCH  32  33
ENDBRANCH  31  32
ENDBRANCH  30  31
ENDBRANCH  29  30
ENDBRANCH   1  29
TORSDOF 13
ENDMDL
MODEL 4
REMARK VINA RESULT:    -7.931      4.720     10.747
REMARK INTER + INTRA:         -16.070
REMARK INTER:                 -15.039
REMARK INTRA:                  -1.031
REMARK UNBOUND:                -2.113
REMARK  Name = 
REMARK  14 active torsions:
REMARK  status: ('A' for Active; 'I' for Inactive)
REMARK    1  A    between atoms: C_1  and  S_2
REMARK    2  A    between atoms: S_2  and  C_5
REMARK    3  A    between atoms: C_5  and  C_6
REMARK    4  A    between atoms: C_6  and  N_7
REMARK    5  A    between atoms: N_7  and  C_8
REMARK    6  A    between atoms: C_8  and  C_9
REMARK    7  A    between atoms: C_9  and  C_10
REMARK    8  A    between atoms: C_10  and  C_11
REMARK    9  A    between atoms: C_11  and  O_12
REMARK   10  A    between atoms: O_12  and  C_13
REMARK   11  A    between atoms: N_21  and  C_22
REMARK   12  A    between atoms: C_25  and  O_26
REMARK   13  A    between atoms: O_26  and  C_27
REMARK   14  A    between atoms: C_27  and  C_28
REMARK                            x       y       z     vdW  Elec       q    Type
REMARK                         _______ _______ _______ _____ _____    ______ ____
ROOT
ATOM      1  C   UNL     1      21.841  -0.361  53.714  0.00  0.00    +0.121 A 
ATOM      2  C   UNL     1      22.475  -1.120  54.702  0.00  0.00    -0.018 A 
ATOM      3  C   UNL     1      23.861  -1.085  54.847  0.00  0.00    -0.032 A 
ATOM      4  C   UNL     1      24.636  -0.293  53.995  0.00  0.00    +0.076 A 
ATOM      5  N   UNL     1      25.982  -0.250  54.157  0.00  0.00    -0.235 NA
ATOM      6  C   UNL     1      26.759   0.513  53.349  0.00  0.00    +0.119 A 
ATOM      7  N   UNL     1      26.197   1.241  52.353  0.00  0.00    -0.220 NA
ATOM      8  C   UNL     1      24.853   1.245  52.139  0.00  0.00    +0.134 A 
ATOM      9  N   UNL     1      24.321   1.997  51.034  0.00  0.00    -0.299 N 
ATOM     10  C   UNL     1      24.020   0.466  52.974  0.00  0.00    +0.044 A 
ATOM     11  C   UNL     1      22.617   0.439  52.850  0.00  0.00    -0.007 A 
ATOM     12  H   UNL     1      23.507   1.664  50.591  0.00  0.00    +0.000 HD
ENDROOT
BRANCH   9  13
ATOM     13  C   UNL     1      24.917   3.212  50.544  0.00  0.00    +0.034 A 
ATOM     14  C   UNL     1      26.001   3.141  49.658  0.00  0.00    -0.037 A 
ATOM     15  C   UNL     1      26.595   4.307  49.166  0.00  0.00    -0.017 A 
ATOM     16  C   UNL     1      26.108   5.570  49.551  0.00  0.00    +0.139 A 
ATOM     17  C   UNL     1      25.002   5.640  50.413  0.00  0.00    +0.084 A 
ATOM     18 CL   UNL     1      24.343   7.197  50.886  0.00  0.00    -0.080 Cl
ATOM     19  C   UNL     1      24.408   4.471  50.899  0.00  0.00    -0.019 A 
BRANCH  16  20
ATOM     20  O   UNL     1      26.685   6.770  49.101  0.00  0.00    -0.486 OA
BRANCH  20  21
ATOM     21  C   UNL     1      27.560   6.897  47.979  0.00  0.00    +0.115 C 
BRANCH  21  22
ATOM     22  C   UNL     1      28.995   7.032  48.421  0.00  0.00    -0.008 A 
ATOM     23  C   UNL     1      29.502   8.282  48.812  0.00  0.00    -0.055 A 
ATOM     24  C   UNL     1      30.841   8.410  49.195  0.00  0.00    -0.059 A 
ATOM     25  C   UNL     1      31.685   7.297  49.176  0.00  0.00    -0.026 A 
ATOM     26  C   UNL     1      31.192   6.052  48.777  0.00  0.00    +0.124 A 
ATOM     27  F   UNL     1      32.013   4.973  48.748  0.00  0.00    -0.205 F 
ATOM     28  C   UNL     1      29.853   5.919  48.394  0.00  0.00    -0.020 A 
ENDBRANCH  21  22
ENDBRANCH  20  21
ENDBRANCH  16  20
ENDBRANCH   9  13
BRANCH   1  29
ATOM     29  O   UNL     1      20.443  -0.428  53.627  0.00  0.00    -0.492 OA
BRANCH  29  30
ATOM     30  C   UNL     1      19.650   0.291  52.685  0.00  0.00    +0.090 C 
BRANCH  30  31
ATOM     31  C   UNL     1      18.601  -0.637  52.072  0.00  0.00    -0.017 C 
BRANCH  31  32
ATOM     32  C   UNL     1      17.491  -0.979  53.076  0.00  0.00    -0.037 C 
BRANCH  32  33
ATOM     33  C   UNL     1      16.107  -0.856  52.434  0.00  0.00    -0.004 C 
BRANCH  33  34
ATOM     34  N   UNL     1      15.224  -0.055  53.293  0.00  0.00    -0.314 N 
ATOM     35  H   UNL     1      14.553  -0.673  53.747  0.00  0.00    +0.000 HD
ATOM     36  H   UNL     1      15.799   0.426  53.985  0.00  0.00    +0.000 HD
BRANCH  34  37
ATOM     37  C   UNL     1      14.493   0.957  52.516  0.00  0.00    +0.015 C 
BRANCH  37  38
ATOM     38  C   UNL     1      13.418   1.625  53.379  0.00  0.00    +0.078 C 
BRANCH  38  40
ATOM     39  C   UNL     1      12.383   4.174  54.390  0.00  0.00    +0.054 C 
ATOM     40  S   UNL     1      13.442   3.402  53.183  0.00  0.00    -0.033 S 
ATOM     41  O   UNL     1      14.845   3.917  53.351  0.00  0.00    -0.175 OA
ATOM     42  O   UNL     1      12.953   3.750  51.806  0.00  0.00    -0.175 OA
ENDBRANCH  38  40
ENDBRANCH  37  38
ENDBRANCH  34  37
ENDBRANCH  33  34
ENDBRANCH  32  33
ENDBRANCH  31  32
ENDBRANCH  30  31
ENDBRANCH  29  30
ENDBRANCH   1  29
TORSDOF 13
ENDMDL
MODEL 5
REMARK VINA RESULT:    -7.855      4.922     10.720
REMARK INTER + INTRA:         -15.937
REMARK INTER:                 -14.176
REMARK INTRA:                  -1.761
REMARK UNBOUND:                -2.113
REMARK  Name = 
REMARK  14 active torsions:
REMARK  status: ('A' for Active; 'I' for Inactive)
REMARK    1  A    between atoms: C_1  and  S_2
REMARK    2  A    between atoms: S_2  and  C_5
REMARK    3  A    between atoms: C_5  and  C_6
REMARK    4  A    between atoms: C_6  and  N_7
REMARK    5  A    between atoms: N_7  and  C_8
REMARK    6  A    between atoms: C_8  and  C_9
REMARK    7  A    between atoms: C_9  and  C_10
REMARK    8  A    between atoms: C_10  and  C_11
REMARK    9  A    between atoms: C_11  and  O_12
REMARK   10  A    between atoms: O_12  and  C_13
REMARK   11  A    between atoms: N_21  and  C_22
REMARK   12  A    between atoms: C_25  and  O_26
REMARK   13  A    between atoms: O_26  and  C_27
REMARK   14  A    between atoms: C_27  and  C_28
REMARK                            x       y       z     vdW  Elec       q    Type
REMARK                         _______ _______ _______ _____ _____    ______ ____
ROOT
ATOM      1  C   UNL     1      20.873   2.292  52.582  0.00  0.00    +0.121 A 
ATOM      2  C   UNL     1      19.568   2.228  52.086  0.00  0.00    -0.018 A 
ATOM      3  C   UNL     1      19.076   3.228  51.248  0.00  0.00    -0.032 A 
ATOM      4  C   UNL     1      19.883   4.314  50.902  0.00  0.00    +0.076 A 
ATOM      5  N   UNL     1      19.402   5.272  50.070  0.00  0.00    -0.235 NA
ATOM      6  C   UNL     1      20.165   6.335  49.712  0.00  0.00    +0.119 A 
ATOM      7  N   UNL     1      21.425   6.462  50.195  0.00  0.00    -0.220 NA
ATOM      8  C   UNL     1      21.970   5.535  51.030  0.00  0.00    +0.134 A 
ATOM      9  N   UNL     1      23.294   5.751  51.549  0.00  0.00    -0.299 N 
ATOM     10  C   UNL     1      21.199   4.412  51.409  0.00  0.00    +0.044 A 
ATOM     11  C   UNL     1      21.693   3.386  52.238  0.00  0.00    -0.007 A 
ATOM     12  H   UNL     1      23.507   5.401  52.444  0.00  0.00    +0.000 HD
ENDROOT
BRANCH   9  13
ATOM     13  C   UNL     1      24.323   6.450  50.825  0.00  0.00    +0.034 A 
ATOM     14  C   UNL     1      24.397   7.847  50.906  0.00  0.00    -0.037 A 
ATOM     15  C   UNL     1      25.390   8.547  50.215  0.00  0.00    -0.017 A 
ATOM     16  C   UNL     1      26.333   7.857  49.430  0.00  0.00    +0.139 A 
ATOM     17  C   UNL     1      26.277   6.456  49.375  0.00  0.00    +0.084 A 
ATOM     18 CL   UNL     1      27.459   5.557  48.437  0.00  0.00    -0.080 Cl
ATOM     19  C   UNL     1      25.286   5.758  50.072  0.00  0.00    -0.019 A 
BRANCH  16  20
ATOM     20  O   UNL     1      27.335   8.519  48.699  0.00  0.00    -0.486 OA
BRANCH  20  21
ATOM     21  C   UNL     1      28.693   8.674  49.112  0.00  0.00    +0.115 C 
BRANCH  21  22
ATOM     22  C   UNL     1      29.124  10.116  49.033  0.00  0.00    -0.008 A 
ATOM     23  C   UNL     1      30.487  10.452  49.072  0.00  0.00    -0.055 A 
ATOM     24  C   UNL     1      30.884  11.792  49.027  0.00  0.00    -0.059 A 
ATOM     25  C   UNL     1      29.924  12.806  48.958  0.00  0.00    -0.026 A 
ATOM     26  C   UNL     1      28.565  12.481  48.932  0.00  0.00    +0.124 A 
ATOM     27  F   UNL     1      27.633  13.464  48.876  0.00  0.00    -0.205 F 
ATOM     28  C   UNL     1      28.164  11.142  48.976  0.00  0.00    -0.020 A 
ENDBRANCH  21  22
ENDBRANCH  20  21
ENDBRANCH  16  20
ENDBRANCH   9  13
BRANCH   1  29
ATOM     29  O   UNL     1      21.315   1.248  53.409  0.00  0.00    -0.492 OA
BRANCH  29  30
ATOM     30  C   UNL     1      21.089  -0.138  53.162  0.00  0.00    +0.090 C 
BRANCH  30  31
ATOM     31  C   UNL     1      22.090  -0.978  53.955  0.00  0.00    -0.017 C 
BRANCH  31  32
ATOM     32  C   UNL     1      23.524  -0.453  53.794  0.00  0.00    -0.037 C 
BRANCH  32  33
ATOM     33  C   UNL     1      24.446  -1.027  54.873  0.00  0.00    -0.004 C 
BRANCH  33  34
ATOM     34  N   UNL     1      25.841  -0.657  54.590  0.00  0.00    -0.314 N 
ATOM     35  H   UNL     1      26.015   0.281  54.949  0.00  0.00    +0.000 HD
ATOM     36  H   UNL     1      26.451  -1.337  55.043  0.00  0.00    +0.000 HD
BRANCH  34  37
ATOM     37  C   UNL     1      26.119  -0.675  53.146  0.00  0.00    +0.015 C 
BRANCH  37  38
ATOM     38  C   UNL     1      27.408   0.091  52.836  0.00  0.00    +0.078 C 
BRANCH  38  40
ATOM     39  C   UNL     1      26.680   2.495  51.327  0.00  0.00    +0.054 C 
ATOM     40  S   UNL     1      27.150   1.857  52.923  0.00  0.00    -0.033 S 
ATOM     41  O   UNL     1      26.068   2.168  53.921  0.00  0.00    -0.175 OA
ATOM     42  O   UNL     1      28.426   2.518  53.362  0.00  0.00    -0.175 OA
ENDBRANCH  38  40
ENDBRANCH  37  38
ENDBRANCH  34  37
ENDBRANCH  33  34
ENDBRANCH  32  33
ENDBRANCH  31  32
ENDBRANCH  30  31
ENDBRANCH  29  30
ENDBRANCH   1  29
TORSDOF 13
ENDMDL
MODEL 6
REMARK VINA RESULT:    -7.807      5.292     10.636
REMARK INTER + INTRA:         -15.853
REMARK INTER:                 -13.888
REMARK INTRA:                  -1.965
REMARK UNBOUND:                -2.113
REMARK  Name = 
REMARK  14 active torsions:
REMARK  status: ('A' for Active; 'I' for Inactive)
REMARK    1  A    between atoms: C_1  and  S_2
REMARK    2  A    between atoms: S_2  and  C_5
REMARK    3  A    between atoms: C_5  and  C_6
REMARK    4  A    between atoms: C_6  and  N_7
REMARK    5  A    between atoms: N_7  and  C_8
REMARK    6  A    between atoms: C_8  and  C_9
REMARK    7  A    between atoms: C_9  and  C_10
REMARK    8  A    between atoms: C_10  and  C_11
REMARK    9  A    between atoms: C_11  and  O_12
REMARK   10  A    between atoms: O_12  and  C_13
REMARK   11  A    between atoms: N_21  and  C_22
REMARK   12  A    between atoms: C_25  and  O_26
REMARK   13  A    between atoms: O_26  and  C_27
REMARK   14  A    between atoms: C_27  and  C_28
REMARK                            x       y       z     vdW  Elec       q    Type
REMARK                         _______ _______ _______ _____ _____    ______ ____
ROOT
ATOM      1  C   UNL     1      20.575   1.121  52.354  0.00  0.00    +0.121 A 
ATOM      2  C   UNL     1      19.636   0.578  51.471  0.00  0.00    -0.018 A 
ATOM      3  C   UNL     1      19.417   1.157  50.221  0.00  0.00    -0.032 A 
ATOM      4  C   UNL     1      20.130   2.297  49.842  0.00  0.00    +0.076 A 
ATOM      5  N   UNL     1      19.925   2.842  48.616  0.00  0.00    -0.235 NA
ATOM      6  C   UNL     1      20.606   3.944  48.217  0.00  0.00    +0.119 A 
ATOM      7  N   UNL     1      21.501   4.530  49.051  0.00  0.00    -0.220 NA
ATOM      8  C   UNL     1      21.757   4.032  50.292  0.00  0.00    +0.134 A 
ATOM      9  N   UNL     1      22.680   4.727  51.149  0.00  0.00    -0.299 N 
ATOM     10  C   UNL     1      21.068   2.877  50.726  0.00  0.00    +0.044 A 
ATOM     11  C   UNL     1      21.296   2.272  51.977  0.00  0.00    -0.007 A 
ATOM     12  H   UNL     1      22.532   4.690  52.121  0.00  0.00    +0.000 HD
ENDROOT
BRANCH   9  13
ATOM     13  C   UNL     1      23.809   5.472  50.657  0.00  0.00    +0.034 A 
ATOM     14  C   UNL     1      23.849   6.862  50.833  0.00  0.00    -0.037 A 
ATOM     15  C   UNL     1      24.937   7.606  50.367  0.00  0.00    -0.017 A 
ATOM     16  C   UNL     1      26.010   6.968  49.717  0.00  0.00    +0.139 A 
ATOM     17  C   UNL     1      25.984   5.572  49.569  0.00  0.00    +0.084 A 
ATOM     18 CL   UNL     1      27.321   4.736  48.798  0.00  0.00    -0.080 Cl
ATOM     19  C   UNL     1      24.896   4.830  50.042  0.00  0.00    -0.019 A 
BRANCH  16  20
ATOM     20  O   UNL     1      27.114   7.676  49.212  0.00  0.00    -0.486 OA
BRANCH  20  21
ATOM     21  C   UNL     1      27.584   8.933  49.700  0.00  0.00    +0.115 C 
BRANCH  21  22
ATOM     22  C   UNL     1      28.962   9.240  49.172  0.00  0.00    -0.008 A 
ATOM     23  C   UNL     1      29.838   8.198  48.828  0.00  0.00    -0.055 A 
ATOM     24  C   UNL     1      31.126   8.483  48.365  0.00  0.00    -0.059 A 
ATOM     25  C   UNL     1      31.554   9.810  48.257  0.00  0.00    -0.026 A 
ATOM     26  C   UNL     1      30.693  10.853  48.609  0.00  0.00    +0.124 A 
ATOM     27  F   UNL     1      31.111  12.139  48.515  0.00  0.00    -0.205 F 
ATOM     28  C   UNL     1      29.404  10.571  49.072  0.00  0.00    -0.020 A 
ENDBRANCH  21  22
ENDBRANCH  20  21
ENDBRANCH  16  20
ENDBRANCH   9  13
BRANCH   1  29
ATOM     29  O   UNL     1      20.760   0.485  53.590  0.00  0.00    -0.492 OA
BRANCH  29  30
ATOM     30  C   UNL     1      21.090  -0.892  53.756  0.00  0.00    +0.090 C 
BRANCH  30  31
ATOM     31  C   UNL     1      22.197  -1.040  54.801  0.00  0.00    -0.017 C 
BRANCH  31  32
ATOM     32  C   UNL     1      23.568  -0.648  54.234  0.00  0.00    -0.037 C 
BRANCH  32  33
ATOM     33  C   UNL     1      24.696  -1.060  55.182  0.00  0.00    -0.004 C 
BRANCH  33  34
ATOM     34  N   UNL     1      25.994  -0.649  54.628  0.00  0.00    -0.314 N 
ATOM     35  H   UNL     1      26.161   0.329  54.863  0.00  0.00    +0.000 HD
ATOM     36  H   UNL     1      26.718  -1.247  55.028  0.00  0.00    +0.000 HD
BRANCH  34  37
ATOM     37  C   UNL     1      26.026  -0.802  53.166  0.00  0.00    +0.015 C 
BRANCH  37  38
ATOM     38  C   UNL     1      27.222  -0.052  52.572  0.00  0.00    +0.078 C 
BRANCH  38  40
ATOM     39  C   UNL     1      28.510   2.368  53.608  0.00  0.00    +0.054 C 
ATOM     40  S   UNL     1      27.062   1.713  52.805  0.00  0.00    -0.033 S 
ATOM     41  O   UNL     1      26.882   2.390  51.474  0.00  0.00    -0.175 OA
ATOM     42  O   UNL     1      25.858   1.987  53.661  0.00  0.00    -0.175 OA
ENDBRANCH  38  40
ENDBRANCH  37  38
ENDBRANCH  34  37
ENDBRANCH  33  34
ENDBRANCH  32  33
ENDBRANCH  31  32
ENDBRANCH  30  31
ENDBRANCH  29  30
ENDBRANCH   1  29
TORSDOF 13
ENDMDL
MODEL 7
REMARK VINA RESULT:    -7.802      5.707     11.106
REMARK INTER + INTRA:         -15.845
REMARK INTER:                 -13.936
REMARK INTRA:                  -1.909
REMARK UNBOUND:                -2.113
REMARK  Name = 
REMARK  14 active torsions:
REMARK  status: ('A' for Active; 'I' for Inactive)
REMARK    1  A    between atoms: C_1  and  S_2
REMARK    2  A    between atoms: S_2  and  C_5
REMARK    3  A    between atoms: C_5  and  C_6
REMARK    4  A    between atoms: C_6  and  N_7
REMARK    5  A    between atoms: N_7  and  C_8
REMARK    6  A    between atoms: C_8  and  C_9
REMARK    7  A    between atoms: C_9  and  C_10
REMARK    8  A    between atoms: C_10  and  C_11
REMARK    9  A    between atoms: C_11  and  O_12
REMARK   10  A    between atoms: O_12  and  C_13
REMARK   11  A    between atoms: N_21  and  C_22
REMARK   12  A    between atoms: C_25  and  O_26
REMARK   13  A    between atoms: O_26  and  C_27
REMARK   14  A    between atoms: C_27  and  C_28
REMARK                            x       y       z     vdW  Elec       q    Type
REMARK                         _______ _______ _______ _____ _____    ______ ____
ROOT
ATOM      1  C   UNL     1      22.051   1.296  51.305  0.00  0.00    +0.121 A 
ATOM      2  C   UNL     1      21.183   0.683  50.395  0.00  0.00    -0.018 A 
ATOM      3  C   UNL     1      20.990   1.223  49.123  0.00  0.00    -0.032 A 
ATOM      4  C   UNL     1      21.656   2.392  48.748  0.00  0.00    +0.076 A 
ATOM      5  N   UNL     1      21.477   2.899  47.502  0.00  0.00    -0.235 NA
ATOM      6  C   UNL     1      22.115   4.028  47.108  0.00  0.00    +0.119 A 
ATOM      7  N   UNL     1      22.938   4.680  47.966  0.00  0.00    -0.220 NA
ATOM      8  C   UNL     1      23.166   4.223  49.228  0.00  0.00    +0.134 A 
ATOM      9  N   UNL     1      24.010   4.986  50.108  0.00  0.00    -0.299 N 
ATOM     10  C   UNL     1      22.521   3.042  49.659  0.00  0.00    +0.044 A 
ATOM     11  C   UNL     1      22.725   2.477  50.933  0.00  0.00    -0.007 A 
ATOM     12  H   UNL     1      23.821   4.961  51.074  0.00  0.00    +0.000 HD
ENDROOT
BRANCH   9  13
ATOM     13  C   UNL     1      25.118   5.781  49.648  0.00  0.00    +0.034 A 
ATOM     14  C   UNL     1      25.050   7.178  49.737  0.00  0.00    -0.037 A 
ATOM     15  C   UNL     1      26.114   7.971  49.301  0.00  0.00    -0.017 A 
ATOM     16  C   UNL     1      27.274   7.376  48.768  0.00  0.00    +0.139 A 
ATOM     17  C   UNL     1      27.354   5.976  48.708  0.00  0.00    +0.084 A 
ATOM     18 CL   UNL     1      28.799   5.196  48.085  0.00  0.00    -0.080 Cl
ATOM     19  C   UNL     1      26.289   5.186  49.151  0.00  0.00    -0.019 A 
BRANCH  16  20
ATOM     20  O   UNL     1      28.361   8.132  48.296  0.00  0.00    -0.486 OA
BRANCH  20  21
ATOM     21  C   UNL     1      29.457   8.588  49.088  0.00  0.00    +0.115 C 
BRANCH  21  22
ATOM     22  C   UNL     1      29.715  10.057  48.866  0.00  0.00    -0.008 A 
ATOM     23  C   UNL     1      31.002  10.508  48.531  0.00  0.00    -0.055 A 
ATOM     24  C   UNL     1      31.246  11.874  48.352  0.00  0.00    -0.059 A 
ATOM     25  C   UNL     1      30.211  12.798  48.522  0.00  0.00    -0.026 A 
ATOM     26  C   UNL     1      28.930  12.359  48.868  0.00  0.00    +0.124 A 
ATOM     27  F   UNL     1      27.929  13.256  49.043  0.00  0.00    -0.205 F 
ATOM     28  C   UNL     1      28.682  10.994  49.046  0.00  0.00    -0.020 A 
ENDBRANCH  21  22
ENDBRANCH  20  21
ENDBRANCH  16  20
ENDBRANCH   9  13
BRANCH   1  29
ATOM     29  O   UNL     1      22.214   0.698  52.563  0.00  0.00    -0.492 OA
BRANCH  29  30
ATOM     30  C   UNL     1      21.192   0.001  53.272  0.00  0.00    +0.090 C 
BRANCH  30  31
ATOM     31  C   UNL     1      21.643  -0.265  54.709  0.00  0.00    -0.017 C 
BRANCH  31  32
ATOM     32  C   UNL     1      22.552  -1.499  54.798  0.00  0.00    -0.037 C 
BRANCH  32  33
ATOM     33  C   UNL     1      24.005  -1.097  55.060  0.00  0.00    -0.004 C 
BRANCH  33  34
ATOM     34  N   UNL     1      24.561  -0.420  53.879  0.00  0.00    -0.314 N 
ATOM     35  H   UNL     1      23.819  -0.290  53.192  0.00  0.00    +0.000 HD
ATOM     36  H   UNL     1      24.942   0.479  54.175  0.00  0.00    +0.000 HD
BRANCH  34  37
ATOM     37  C   UNL     1      25.645  -1.205  53.270  0.00  0.00    +0.015 C 
BRANCH  37  38
ATOM     38  C   UNL     1      26.645  -0.285  52.565  0.00  0.00    +0.078 C 
BRANCH  38  40
ATOM     39  C   UNL     1      29.387  -0.412  53.591  0.00  0.00    +0.054 C 
ATOM     40  S   UNL     1      27.814   0.413  53.724  0.00  0.00    -0.033 S 
ATOM     41  O   UNL     1      27.996   1.879  53.447  0.00  0.00    -0.175 OA
ATOM     42  O   UNL     1      27.283   0.239  55.119  0.00  0.00    -0.175 OA
ENDBRANCH  38  40
ENDBRANCH  37  38
ENDBRANCH  34  37
ENDBRANCH  33  34
ENDBRANCH  32  33
ENDBRANCH  31  32
ENDBRANCH  30  31
ENDBRANCH  29  30
ENDBRANCH   1  29
TORSDOF 13
ENDMDL
MODEL 8
REMARK VINA RESULT:    -7.653      4.529     10.946
REMARK INTER + INTRA:         -15.582
REMARK INTER:                 -13.374
REMARK INTRA:                  -2.209
REMARK UNBOUND:                -2.113
REMARK  Name = 
REMARK  14 active torsions:
REMARK  status: ('A' for Active; 'I' for Inactive)
REMARK    1  A    between atoms: C_1  and  S_2
REMARK    2  A    between atoms: S_2  and  C_5
REMARK    3  A    between atoms: C_5  and  C_6
REMARK    4  A    between atoms: C_6  and  N_7
REMARK    5  A    between atoms: N_7  and  C_8
REMARK    6  A    between atoms: C_8  and  C_9
REMARK    7  A    between atoms: C_9  and  C_10
REMARK    8  A    between atoms: C_10  and  C_11
REMARK    9  A    between atoms: C_11  and  O_12
REMARK   10  A    between atoms: O_12  and  C_13
REMARK   11  A    between atoms: N_21  and  C_22
REMARK   12  A    between atoms: C_25  and  O_26
REMARK   13  A    between atoms: O_26  and  C_27
REMARK   14  A    between atoms: C_27  and  C_28
REMARK                            x       y       z     vdW  Elec       q    Type
REMARK                         _______ _______ _______ _____ _____    ______ ____
ROOT
ATOM      1  C   UNL     1      14.919   3.984  52.173  0.00  0.00    +0.121 A 
ATOM      2  C   UNL     1      14.289   4.191  50.942  0.00  0.00    -0.018 A 
ATOM      3  C   UNL     1      15.024   4.185  49.757  0.00  0.00    -0.032 A 
ATOM      4  C   UNL     1      16.405   3.980  49.789  0.00  0.00    +0.076 A 
ATOM      5  N   UNL     1      17.109   3.956  48.629  0.00  0.00    -0.235 NA
ATOM      6  C   UNL     1      18.449   3.753  48.628  0.00  0.00    +0.119 A 
ATOM      7  N   UNL     1      19.113   3.583  49.798  0.00  0.00    -0.220 NA
ATOM      8  C   UNL     1      18.467   3.592  50.996  0.00  0.00    +0.134 A 
ATOM      9  N   UNL     1      19.233   3.457  52.206  0.00  0.00    -0.299 N 
ATOM     10  C   UNL     1      17.068   3.790  51.023  0.00  0.00    +0.044 A 
ATOM     11  C   UNL     1      16.313   3.778  52.212  0.00  0.00    -0.007 A 
ATOM     12  H   UNL     1      18.907   3.908  53.018  0.00  0.00    +0.000 HD
ENDROOT
BRANCH   9  13
ATOM     13  C   UNL     1      20.450   2.693  52.291  0.00  0.00    +0.034 A 
ATOM     14  C   UNL     1      20.385   1.313  52.522  0.00  0.00    -0.037 A 
ATOM     15  C   UNL     1      21.553   0.550  52.605  0.00  0.00    -0.017 A 
ATOM     16  C   UNL     1      22.813   1.159  52.452  0.00  0.00    +0.139 A 
ATOM     17  C   UNL     1      22.877   2.536  52.189  0.00  0.00    +0.084 A 
ATOM     18 CL   UNL     1      24.428   3.325  51.955  0.00  0.00    -0.080 Cl
ATOM     19  C   UNL     1      21.705   3.295  52.101  0.00  0.00    -0.019 A 
BRANCH  16  20
ATOM     20  O   UNL     1      24.016   0.438  52.549  0.00  0.00    -0.486 OA
BRANCH  20  21
ATOM     21  C   UNL     1      24.468  -0.265  53.707  0.00  0.00    +0.115 C 
BRANCH  21  22
ATOM     22  C   UNL     1      25.966  -0.435  53.689  0.00  0.00    -0.008 A 
ATOM     23  C   UNL     1      26.563  -1.366  52.823  0.00  0.00    -0.055 A 
ATOM     24  C   UNL     1      27.950  -1.543  52.827  0.00  0.00    -0.059 A 
ATOM     25  C   UNL     1      28.749  -0.804  53.705  0.00  0.00    -0.026 A 
ATOM     26  C   UNL     1      28.161   0.116  54.578  0.00  0.00    +0.124 A 
ATOM     27  F   UNL     1      28.934   0.825  55.438  0.00  0.00    -0.205 F 
ATOM     28  C   UNL     1      26.774   0.296  54.577  0.00  0.00    -0.020 A 
ENDBRANCH  21  22
ENDBRANCH  20  21
ENDBRANCH  16  20
ENDBRANCH   9  13
BRANCH   1  29
ATOM     29  O   UNL     1      14.124   3.987  53.328  0.00  0.00    -0.492 OA
BRANCH  29  30
ATOM     30  C   UNL     1      12.819   4.555  53.417  0.00  0.00    +0.090 C 
BRANCH  30  31
ATOM     31  C   UNL     1      11.874   3.582  54.122  0.00  0.00    -0.017 C 
BRANCH  31  32
ATOM     32  C   UNL     1      11.856   2.211  53.434  0.00  0.00    -0.037 C 
BRANCH  32  33
ATOM     33  C   UNL     1      12.501   1.140  54.317  0.00  0.00    -0.004 C 
BRANCH  33  34
ATOM     34  N   UNL     1      13.893   0.918  53.901  0.00  0.00    -0.314 N 
ATOM     35  H   UNL     1      14.269   1.787  53.521  0.00  0.00    +0.000 HD
ATOM     36  H   UNL     1      14.428   0.619  54.716  0.00  0.00    +0.000 HD
BRANCH  34  37
ATOM     37  C   UNL     1      13.987  -0.132  52.876  0.00  0.00    +0.015 C 
BRANCH  37  38
ATOM     38  C   UNL     1      14.719   0.389  51.636  0.00  0.00    +0.078 C 
BRANCH  38  40
ATOM     39  C   UNL     1      17.308   0.074  50.298  0.00  0.00    +0.054 C 
ATOM     40  S   UNL     1      15.948  -0.780  51.070  0.00  0.00    -0.033 S 
ATOM     41  O   UNL     1      16.461  -1.585  52.232  0.00  0.00    -0.175 OA
ATOM     42  O   UNL     1      15.318  -1.708  50.071  0.00  0.00    -0.175 OA
ENDBRANCH  38  40
ENDBRANCH  37  38
ENDBRANCH  34  37
ENDBRANCH  33  34
ENDBRANCH  32  33
ENDBRANCH  31  32
ENDBRANCH  30  31
ENDBRANCH  29  30
ENDBRANCH   1  29
TORSDOF 13
ENDMDL
MODEL 9
REMARK VINA RESULT:    -7.586      1.811      2.164
REMARK INTER + INTRA:         -15.465
REMARK INTER:                 -13.562
REMARK INTRA:                  -1.903
REMARK UNBOUND:                -2.113
REMARK  Name = 
REMARK  14 active torsions:
REMARK  status: ('A' for Active; 'I' for Inactive)
REMARK    1  A    between atoms: C_1  and  S_2
REMARK    2  A    between atoms: S_2  and  C_5
REMARK    3  A    between atoms: C_5  and  C_6
REMARK    4  A    between atoms: C_6  and  N_7
REMARK    5  A    between atoms: N_7  and  C_8
REMARK    6  A    between atoms: C_8  and  C_9
REMARK    7  A    between atoms: C_9  and  C_10
REMARK    8  A    between atoms: C_10  and  C_11
REMARK    9  A    between atoms: C_11  and  O_12
REMARK   10  A    between atoms: O_12  and  C_13
REMARK   11  A    between atoms: N_21  and  C_22
REMARK   12  A    between atoms: C_25  and  O_26
REMARK   13  A    between atoms: O_26  and  C_27
REMARK   14  A    between atoms: C_27  and  C_28
REMARK                            x       y       z     vdW  Elec       q    Type
REMARK                         _______ _______ _______ _____ _____    ______ ____
ROOT
ATOM      1  C   UNL     1      26.144   1.541  51.740  0.00  0.00    +0.121 A 
ATOM      2  C   UNL     1      26.993   0.831  52.595  0.00  0.00    -0.018 A 
ATOM      3  C   UNL     1      26.472   0.004  53.589  0.00  0.00    -0.032 A 
ATOM      4  C   UNL     1      25.089  -0.118  53.747  0.00  0.00    +0.076 A 
ATOM      5  N   UNL     1      24.591  -0.941  54.704  0.00  0.00    -0.235 NA
ATOM      6  C   UNL     1      23.254  -1.084  54.877  0.00  0.00    +0.119 A 
ATOM      7  N   UNL     1      22.389  -0.391  54.097  0.00  0.00    -0.220 NA
ATOM      8  C   UNL     1      22.822   0.448  53.116  0.00  0.00    +0.134 A 
ATOM      9  N   UNL     1      21.856   1.194  52.356  0.00  0.00    -0.299 N 
ATOM     10  C   UNL     1      24.210   0.606  52.909  0.00  0.00    +0.044 A 
ATOM     11  C   UNL     1      24.748   1.423  51.895  0.00  0.00    -0.007 A 
ATOM     12  H   UNL     1      22.113   2.083  52.019  0.00  0.00    +0.000 HD
ENDROOT
BRANCH   9  13
ATOM     13  C   UNL     1      20.534   0.708  52.061  0.00  0.00    +0.034 A 
ATOM     14  C   UNL     1      19.888   1.126  50.890  0.00  0.00    -0.037 A 
ATOM     15  C   UNL     1      18.606   0.665  50.580  0.00  0.00    -0.017 A 
ATOM     16  C   UNL     1      17.946  -0.233  51.441  0.00  0.00    +0.139 A 
ATOM     17  C   UNL     1      18.605  -0.677  52.598  0.00  0.00    +0.084 A 
ATOM     18 CL   UNL     1      17.830  -1.825  53.677  0.00  0.00    -0.080 Cl
ATOM     19  C   UNL     1      19.891  -0.216  52.901  0.00  0.00    -0.019 A 
BRANCH  16  20
ATOM     20  O   UNL     1      16.648  -0.707  51.184  0.00  0.00    -0.486 OA
BRANCH  20  21
ATOM     21  C   UNL     1      15.644  -0.011  50.445  0.00  0.00    +0.115 C 
BRANCH  21  22
ATOM     22  C   UNL     1      14.916   0.980  51.317  0.00  0.00    -0.008 A 
ATOM     23  C   UNL     1      14.956   2.351  51.016  0.00  0.00    -0.055 A 
ATOM     24  C   UNL     1      14.303   3.272  51.842  0.00  0.00    -0.059 A 
ATOM     25  C   UNL     1      13.621   2.833  52.980  0.00  0.00    -0.026 A 
ATOM     26  C   UNL     1      13.587   1.472  53.293  0.00  0.00    +0.124 A 
ATOM     27  F   UNL     1      12.935   1.046  54.403  0.00  0.00    -0.205 F 
ATOM     28  C   UNL     1      14.238   0.547  52.470  0.00  0.00    -0.020 A 
ENDBRANCH  21  22
ENDBRANCH  20  21
ENDBRANCH  16  20
ENDBRANCH   9  13
BRANCH   1  29
ATOM     29  O   UNL     1      26.728   2.346  50.751  0.00  0.00    -0.492 OA
BRANCH  29  30
ATOM     30  C   UNL     1      26.016   3.256  49.916  0.00  0.00    +0.090 C 
BRANCH  30  31
ATOM     31  C   UNL     1      27.001   4.137  49.147  0.00  0.00    -0.017 C 
BRANCH  31  32
ATOM     32  C   UNL     1      26.468   5.566  48.975  0.00  0.00    -0.037 C 
BRANCH  32  33
ATOM     33  C   UNL     1      25.039   5.691  49.512  0.00  0.00    -0.004 C 
BRANCH  33  34
ATOM     34  N   UNL     1      25.037   6.475  50.755  0.00  0.00    -0.314 N 
ATOM     35  H   UNL     1      25.926   6.339  51.235  0.00  0.00    +0.000 HD
ATOM     36  H   UNL     1      24.902   7.458  50.515  0.00  0.00    +0.000 HD
BRANCH  34  37
ATOM     37  C   UNL     1      23.943   6.064  51.648  0.00  0.00    +0.015 C 
BRANCH  37  38
ATOM     38  C   UNL     1      22.594   6.169  50.932  0.00  0.00    +0.078 C 
BRANCH  38  40
ATOM     39  C   UNL     1      20.039   4.847  50.372  0.00  0.00    +0.054 C 
ATOM     40  S   UNL     1      21.665   4.648  51.072  0.00  0.00    -0.033 S 
ATOM     41  O   UNL     1      22.384   3.541  50.353  0.00  0.00    -0.175 OA
ATOM     42  O   UNL     1      21.534   4.286  52.525  0.00  0.00    -0.175 OA
ENDBRANCH  38  40
ENDBRANCH  37  38
ENDBRANCH  34  37
ENDBRANCH  33  34
ENDBRANCH  32  33
ENDBRANCH  31  32
ENDBRANCH  30  31
ENDBRANCH  29  30
ENDBRANCH   1  29
TORSDOF 13
ENDMDL
