MODEL 1
REMARK VINA RESULT:    -8.371      0.000      0.000
REMARK INTER + INTRA:         -11.426
REMARK INTER:                 -10.818
REMARK INTRA:                  -0.608
REMARK UNBOUND:                -0.608
REMARK  Name = 
REMARK  6 active torsions:
REMARK  status: ('A' for Active; 'I' for Inactive)
REMARK    1  A    between atoms: C_1  and  C_2
REMARK    2  A    between atoms: C_6  and  N_7
REMARK    3  A    between atoms: N_15  and  C_16
REMARK    4  A    between atoms: C_16  and  C_17
REMARK    5  A    between atoms: C_17  and  C_18
REMARK    6  A    between atoms: C_18  and  N_19
REMARK                            x       y       z     vdW  Elec       q    Type
REMARK                         _______ _______ _______ _____ _____    ______ ____
ROOT
ATOM      1  N   UNL     1      23.910   0.498  53.601  0.00  0.00    -0.299 N 
ATOM      2  C   UNL     1      23.026   0.782  52.501  0.00  0.00    +0.135 A 
ATOM      3  N   UNL     1      23.494   1.489  51.435  0.00  0.00    -0.220 NA
ATOM      4  C   UNL     1      22.691   1.825  50.394  0.00  0.00    +0.119 A 
ATOM      5  N   UNL     1      21.382   1.469  50.401  0.00  0.00    -0.235 NA
ATOM      6  C   UNL     1      20.853   0.767  51.437  0.00  0.00    +0.081 A 
ATOM      7  C   UNL     1      19.504   0.406  51.417  0.00  0.00    +0.004 A 
ATOM      8  C   UNL     1      18.970  -0.335  52.485  0.00  0.00    +0.121 A 
ATOM      9  N   UNL     1      17.589  -0.732  52.518  0.00  0.00    -0.329 N 
ATOM     10  N   UNL     1      19.783  -0.697  53.515  0.00  0.00    -0.240 NA
ATOM     11  C   UNL     1      21.098  -0.360  53.563  0.00  0.00    +0.042 A 
ATOM     12  C   UNL     1      21.669   0.396  52.525  0.00  0.00    +0.059 A 
ATOM     13  H   UNL     1      23.523   0.425  54.503  0.00  0.00    +0.000 HD
ATOM     14  H   UNL     1      17.282  -1.290  53.269  0.00  0.00    +0.000 HD
ENDROOT
BRANCH   1  20
ATOM     15  C   UNL     1      28.556   2.341  53.616  0.00  0.00    -0.040 C 
ATOM     16  C   UNL     1      27.607   1.190  53.460  0.00  0.00    -0.049 A 
ATOM     17  C   UNL     1      28.085  -0.072  53.076  0.00  0.00    -0.059 A 
ATOM     18  C   UNL     1      27.196  -1.130  52.880  0.00  0.00    -0.060 A 
ATOM     19  C   UNL     1      25.825  -0.938  53.062  0.00  0.00    -0.040 A 
ATOM     20  C   UNL     1      25.328   0.316  53.448  0.00  0.00    +0.033 A 
ATOM     21  C   UNL     1      26.226   1.386  53.622  0.00  0.00    -0.038 A 
ENDBRANCH   1  20
BRANCH   9  22
ATOM     22  C   UNL     1      16.615  -0.348  51.493  0.00  0.00    +0.012 C 
BRANCH  22  23
ATOM     23  C   UNL     1      15.847   0.925  51.882  0.00  0.00    -0.025 C 
BRANCH  23  24
ATOM     24  C   UNL     1      14.716   0.666  52.893  0.00  0.00    +0.000 C 
BRANCH  24  25
ATOM     25  N   UNL     1      14.144   1.931  53.406  0.00  0.00    -0.298 N 
ATOM     26  C   UNL     1      12.708   2.025  53.074  0.00  0.00    +0.022 C 
ATOM     27  C   UNL     1      12.158   3.432  53.381  0.00  0.00    +0.060 C 
ATOM     28  O   UNL     1      13.064   4.164  54.182  0.00  0.00    -0.377 OA
ATOM     29  C   UNL     1      14.258   4.402  53.457  0.00  0.00    +0.060 C 
ATOM     30  C   UNL     1      14.858   3.107  52.872  0.00  0.00    +0.022 C 
ATOM     31  H   UNL     1      14.256   1.925  54.419  0.00  0.00    +0.000 HD
ENDBRANCH  24  25
ENDBRANCH  23  24
ENDBRANCH  22  23
ENDBRANCH   9  22
TORSDOF 5
ENDMDL
MODEL 2
REMARK VINA RESULT:    -8.314      1.188      2.358
REMARK INTER + INTRA:         -11.351
REMARK INTER:                 -10.804
REMARK INTRA:                  -0.547
REMARK UNBOUND:                -0.608
REMARK  Name = 
REMARK  6 active torsions:
REMARK  status: ('A' for Active; 'I' for Inactive)
REMARK    1  A    between atoms: C_1  and  C_2
REMARK    2  A    between atoms: C_6  and  N_7
REMARK    3  A    between atoms: N_15  and  C_16
REMARK    4  A    between atoms: C_16  and  C_17
REMARK    5  A    between atoms: C_17  and  C_18
REMARK    6  A    between atoms: C_18  and  N_19
REMARK                            x       y       z     vdW  Elec       q    Type
REMARK                         _______ _______ _______ _____ _____    ______ ____
ROOT
ATOM      1  N   UNL     1      25.021   0.211  52.312  0.00  0.00    -0.299 N 
ATOM      2  C   UNL     1      23.900  -0.150  53.140  0.00  0.00    +0.135 A 
ATOM      3  N   UNL     1      24.126  -0.746  54.343  0.00  0.00    -0.220 NA
ATOM      4  C   UNL     1      23.105  -1.150  55.141  0.00  0.00    +0.119 A 
ATOM      5  N   UNL     1      21.820  -0.976  54.743  0.00  0.00    -0.235 NA
ATOM      6  C   UNL     1      21.529  -0.392  53.553  0.00  0.00    +0.081 A 
ATOM      7  C   UNL     1      20.197  -0.218  53.169  0.00  0.00    +0.004 A 
ATOM      8  C   UNL     1      19.905   0.404  51.942  0.00  0.00    +0.121 A 
ATOM      9  N   UNL     1      18.554   0.606  51.497  0.00  0.00    -0.329 N 
ATOM     10  N   UNL     1      20.929   0.835  51.156  0.00  0.00    -0.240 NA
ATOM     11  C   UNL     1      22.234   0.679  51.501  0.00  0.00    +0.042 A 
ATOM     12  C   UNL     1      22.570   0.046  52.710  0.00  0.00    +0.059 A 
ATOM     13  H   UNL     1      24.902   0.198  51.334  0.00  0.00    +0.000 HD
ATOM     14  H   UNL     1      18.409   1.090  50.650  0.00  0.00    +0.000 HD
ENDROOT
BRANCH   1  20
ATOM     15  C   UNL     1      29.688  -0.965  53.660  0.00  0.00    -0.040 C 
ATOM     16  C   UNL     1      28.590   0.044  53.495  0.00  0.00    -0.049 A 
ATOM     17  C   UNL     1      28.772   1.363  53.936  0.00  0.00    -0.059 A 
ATOM     18  C   UNL     1      27.732   2.289  53.830  0.00  0.00    -0.060 A 
ATOM     19  C   UNL     1      26.503   1.906  53.288  0.00  0.00    -0.040 A 
ATOM     20  C   UNL     1      26.304   0.591  52.839  0.00  0.00    +0.033 A 
ATOM     21  C   UNL     1      27.347  -0.344  52.969  0.00  0.00    -0.038 A 
ENDBRANCH   1  20
BRANCH   9  22
ATOM     22  C   UNL     1      17.381   0.132  52.235  0.00  0.00    +0.012 C 
BRANCH  22  23
ATOM     23  C   UNL     1      16.096   0.848  51.790  0.00  0.00    -0.025 C 
BRANCH  23  24
ATOM     24  C   UNL     1      14.925   0.656  52.770  0.00  0.00    +0.000 C 
BRANCH  24  25
ATOM     25  N   UNL     1      14.426   1.953  53.281  0.00  0.00    -0.298 N 
ATOM     26  C   UNL     1      12.990   2.115  52.974  0.00  0.00    +0.022 C 
ATOM     27  C   UNL     1      12.516   3.550  53.276  0.00  0.00    +0.060 C 
ATOM     28  O   UNL     1      13.471   4.244  54.054  0.00  0.00    -0.377 OA
ATOM     29  C   UNL     1      14.662   4.416  53.306  0.00  0.00    +0.060 C 
ATOM     30  C   UNL     1      15.187   3.087  52.723  0.00  0.00    +0.022 C 
ATOM     31  H   UNL     1      14.556   1.950  54.292  0.00  0.00    +0.000 HD
ENDBRANCH  24  25
ENDBRANCH  23  24
ENDBRANCH  22  23
ENDBRANCH   9  22
TORSDOF 5
ENDMDL
MODEL 3
REMARK VINA RESULT:    -8.071      1.610      2.380
REMARK INTER + INTRA:         -11.038
REMARK INTER:                 -10.593
REMARK INTRA:                  -0.445
REMARK UNBOUND:                -0.608
REMARK  Name = 
REMARK  6 active torsions:
REMARK  status: ('A' for Active; 'I' for Inactive)
REMARK    1  A    between atoms: C_1  and  C_2
REMARK    2  A    between atoms: C_6  and  N_7
REMARK    3  A    between atoms: N_15  and  C_16
REMARK    4  A    between atoms: C_16  and  C_17
REMARK    5  A    between atoms: C_17  and  C_18
REMARK    6  A    between atoms: C_18  and  N_19
REMARK                            x       y       z     vdW  Elec       q    Type
REMARK                         _______ _______ _______ _____ _____    ______ ____
ROOT
ATOM      1  N   UNL     1      25.216   0.584  54.171  0.00  0.00    -0.299 N 
ATOM      2  C   UNL     1      24.194   0.744  53.170  0.00  0.00    +0.135 A 
ATOM      3  N   UNL     1      24.460   1.485  52.059  0.00  0.00    -0.220 NA
ATOM      4  C   UNL     1      23.517   1.708  51.108  0.00  0.00    +0.119 A 
ATOM      5  N   UNL     1      22.269   1.197  51.254  0.00  0.00    -0.235 NA
ATOM      6  C   UNL     1      21.941   0.452  52.341  0.00  0.00    +0.081 A 
ATOM      7  C   UNL     1      20.650  -0.068  52.465  0.00  0.00    +0.004 A 
ATOM      8  C   UNL     1      20.324  -0.853  53.585  0.00  0.00    +0.121 A 
ATOM      9  N   UNL     1      19.013  -1.412  53.764  0.00  0.00    -0.329 N 
ATOM     10  N   UNL     1      21.278  -1.099  54.524  0.00  0.00    -0.240 NA
ATOM     11  C   UNL     1      22.541  -0.606  54.432  0.00  0.00    +0.042 A 
ATOM     12  C   UNL     1      22.904   0.198  53.338  0.00  0.00    +0.059 A 
ATOM     13  H   UNL     1      24.938   0.478  55.110  0.00  0.00    +0.000 HD
ATOM     14  H   UNL     1      18.855  -1.992  54.545  0.00  0.00    +0.000 HD
ENDROOT
BRANCH   1  20
ATOM     15  C   UNL     1      29.446  -1.922  53.269  0.00  0.00    -0.040 C 
ATOM     16  C   UNL     1      28.699  -0.629  53.417  0.00  0.00    -0.049 A 
ATOM     17  C   UNL     1      29.382   0.593  53.348  0.00  0.00    -0.059 A 
ATOM     18  C   UNL     1      28.695   1.794  53.536  0.00  0.00    -0.060 A 
ATOM     19  C   UNL     1      27.324   1.785  53.799  0.00  0.00    -0.040 A 
ATOM     20  C   UNL     1      26.623   0.571  53.870  0.00  0.00    +0.033 A 
ATOM     21  C   UNL     1      27.323  -0.637  53.701  0.00  0.00    -0.038 A 
ENDBRANCH   1  20
BRANCH   9  22
ATOM     22  C   UNL     1      17.897  -1.163  52.847  0.00  0.00    +0.012 C 
BRANCH  22  23
ATOM     23  C   UNL     1      16.781  -2.207  53.007  0.00  0.00    -0.025 C 
BRANCH  23  24
ATOM     24  C   UNL     1      15.513  -1.867  52.205  0.00  0.00    +0.000 C 
BRANCH  24  25
ATOM     25  N   UNL     1      14.862  -0.638  52.712  0.00  0.00    -0.298 N 
ATOM     26  C   UNL     1      13.491  -0.930  53.179  0.00  0.00    +0.022 C 
ATOM     27  C   UNL     1      12.718   0.369  53.479  0.00  0.00    +0.060 C 
ATOM     28  O   UNL     1      13.595   1.476  53.540  0.00  0.00    -0.377 OA
ATOM     29  C   UNL     1      14.174   1.696  52.266  0.00  0.00    +0.060 C 
ATOM     30  C   UNL     1      14.825   0.422  51.687  0.00  0.00    +0.022 C 
ATOM     31  H   UNL     1      15.420  -0.302  53.497  0.00  0.00    +0.000 HD
ENDBRANCH  24  25
ENDBRANCH  23  24
ENDBRANCH  22  23
ENDBRANCH   9  22
TORSDOF 5
ENDMDL
MODEL 4
REMARK VINA RESULT:    -7.922      6.185     11.318
REMARK INTER + INTRA:         -10.845
REMARK INTER:                 -10.677
REMARK INTRA:                  -0.168
REMARK UNBOUND:                -0.608
REMARK  Name = 
REMARK  6 active torsions:
REMARK  status: ('A' for Active; 'I' for Inactive)
REMARK    1  A    between atoms: C_1  and  C_2
REMARK    2  A    between atoms: C_6  and  N_7
REMARK    3  A    between atoms: N_15  and  C_16
REMARK    4  A    between atoms: C_16  and  C_17
REMARK    5  A    between atoms: C_17  and  C_18
REMARK    6  A    between atoms: C_18  and  N_19
REMARK                            x       y       z     vdW  Elec       q    Type
REMARK                         _______ _______ _______ _____ _____    ______ ____
ROOT
ATOM      1  N   UNL     1      22.617   1.962  52.656  0.00  0.00    -0.299 N 
ATOM      2  C   UNL     1      23.971   1.732  52.224  0.00  0.00    +0.135 A 
ATOM      3  N   UNL     1      24.643   0.643  52.690  0.00  0.00    -0.220 NA
ATOM      4  C   UNL     1      25.936   0.405  52.353  0.00  0.00    +0.119 A 
ATOM      5  N   UNL     1      26.598   1.268  51.543  0.00  0.00    -0.235 NA
ATOM      6  C   UNL     1      25.985   2.375  51.049  0.00  0.00    +0.081 A 
ATOM      7  C   UNL     1      26.687   3.244  50.211  0.00  0.00    +0.004 A 
ATOM      8  C   UNL     1      26.039   4.378  49.690  0.00  0.00    +0.121 A 
ATOM      9  N   UNL     1      26.713   5.307  48.826  0.00  0.00    -0.329 N 
ATOM     10  N   UNL     1      24.734   4.601  50.005  0.00  0.00    -0.240 NA
ATOM     11  C   UNL     1      24.026   3.774  50.818  0.00  0.00    +0.042 A 
ATOM     12  C   UNL     1      24.640   2.639  51.375  0.00  0.00    +0.059 A 
ATOM     13  H   UNL     1      22.300   2.892  52.722  0.00  0.00    +0.000 HD
ATOM     14  H   UNL     1      26.195   6.058  48.453  0.00  0.00    +0.000 HD
ENDROOT
BRANCH   1  20
ATOM     15  C   UNL     1      18.277  -0.421  51.973  0.00  0.00    -0.040 C 
ATOM     16  C   UNL     1      19.596  -0.283  52.674  0.00  0.00    -0.049 A 
ATOM     17  C   UNL     1      19.925  -1.140  53.734  0.00  0.00    -0.059 A 
ATOM     18  C   UNL     1      21.131  -0.980  54.419  0.00  0.00    -0.060 A 
ATOM     19  C   UNL     1      22.016   0.038  54.054  0.00  0.00    -0.040 A 
ATOM     20  C   UNL     1      21.705   0.903  52.995  0.00  0.00    +0.033 A 
ATOM     21  C   UNL     1      20.478   0.751  52.322  0.00  0.00    -0.038 A 
ENDBRANCH   1  20
BRANCH   9  22
ATOM     22  C   UNL     1      28.130   5.196  48.469  0.00  0.00    +0.012 C 
BRANCH  22  23
ATOM     23  C   UNL     1      28.700   6.531  47.965  0.00  0.00    -0.025 C 
BRANCH  23  24
ATOM     24  C   UNL     1      30.134   6.801  48.455  0.00  0.00    +0.000 C 
BRANCH  24  25
ATOM     25  N   UNL     1      30.338   8.232  48.775  0.00  0.00    -0.298 N 
ATOM     26  C   UNL     1      29.045   8.944  48.822  0.00  0.00    +0.022 C 
ATOM     27  C   UNL     1      29.253  10.469  48.910  0.00  0.00    +0.060 C 
ATOM     28  O   UNL     1      30.593  10.777  49.240  0.00  0.00    -0.377 OA
ATOM     29  C   UNL     1      31.451  10.363  48.191  0.00  0.00    +0.060 C 
ATOM     30  C   UNL     1      31.233   8.886  47.802  0.00  0.00    +0.022 C 
ATOM     31  H   UNL     1      30.780   8.276  49.693  0.00  0.00    +0.000 HD
ENDBRANCH  24  25
ENDBRANCH  23  24
ENDBRANCH  22  23
ENDBRANCH   9  22
TORSDOF 5
ENDMDL
MODEL 5
REMARK VINA RESULT:    -7.762      6.675     10.936
REMARK INTER + INTRA:         -10.639
REMARK INTER:                 -10.240
REMARK INTRA:                  -0.398
REMARK UNBOUND:                -0.608
REMARK  Name = 
REMARK  6 active torsions:
REMARK  status: ('A' for Active; 'I' for Inactive)
REMARK    1  A    between atoms: C_1  and  C_2
REMARK    2  A    between atoms: C_6  and  N_7
REMARK    3  A    between atoms: N_15  and  C_16
REMARK    4  A    between atoms: C_16  and  C_17
REMARK    5  A    between atoms: C_17  and  C_18
REMARK    6  A    between atoms: C_18  and  N_19
REMARK                            x       y       z     vdW  Elec       q    Type
REMARK                         _______ _______ _______ _____ _____    ______ ____
ROOT
ATOM      1  N   UNL     1      22.946   1.270  51.452  0.00  0.00    -0.299 N 
ATOM      2  C   UNL     1      22.828   2.704  51.406  0.00  0.00    +0.135 A 
ATOM      3  N   UNL     1      21.714   3.297  51.915  0.00  0.00    -0.220 NA
ATOM      4  C   UNL     1      21.530   4.641  51.854  0.00  0.00    +0.119 A 
ATOM      5  N   UNL     1      22.463   5.429  51.264  0.00  0.00    -0.235 NA
ATOM      6  C   UNL     1      23.595   4.897  50.734  0.00  0.00    +0.081 A 
ATOM      7  C   UNL     1      24.544   5.731  50.139  0.00  0.00    +0.004 A 
ATOM      8  C   UNL     1      25.720   5.174  49.608  0.00  0.00    +0.121 A 
ATOM      9  N   UNL     1      26.729   5.984  48.983  0.00  0.00    -0.329 N 
ATOM     10  N   UNL     1      25.917   3.830  49.695  0.00  0.00    -0.240 NA
ATOM     11  C   UNL     1      25.012   2.993  50.268  0.00  0.00    +0.042 A 
ATOM     12  C   UNL     1      23.815   3.506  50.794  0.00  0.00    +0.059 A 
ATOM     13  H   UNL     1      23.451   0.820  50.737  0.00  0.00    +0.000 HD
ATOM     14  H   UNL     1      27.554   5.544  48.671  0.00  0.00    +0.000 HD
ENDROOT
BRANCH   1  20
ATOM     15  C   UNL     1      23.403  -1.434  55.632  0.00  0.00    -0.040 C 
ATOM     16  C   UNL     1      22.558  -0.855  54.535  0.00  0.00    -0.049 A 
ATOM     17  C   UNL     1      21.193  -1.165  54.458  0.00  0.00    -0.059 A 
ATOM     18  C   UNL     1      20.418  -0.668  53.408  0.00  0.00    -0.060 A 
ATOM     19  C   UNL     1      20.999   0.139  52.427  0.00  0.00    -0.040 A 
ATOM     20  C   UNL     1      22.363   0.462  52.489  0.00  0.00    +0.033 A 
ATOM     21  C   UNL     1      23.144  -0.060  53.537  0.00  0.00    -0.038 A 
ENDBRANCH   1  20
BRANCH   9  22
ATOM     22  C   UNL     1      26.595   7.430  48.784  0.00  0.00    +0.012 C 
BRANCH  22  23
ATOM     23  C   UNL     1      27.883   8.180  49.155  0.00  0.00    -0.025 C 
BRANCH  23  24
ATOM     24  C   UNL     1      27.642   9.361  50.113  0.00  0.00    +0.000 C 
BRANCH  24  25
ATOM     25  N   UNL     1      28.539  10.498  49.810  0.00  0.00    -0.298 N 
ATOM     26  C   UNL     1      27.911  11.411  48.833  0.00  0.00    +0.022 C 
ATOM     27  C   UNL     1      28.920  12.459  48.324  0.00  0.00    +0.060 C 
ATOM     28  O   UNL     1      30.076  12.485  49.138  0.00  0.00    -0.377 OA
ATOM     29  C   UNL     1      30.764  11.251  49.030  0.00  0.00    +0.060 C 
ATOM     30  C   UNL     1      29.845  10.040  49.298  0.00  0.00    +0.022 C 
ATOM     31  H   UNL     1      28.699  10.998  50.684  0.00  0.00    +0.000 HD
ENDBRANCH  24  25
ENDBRANCH  23  24
ENDBRANCH  22  23
ENDBRANCH   9  22
TORSDOF 5
ENDMDL
MODEL 6
REMARK VINA RESULT:    -7.760      6.580     10.541
REMARK INTER + INTRA:         -10.636
REMARK INTER:                 -10.254
REMARK INTRA:                  -0.383
REMARK UNBOUND:                -0.608
REMARK  Name = 
REMARK  6 active torsions:
REMARK  status: ('A' for Active; 'I' for Inactive)
REMARK    1  A    between atoms: C_1  and  C_2
REMARK    2  A    between atoms: C_6  and  N_7
REMARK    3  A    between atoms: N_15  and  C_16
REMARK    4  A    between atoms: C_16  and  C_17
REMARK    5  A    between atoms: C_17  and  C_18
REMARK    6  A    between atoms: C_18  and  N_19
REMARK                            x       y       z     vdW  Elec       q    Type
REMARK                         _______ _______ _______ _____ _____    ______ ____
ROOT
ATOM      1  N   UNL     1      26.113   8.230  49.115  0.00  0.00    -0.299 N 
ATOM      2  C   UNL     1      26.492   6.841  49.147  0.00  0.00    +0.135 A 
ATOM      3  N   UNL     1      27.587   6.433  48.449  0.00  0.00    -0.220 NA
ATOM      4  C   UNL     1      27.960   5.129  48.406  0.00  0.00    +0.119 A 
ATOM      5  N   UNL     1      27.230   4.191  49.059  0.00  0.00    -0.235 NA
ATOM      6  C   UNL     1      26.126   4.533  49.770  0.00  0.00    +0.081 A 
ATOM      7  C   UNL     1      25.395   3.549  50.440  0.00  0.00    +0.004 A 
ATOM      8  C   UNL     1      24.263   3.915  51.188  0.00  0.00    +0.121 A 
ATOM      9  N   UNL     1      23.473   2.945  51.895  0.00  0.00    -0.329 N 
ATOM     10  N   UNL     1      23.906   5.227  51.254  0.00  0.00    -0.240 NA
ATOM     11  C   UNL     1      24.595   6.206  50.613  0.00  0.00    +0.042 A 
ATOM     12  C   UNL     1      25.722   5.882  49.839  0.00  0.00    +0.059 A 
ATOM     13  H   UNL     1      25.158   8.455  49.196  0.00  0.00    +0.000 HD
ATOM     14  H   UNL     1      22.718   3.265  52.441  0.00  0.00    +0.000 HD
ENDROOT
BRANCH   1  20
ATOM     15  C   UNL     1      30.754  10.028  49.576  0.00  0.00    -0.040 C 
ATOM     16  C   UNL     1      29.319  10.202  49.176  0.00  0.00    -0.049 A 
ATOM     17  C   UNL     1      28.856  11.449  48.731  0.00  0.00    -0.059 A 
ATOM     18  C   UNL     1      27.510  11.624  48.408  0.00  0.00    -0.060 A 
ATOM     19  C   UNL     1      26.614  10.559  48.529  0.00  0.00    -0.040 A 
ATOM     20  C   UNL     1      27.059   9.304  48.970  0.00  0.00    +0.033 A 
ATOM     21  C   UNL     1      28.413   9.138  49.316  0.00  0.00    -0.038 A 
ENDBRANCH   1  20
BRANCH   9  22
ATOM     22  C   UNL     1      23.733   1.503  51.846  0.00  0.00    +0.012 C 
BRANCH  22  23
ATOM     23  C   UNL     1      24.530   1.023  53.069  0.00  0.00    -0.025 C 
BRANCH  23  24
ATOM     24  C   UNL     1      25.728   0.130  52.698  0.00  0.00    +0.000 C 
BRANCH  24  25
ATOM     25  N   UNL     1      26.943   0.510  53.453  0.00  0.00    -0.298 N 
ATOM     26  C   UNL     1      27.379   1.872  53.084  0.00  0.00    +0.022 C 
ATOM     27  C   UNL     1      28.769   2.188  53.670  0.00  0.00    +0.060 C 
ATOM     28  O   UNL     1      29.129   1.240  54.656  0.00  0.00    -0.377 OA
ATOM     29  C   UNL     1      29.279  -0.036  54.059  0.00  0.00    +0.060 C 
ATOM     30  C   UNL     1      28.045  -0.445  53.228  0.00  0.00    +0.022 C 
ATOM     31  H   UNL     1      26.703   0.490  54.443  0.00  0.00    +0.000 HD
ENDBRANCH  24  25
ENDBRANCH  23  24
ENDBRANCH  22  23
ENDBRANCH   9  22
TORSDOF 5
ENDMDL
MODEL 7
REMARK VINA RESULT:    -7.753      2.053      2.673
REMARK INTER + INTRA:         -10.626
REMARK INTER:                  -9.585
REMARK INTRA:                  -1.041
REMARK UNBOUND:                -0.608
REMARK  Name = 
REMARK  6 active torsions:
REMARK  status: ('A' for Active; 'I' for Inactive)
REMARK    1  A    between atoms: C_1  and  C_2
REMARK    2  A    between atoms: C_6  and  N_7
REMARK    3  A    between atoms: N_15  and  C_16
REMARK    4  A    between atoms: C_16  and  C_17
REMARK    5  A    between atoms: C_17  and  C_18
REMARK    6  A    between atoms: C_18  and  N_19
REMARK                            x       y       z     vdW  Elec       q    Type
REMARK                         _______ _______ _______ _____ _____    ______ ____
ROOT
ATOM      1  N   UNL     1      24.108   0.528  53.641  0.00  0.00    -0.299 N 
ATOM      2  C   UNL     1      23.230   0.757  52.523  0.00  0.00    +0.135 A 
ATOM      3  N   UNL     1      23.704   1.412  51.428  0.00  0.00    -0.220 NA
ATOM      4  C   UNL     1      22.906   1.697  50.367  0.00  0.00    +0.119 A 
ATOM      5  N   UNL     1      21.598   1.338  50.384  0.00  0.00    -0.235 NA
ATOM      6  C   UNL     1      21.064   0.686  51.448  0.00  0.00    +0.081 A 
ATOM      7  C   UNL     1      19.716   0.322  51.438  0.00  0.00    +0.004 A 
ATOM      8  C   UNL     1      19.176  -0.368  52.537  0.00  0.00    +0.121 A 
ATOM      9  N   UNL     1      17.796  -0.766  52.581  0.00  0.00    -0.329 N 
ATOM     10  N   UNL     1      19.983  -0.678  53.588  0.00  0.00    -0.240 NA
ATOM     11  C   UNL     1      21.298  -0.337  53.628  0.00  0.00    +0.042 A 
ATOM     12  C   UNL     1      21.873   0.370  52.558  0.00  0.00    +0.059 A 
ATOM     13  H   UNL     1      23.716   0.498  54.544  0.00  0.00    +0.000 HD
ATOM     14  H   UNL     1      17.485  -1.288  53.357  0.00  0.00    +0.000 HD
ENDROOT
BRANCH   1  20
ATOM     15  C   UNL     1      28.759   2.356  53.719  0.00  0.00    -0.040 C 
ATOM     16  C   UNL     1      27.809   1.208  53.548  0.00  0.00    -0.049 A 
ATOM     17  C   UNL     1      28.288  -0.054  53.168  0.00  0.00    -0.059 A 
ATOM     18  C   UNL     1      27.398  -1.109  52.958  0.00  0.00    -0.060 A 
ATOM     19  C   UNL     1      26.025  -0.913  53.123  0.00  0.00    -0.040 A 
ATOM     20  C   UNL     1      25.528   0.342  53.506  0.00  0.00    +0.033 A 
ATOM     21  C   UNL     1      26.427   1.408  53.694  0.00  0.00    -0.038 A 
ENDBRANCH   1  20
BRANCH   9  22
ATOM     22  C   UNL     1      16.827  -0.434  51.533  0.00  0.00    +0.012 C 
BRANCH  22  23
ATOM     23  C   UNL     1      15.619   0.333  52.093  0.00  0.00    -0.025 C 
BRANCH  23  24
ATOM     24  C   UNL     1      15.745   1.859  51.939  0.00  0.00    +0.000 C 
BRANCH  24  25
ATOM     25  N   UNL     1      16.802   2.221  50.968  0.00  0.00    -0.298 N 
ATOM     26  C   UNL     1      17.629   3.329  51.488  0.00  0.00    +0.022 C 
ATOM     27  C   UNL     1      18.569   3.880  50.397  0.00  0.00    +0.060 C 
ATOM     28  O   UNL     1      18.633   2.998  49.294  0.00  0.00    -0.377 OA
ATOM     29  C   UNL     1      17.365   2.928  48.664  0.00  0.00    +0.060 C 
ATOM     30  C   UNL     1      16.233   2.594  49.658  0.00  0.00    +0.022 C 
ATOM     31  H   UNL     1      17.387   1.397  50.836  0.00  0.00    +0.000 HD
ENDBRANCH  24  25
ENDBRANCH  23  24
ENDBRANCH  22  23
ENDBRANCH   9  22
TORSDOF 5
ENDMDL
MODEL 8
REMARK VINA RESULT:    -7.706      7.256     11.041
REMARK INTER + INTRA:         -10.567
REMARK INTER:                  -9.903
REMARK INTRA:                  -0.663
REMARK UNBOUND:                -0.608
REMARK  Name = 
REMARK  6 active torsions:
REMARK  status: ('A' for Active; 'I' for Inactive)
REMARK    1  A    between atoms: C_1  and  C_2
REMARK    2  A    between atoms: C_6  and  N_7
REMARK    3  A    between atoms: N_15  and  C_16
REMARK    4  A    between atoms: C_16  and  C_17
REMARK    5  A    between atoms: C_17  and  C_18
REMARK    6  A    between atoms: C_18  and  N_19
REMARK                            x       y       z     vdW  Elec       q    Type
REMARK                         _______ _______ _______ _____ _____    ______ ____
ROOT
ATOM      1  N   UNL     1      26.459   2.284  50.750  0.00  0.00    -0.299 N 
ATOM      2  C   UNL     1      25.592   3.432  50.756  0.00  0.00    +0.135 A 
ATOM      3  N   UNL     1      24.471   3.417  51.529  0.00  0.00    -0.220 NA
ATOM      4  C   UNL     1      23.594   4.453  51.534  0.00  0.00    +0.119 A 
ATOM      5  N   UNL     1      23.816   5.536  50.749  0.00  0.00    -0.235 NA
ATOM      6  C   UNL     1      24.914   5.611  49.953  0.00  0.00    +0.081 A 
ATOM      7  C   UNL     1      25.122   6.741  49.159  0.00  0.00    +0.004 A 
ATOM      8  C   UNL     1      26.270   6.817  48.351  0.00  0.00    +0.121 A 
ATOM      9  N   UNL     1      26.535   7.953  47.513  0.00  0.00    -0.329 N 
ATOM     10  N   UNL     1      27.163   5.790  48.367  0.00  0.00    -0.240 NA
ATOM     11  C   UNL     1      26.987   4.678  49.128  0.00  0.00    +0.042 A 
ATOM     12  C   UNL     1      25.845   4.553  49.936  0.00  0.00    +0.059 A 
ATOM     13  H   UNL     1      26.961   2.082  49.926  0.00  0.00    +0.000 HD
ATOM     14  H   UNL     1      27.378   7.973  47.004  0.00  0.00    +0.000 HD
ENDROOT
BRANCH   1  20
ATOM     15  C   UNL     1      29.086   0.815  54.741  0.00  0.00    -0.040 C 
ATOM     16  C   UNL     1      27.890   0.687  53.844  0.00  0.00    -0.049 A 
ATOM     17  C   UNL     1      26.959  -0.341  54.051  0.00  0.00    -0.059 A 
ATOM     18  C   UNL     1      25.874  -0.491  53.185  0.00  0.00    -0.060 A 
ATOM     19  C   UNL     1      25.711   0.380  52.105  0.00  0.00    -0.040 A 
ATOM     20  C   UNL     1      26.631   1.416  51.884  0.00  0.00    +0.033 A 
ATOM     21  C   UNL     1      27.735   1.550  52.746  0.00  0.00    -0.038 A 
ENDBRANCH   1  20
BRANCH   9  22
ATOM     22  C   UNL     1      25.615   9.086  47.375  0.00  0.00    +0.012 C 
BRANCH  22  23
ATOM     23  C   UNL     1      26.169  10.357  48.038  0.00  0.00    -0.025 C 
BRANCH  23  24
ATOM     24  C   UNL     1      26.776  10.099  49.429  0.00  0.00    +0.000 C 
BRANCH  24  25
ATOM     25  N   UNL     1      28.176  10.572  49.506  0.00  0.00    -0.298 N 
ATOM     26  C   UNL     1      28.430  11.613  48.489  0.00  0.00    +0.022 C 
ATOM     27  C   UNL     1      29.934  11.939  48.392  0.00  0.00    +0.060 C 
ATOM     28  O   UNL     1      30.638  11.407  49.496  0.00  0.00    -0.377 OA
ATOM     29  C   UNL     1      30.581   9.992  49.461  0.00  0.00    +0.060 C 
ATOM     30  C   UNL     1      29.136   9.465  49.338  0.00  0.00    +0.022 C 
ATOM     31  H   UNL     1      28.310  10.970  50.435  0.00  0.00    +0.000 HD
ENDBRANCH  24  25
ENDBRANCH  23  24
ENDBRANCH  22  23
ENDBRANCH   9  22
TORSDOF 5
ENDMDL
MODEL 9
REMARK VINA RESULT:    -7.671      2.992      3.933
REMARK INTER + INTRA:         -10.521
REMARK INTER:                  -9.635
REMARK INTRA:                  -0.886
REMARK UNBOUND:                -0.608
REMARK  Name = 
REMARK  6 active torsions:
REMARK  status: ('A' for Active; 'I' for Inactive)
REMARK    1  A    between atoms: C_1  and  C_2
REMARK    2  A    between atoms: C_6  and  N_7
REMARK    3  A    between atoms: N_15  and  C_16
REMARK    4  A    between atoms: C_16  and  C_17
REMARK    5  A    between atoms: C_17  and  C_18
REMARK    6  A    between atoms: C_18  and  N_19
REMARK                            x       y       z     vdW  Elec       q    Type
REMARK                         _______ _______ _______ _____ _____    ______ ____
ROOT
ATOM      1  N   UNL     1      25.319   0.864  53.821  0.00  0.00    -0.299 N 
ATOM      2  C   UNL     1      24.499   1.198  52.685  0.00  0.00    +0.135 A 
ATOM      3  N   UNL     1      25.018   1.971  51.693  0.00  0.00    -0.220 NA
ATOM      4  C   UNL     1      24.273   2.355  50.624  0.00  0.00    +0.119 A 
ATOM      5  N   UNL     1      22.974   1.978  50.530  0.00  0.00    -0.235 NA
ATOM      6  C   UNL     1      22.396   1.210  51.489  0.00  0.00    +0.081 A 
ATOM      7  C   UNL     1      21.058   0.830  51.365  0.00  0.00    +0.004 A 
ATOM      8  C   UNL     1      20.473   0.020  52.355  0.00  0.00    +0.121 A 
ATOM      9  N   UNL     1      19.101  -0.399  52.280  0.00  0.00    -0.329 N 
ATOM     10  N   UNL     1      21.228  -0.387  53.411  0.00  0.00    -0.240 NA
ATOM     11  C   UNL     1      22.532  -0.033  53.560  0.00  0.00    +0.042 A 
ATOM     12  C   UNL     1      23.150   0.790  52.604  0.00  0.00    +0.059 A 
ATOM     13  H   UNL     1      24.879   0.734  54.692  0.00  0.00    +0.000 HD
ATOM     14  H   UNL     1      18.758  -1.004  52.977  0.00  0.00    +0.000 HD
ENDROOT
BRANCH   1  20
ATOM     15  C   UNL     1      29.363  -2.026  53.295  0.00  0.00    -0.040 C 
ATOM     16  C   UNL     1      28.737  -0.675  53.482  0.00  0.00    -0.049 A 
ATOM     17  C   UNL     1      29.543   0.456  53.674  0.00  0.00    -0.059 A 
ATOM     18  C   UNL     1      28.960   1.704  53.899  0.00  0.00    -0.060 A 
ATOM     19  C   UNL     1      27.570   1.833  53.939  0.00  0.00    -0.040 A 
ATOM     20  C   UNL     1      26.747   0.713  53.747  0.00  0.00    +0.033 A 
ATOM     21  C   UNL     1      27.340  -0.547  53.542  0.00  0.00    -0.038 A 
ENDBRANCH   1  20
BRANCH   9  22
ATOM     22  C   UNL     1      18.184   0.028  51.219  0.00  0.00    +0.012 C 
BRANCH  22  23
ATOM     23  C   UNL     1      17.480   1.349  51.568  0.00  0.00    -0.025 C 
BRANCH  23  24
ATOM     24  C   UNL     1      17.320   2.288  50.359  0.00  0.00    +0.000 C 
BRANCH  24  25
ATOM     25  N   UNL     1      18.554   3.066  50.108  0.00  0.00    -0.298 N 
ATOM     26  C   UNL     1      18.295   4.513  50.250  0.00  0.00    +0.022 C 
ATOM     27  C   UNL     1      19.496   5.343  49.755  0.00  0.00    +0.060 C 
ATOM     28  O   UNL     1      20.640   4.529  49.594  0.00  0.00    -0.377 OA
ATOM     29  C   UNL     1      20.414   3.586  48.561  0.00  0.00    +0.060 C 
ATOM     30  C   UNL     1      19.111   2.787  48.770  0.00  0.00    +0.022 C 
ATOM     31  H   UNL     1      19.241   2.777  50.804  0.00  0.00    +0.000 HD
ENDBRANCH  24  25
ENDBRANCH  23  24
ENDBRANCH  22  23
ENDBRANCH   9  22
TORSDOF 5
ENDMDL
