MODEL 1
REMARK VINA RESULT:    -9.482      0.000      0.000
REMARK INTER + INTRA:         -15.483
REMARK INTER:                 -13.917
REMARK INTRA:                  -1.566
REMARK UNBOUND:                -1.566
REMARK  Name = 
REMARK  9 active torsions:
REMARK  status: ('A' for Active; 'I' for Inactive)
REMARK    1  A    between atoms: C_1  and  S_2
REMARK    2  A    between atoms: S_2  and  C_5
REMARK    3  A    between atoms: C_5  and  C_6
REMARK    4  A    between atoms: C_6  and  N_7
REMARK    5  A    between atoms: C_10  and  C_11
REMARK    6  A    between atoms: N_19  and  C_20
REMARK    7  A    between atoms: C_23  and  O_24
REMARK    8  A    between atoms: O_24  and  C_25
REMARK    9  A    between atoms: C_25  and  C_26
REMARK                            x       y       z     vdW  Elec       q    Type
REMARK                         _______ _______ _______ _____ _____    ______ ____
ROOT
ATOM      1  C   UNL     1      22.256   0.914  51.377  0.00  0.00    +0.002 A 
ATOM      2  C   UNL     1      21.151   0.513  50.605  0.00  0.00    -0.051 A 
ATOM      3  C   UNL     1      20.837   1.169  49.414  0.00  0.00    -0.035 A 
ATOM      4  C   UNL     1      21.611   2.248  48.980  0.00  0.00    +0.076 A 
ATOM      5  N   UNL     1      21.305   2.868  47.811  0.00  0.00    -0.235 NA
ATOM      6  C   UNL     1      22.039   3.915  47.365  0.00  0.00    +0.119 A 
ATOM      7  N   UNL     1      23.091   4.369  48.091  0.00  0.00    -0.220 NA
ATOM      8  C   UNL     1      23.451   3.791  49.269  0.00  0.00    +0.134 A 
ATOM      9  N   UNL     1      24.539   4.353  50.023  0.00  0.00    -0.299 N 
ATOM     10  C   UNL     1      22.708   2.689  49.751  0.00  0.00    +0.041 A 
ATOM     11  C   UNL     1      23.031   2.009  50.942  0.00  0.00    -0.040 A 
ATOM     12  H   UNL     1      24.509   4.292  51.005  0.00  0.00    +0.000 HD
ENDROOT
BRANCH   1  16
ATOM     13  N   UNL     1      25.171  -1.098  54.797  0.00  0.00    -0.322 N 
ATOM     14  C   UNL     1      23.940  -0.714  54.177  0.00  0.00    +0.159 A 
ATOM     15  N   UNL     1      23.865  -0.047  53.005  0.00  0.00    -0.225 NA
ATOM     16  C   UNL     1      22.575   0.192  52.635  0.00  0.00    +0.080 A 
ATOM     17  C   UNL     1      21.618  -0.287  53.538  0.00  0.00    +0.005 A 
ATOM     18  S   UNL     1      22.423  -1.028  54.817  0.00  0.00    -0.060 S 
ATOM     19  H   UNL     1      25.140  -1.552  55.670  0.00  0.00    +0.000 HD
BRANCH  13  20
ATOM     20  C   UNL     1      26.473  -0.840  54.184  0.00  0.00    +0.030 C 
BRANCH  20  21
ATOM     21  C   UNL     1      27.108   0.439  54.742  0.00  0.00    +0.081 C 
BRANCH  21  23
ATOM     22  C   UNL     1      26.886   1.128  51.927  0.00  0.00    +0.055 C 
ATOM     23  S   UNL     1      27.030   1.789  53.572  0.00  0.00    -0.032 S 
ATOM     24  O   UNL     1      28.279   2.619  53.660  0.00  0.00    -0.175 OA
ATOM     25  O   UNL     1      25.834   2.651  53.864  0.00  0.00    -0.175 OA
ENDBRANCH  21  23
ENDBRANCH  20  21
ENDBRANCH  13  20
ENDBRANCH   1  16
BRANCH   9  26
ATOM     26  C   UNL     1      25.671   4.998  49.411  0.00  0.00    +0.034 A 
ATOM     27  C   UNL     1      26.857   4.296  49.149  0.00  0.00    -0.037 A 
ATOM     28  C   UNL     1      27.951   4.945  48.571  0.00  0.00    -0.017 A 
ATOM     29  C   UNL     1      27.880   6.314  48.249  0.00  0.00    +0.139 A 
ATOM     30  C   UNL     1      26.701   7.020  48.535  0.00  0.00    +0.084 A 
ATOM     31 CL   UNL     1      26.577   8.732  48.158  0.00  0.00    -0.080 Cl
ATOM     32  C   UNL     1      25.609   6.368  49.116  0.00  0.00    -0.019 A 
BRANCH  29  33
ATOM     33  O   UNL     1      28.951   7.004  47.656  0.00  0.00    -0.486 OA
BRANCH  33  34
ATOM     34  C   UNL     1      30.246   7.174  48.233  0.00  0.00    +0.115 C 
BRANCH  34  35
ATOM     35  C   UNL     1      30.626   8.631  48.275  0.00  0.00    -0.010 A 
ATOM     36  C   UNL     1      31.694   9.102  47.492  0.00  0.00    -0.055 A 
ATOM     37  C   UNL     1      32.046  10.454  47.523  0.00  0.00    -0.061 A 
ATOM     38  C   UNL     1      31.333  11.346  48.328  0.00  0.00    -0.062 A 
ATOM     39  C   UNL     1      30.262  10.887  49.101  0.00  0.00    -0.061 A 
ATOM     40  C   UNL     1      29.906   9.536  49.073  0.00  0.00    -0.055 A 
ENDBRANCH  34  35
ENDBRANCH  33  34
ENDBRANCH  29  33
ENDBRANCH   9  26
TORSDOF 8
ENDMDL
MODEL 2
REMARK VINA RESULT:    -9.124      3.164      5.582
REMARK INTER + INTRA:         -14.957
REMARK INTER:                 -13.380
REMARK INTRA:                  -1.577
REMARK UNBOUND:                -1.566
REMARK  Name = 
REMARK  9 active torsions:
REMARK  status: ('A' for Active; 'I' for Inactive)
REMARK    1  A    between atoms: C_1  and  S_2
REMARK    2  A    between atoms: S_2  and  C_5
REMARK    3  A    between atoms: C_5  and  C_6
REMARK    4  A    between atoms: C_6  and  N_7
REMARK    5  A    between atoms: C_10  and  C_11
REMARK    6  A    between atoms: N_19  and  C_20
REMARK    7  A    between atoms: C_23  and  O_24
REMARK    8  A    between atoms: O_24  and  C_25
REMARK    9  A    between atoms: C_25  and  C_26
REMARK                            x       y       z     vdW  Elec       q    Type
REMARK                         _______ _______ _______ _____ _____    ______ ____
ROOT
ATOM      1  C   UNL     1      20.933  -0.488  53.294  0.00  0.00    +0.002 A 
ATOM      2  C   UNL     1      21.421  -1.249  54.371  0.00  0.00    -0.051 A 
ATOM      3  C   UNL     1      22.771  -1.210  54.719  0.00  0.00    -0.035 A 
ATOM      4  C   UNL     1      23.663  -0.422  53.988  0.00  0.00    +0.076 A 
ATOM      5  N   UNL     1      24.972  -0.380  54.347  0.00  0.00    -0.235 NA
ATOM      6  C   UNL     1      25.859   0.378  53.657  0.00  0.00    +0.119 A 
ATOM      7  N   UNL     1      25.451   1.099  52.584  0.00  0.00    -0.220 NA
ATOM      8  C   UNL     1      24.153   1.101  52.175  0.00  0.00    +0.134 A 
ATOM      9  N   UNL     1      23.790   1.841  50.996  0.00  0.00    -0.299 N 
ATOM     10  C   UNL     1      23.205   0.329  52.885  0.00  0.00    +0.041 A 
ATOM     11  C   UNL     1      21.836   0.300  52.552  0.00  0.00    -0.040 A 
ATOM     12  H   UNL     1      23.056   1.499  50.436  0.00  0.00    +0.000 HD
ENDROOT
BRANCH   1  16
ATOM     13  N   UNL     1      16.846   0.717  50.827  0.00  0.00    -0.322 N 
ATOM     14  C   UNL     1      17.644   0.036  51.800  0.00  0.00    +0.159 A 
ATOM     15  N   UNL     1      18.971   0.230  51.953  0.00  0.00    -0.225 NA
ATOM     16  C   UNL     1      19.489  -0.539  52.952  0.00  0.00    +0.080 A 
ATOM     17  C   UNL     1      18.552  -1.361  53.590  0.00  0.00    +0.005 A 
ATOM     18  S   UNL     1      17.049  -1.101  52.879  0.00  0.00    -0.060 S 
ATOM     19  H   UNL     1      15.890   0.493  50.757  0.00  0.00    +0.000 HD
BRANCH  13  20
ATOM     20  C   UNL     1      17.397   1.733  49.932  0.00  0.00    +0.030 C 
BRANCH  20  21
ATOM     21  C   UNL     1      17.522   3.088  50.636  0.00  0.00    +0.081 C 
BRANCH  21  23
ATOM     22  C   UNL     1      20.190   2.690  49.555  0.00  0.00    +0.055 C 
ATOM     23  S   UNL     1      19.213   3.669  50.672  0.00  0.00    -0.032 S 
ATOM     24  O   UNL     1      19.773   3.537  52.060  0.00  0.00    -0.175 OA
ATOM     25  O   UNL     1      19.268   5.110  50.246  0.00  0.00    -0.175 OA
ENDBRANCH  21  23
ENDBRANCH  20  21
ENDBRANCH  13  20
ENDBRANCH   1  16
BRANCH   9  26
ATOM     26  C   UNL     1      24.447   3.056  50.595  0.00  0.00    +0.034 A 
ATOM     27  C   UNL     1      25.636   3.031  49.847  0.00  0.00    -0.037 A 
ATOM     28  C   UNL     1      26.268   4.222  49.482  0.00  0.00    -0.017 A 
ATOM     29  C   UNL     1      25.725   5.464  49.865  0.00  0.00    +0.139 A 
ATOM     30  C   UNL     1      24.551   5.487  50.632  0.00  0.00    +0.084 A 
ATOM     31 CL   UNL     1      23.848   7.016  51.138  0.00  0.00    -0.080 Cl
ATOM     32  C   UNL     1      23.921   4.292  50.998  0.00  0.00    -0.019 A 
BRANCH  29  33
ATOM     33  O   UNL     1      26.321   6.686  49.510  0.00  0.00    -0.486 OA
BRANCH  33  34
ATOM     34  C   UNL     1      26.905   6.984  48.241  0.00  0.00    +0.115 C 
BRANCH  34  35
ATOM     35  C   UNL     1      28.407   7.036  48.342  0.00  0.00    -0.010 A 
ATOM     36  C   UNL     1      29.044   8.218  48.755  0.00  0.00    -0.055 A 
ATOM     37  C   UNL     1      30.437   8.269  48.857  0.00  0.00    -0.061 A 
ATOM     38  C   UNL     1      31.203   7.141  48.554  0.00  0.00    -0.062 A 
ATOM     39  C   UNL     1      30.576   5.958  48.153  0.00  0.00    -0.061 A 
ATOM     40  C   UNL     1      29.184   5.902  48.051  0.00  0.00    -0.055 A 
ENDBRANCH  34  35
ENDBRANCH  33  34
ENDBRANCH  29  33
ENDBRANCH   9  26
TORSDOF 8
ENDMDL
MODEL 3
REMARK VINA RESULT:    -9.052      4.077      6.458
REMARK INTER + INTRA:         -14.852
REMARK INTER:                 -13.304
REMARK INTRA:                  -1.548
REMARK UNBOUND:                -1.566
REMARK  Name = 
REMARK  9 active torsions:
REMARK  status: ('A' for Active; 'I' for Inactive)
REMARK    1  A    between atoms: C_1  and  S_2
REMARK    2  A    between atoms: S_2  and  C_5
REMARK    3  A    between atoms: C_5  and  C_6
REMARK    4  A    between atoms: C_6  and  N_7
REMARK    5  A    between atoms: C_10  and  C_11
REMARK    6  A    between atoms: N_19  and  C_20
REMARK    7  A    between atoms: C_23  and  O_24
REMARK    8  A    between atoms: O_24  and  C_25
REMARK    9  A    between atoms: C_25  and  C_26
REMARK                            x       y       z     vdW  Elec       q    Type
REMARK                         _______ _______ _______ _____ _____    ______ ____
ROOT
ATOM      1  C   UNL     1      20.965  -0.545  53.328  0.00  0.00    +0.002 A 
ATOM      2  C   UNL     1      21.451  -1.290  54.416  0.00  0.00    -0.051 A 
ATOM      3  C   UNL     1      22.800  -1.238  54.770  0.00  0.00    -0.035 A 
ATOM      4  C   UNL     1      23.690  -0.455  54.034  0.00  0.00    +0.076 A 
ATOM      5  N   UNL     1      24.998  -0.400  54.397  0.00  0.00    -0.235 NA
ATOM      6  C   UNL     1      25.884   0.354  53.702  0.00  0.00    +0.119 A 
ATOM      7  N   UNL     1      25.476   1.060  52.619  0.00  0.00    -0.220 NA
ATOM      8  C   UNL     1      24.180   1.050  52.204  0.00  0.00    +0.134 A 
ATOM      9  N   UNL     1      23.818   1.773  51.014  0.00  0.00    -0.299 N 
ATOM     10  C   UNL     1      23.233   0.281  52.919  0.00  0.00    +0.041 A 
ATOM     11  C   UNL     1      21.866   0.240  52.580  0.00  0.00    -0.040 A 
ATOM     12  H   UNL     1      23.089   1.420  50.455  0.00  0.00    +0.000 HD
ENDROOT
BRANCH   1  16
ATOM     13  N   UNL     1      16.872   0.645  50.863  0.00  0.00    -0.322 N 
ATOM     14  C   UNL     1      17.674  -0.040  51.830  0.00  0.00    +0.159 A 
ATOM     15  N   UNL     1      18.999   0.168  51.990  0.00  0.00    -0.225 NA
ATOM     16  C   UNL     1      19.522  -0.608  52.980  0.00  0.00    +0.080 A 
ATOM     17  C   UNL     1      18.593  -1.450  53.603  0.00  0.00    +0.005 A 
ATOM     18  S   UNL     1      17.089  -1.198  52.891  0.00  0.00    -0.060 S 
ATOM     19  H   UNL     1      15.918   0.410  50.786  0.00  0.00    +0.000 HD
BRANCH  13  20
ATOM     20  C   UNL     1      17.413   1.679  49.983  0.00  0.00    +0.030 C 
BRANCH  20  21
ATOM     21  C   UNL     1      16.673   3.009  50.164  0.00  0.00    +0.081 C 
BRANCH  21  23
ATOM     22  C   UNL     1      14.115   4.277  50.710  0.00  0.00    +0.055 C 
ATOM     23  S   UNL     1      15.058   2.780  50.897  0.00  0.00    -0.032 S 
ATOM     24  O   UNL     1      15.196   2.466  52.360  0.00  0.00    -0.175 OA
ATOM     25  O   UNL     1      14.338   1.654  50.209  0.00  0.00    -0.175 OA
ENDBRANCH  21  23
ENDBRANCH  20  21
ENDBRANCH  13  20
ENDBRANCH   1  16
BRANCH   9  26
ATOM     26  C   UNL     1      24.470   2.987  50.602  0.00  0.00    +0.034 A 
ATOM     27  C   UNL     1      25.664   2.960  49.862  0.00  0.00    -0.037 A 
ATOM     28  C   UNL     1      26.291   4.150  49.486  0.00  0.00    -0.017 A 
ATOM     29  C   UNL     1      25.737   5.393  49.848  0.00  0.00    +0.139 A 
ATOM     30  C   UNL     1      24.558   5.419  50.608  0.00  0.00    +0.084 A 
ATOM     31 CL   UNL     1      23.842   6.950  51.089  0.00  0.00    -0.080 Cl
ATOM     32  C   UNL     1      23.934   4.225  50.985  0.00  0.00    -0.019 A 
BRANCH  29  33
ATOM     33  O   UNL     1      26.328   6.615  49.481  0.00  0.00    -0.486 OA
BRANCH  33  34
ATOM     34  C   UNL     1      26.933   6.895  48.218  0.00  0.00    +0.115 C 
BRANCH  34  35
ATOM     35  C   UNL     1      28.434   6.925  48.339  0.00  0.00    -0.010 A 
ATOM     36  C   UNL     1      29.184   5.764  48.082  0.00  0.00    -0.055 A 
ATOM     37  C   UNL     1      30.577   5.789  48.187  0.00  0.00    -0.061 A 
ATOM     38  C   UNL     1      31.232   6.971  48.543  0.00  0.00    -0.062 A 
ATOM     39  C   UNL     1      30.494   8.132  48.790  0.00  0.00    -0.061 A 
ATOM     40  C   UNL     1      29.101   8.112  48.686  0.00  0.00    -0.055 A 
ENDBRANCH  34  35
ENDBRANCH  33  34
ENDBRANCH  29  33
ENDBRANCH   9  26
TORSDOF 8
ENDMDL
MODEL 4
REMARK VINA RESULT:    -8.926      2.820      4.926
REMARK INTER + INTRA:         -14.667
REMARK INTER:                 -13.236
REMARK INTRA:                  -1.431
REMARK UNBOUND:                -1.566
REMARK  Name = 
REMARK  9 active torsions:
REMARK  status: ('A' for Active; 'I' for Inactive)
REMARK    1  A    between atoms: C_1  and  S_2
REMARK    2  A    between atoms: S_2  and  C_5
REMARK    3  A    between atoms: C_5  and  C_6
REMARK    4  A    between atoms: C_6  and  N_7
REMARK    5  A    between atoms: C_10  and  C_11
REMARK    6  A    between atoms: N_19  and  C_20
REMARK    7  A    between atoms: C_23  and  O_24
REMARK    8  A    between atoms: O_24  and  C_25
REMARK    9  A    between atoms: C_25  and  C_26
REMARK                            x       y       z     vdW  Elec       q    Type
REMARK                         _______ _______ _______ _____ _____    ______ ____
ROOT
ATOM      1  C   UNL     1      22.719   0.039  53.068  0.00  0.00    +0.002 A 
ATOM      2  C   UNL     1      23.452  -0.698  54.015  0.00  0.00    -0.051 A 
ATOM      3  C   UNL     1      24.822  -0.490  54.177  0.00  0.00    -0.035 A 
ATOM      4  C   UNL     1      25.488   0.448  53.385  0.00  0.00    +0.076 A 
ATOM      5  N   UNL     1      26.819   0.654  53.563  0.00  0.00    -0.235 NA
ATOM      6  C   UNL     1      27.491   1.559  52.811  0.00  0.00    +0.119 A 
ATOM      7  N   UNL     1      26.842   2.268  51.855  0.00  0.00    -0.220 NA
ATOM      8  C   UNL     1      25.509   2.111  51.628  0.00  0.00    +0.134 A 
ATOM      9  N   UNL     1      24.887   2.849  50.562  0.00  0.00    -0.299 N 
ATOM     10  C   UNL     1      24.782   1.182  52.407  0.00  0.00    +0.041 A 
ATOM     11  C   UNL     1      23.395   0.980  52.264  0.00  0.00    -0.040 A 
ATOM     12  H   UNL     1      24.130   2.436  50.087  0.00  0.00    +0.000 HD
ENDROOT
BRANCH   1  16
ATOM     13  N   UNL     1      18.259   0.537  51.042  0.00  0.00    -0.322 N 
ATOM     14  C   UNL     1      19.238   0.056  51.969  0.00  0.00    +0.159 A 
ATOM     15  N   UNL     1      20.544   0.398  51.927  0.00  0.00    -0.225 NA
ATOM     16  C   UNL     1      21.259  -0.194  52.924  0.00  0.00    +0.080 A 
ATOM     17  C   UNL     1      20.504  -1.025  53.760  0.00  0.00    +0.005 A 
ATOM     18  S   UNL     1      18.907  -1.000  53.228  0.00  0.00    -0.060 S 
ATOM     19  H   UNL     1      17.333   0.212  51.121  0.00  0.00    +0.000 HD
BRANCH  13  20
ATOM     20  C   UNL     1      18.582   1.490  49.983  0.00  0.00    +0.030 C 
BRANCH  20  21
ATOM     21  C   UNL     1      18.342   2.934  50.439  0.00  0.00    +0.081 C 
BRANCH  21  23
ATOM     22  C   UNL     1      21.136   3.077  49.651  0.00  0.00    +0.055 C 
ATOM     23  S   UNL     1      19.874   3.831  50.651  0.00  0.00    -0.032 S 
ATOM     24  O   UNL     1      20.299   3.790  52.092  0.00  0.00    -0.175 OA
ATOM     25  O   UNL     1      19.693   5.261  50.224  0.00  0.00    -0.175 OA
ENDBRANCH  21  23
ENDBRANCH  20  21
ENDBRANCH  13  20
ENDBRANCH   1  16
BRANCH   9  26
ATOM     26  C   UNL     1      25.315   4.161  50.158  0.00  0.00    +0.034 A 
ATOM     27  C   UNL     1      26.439   4.341  49.335  0.00  0.00    -0.037 A 
ATOM     28  C   UNL     1      26.849   5.625  48.968  0.00  0.00    -0.017 A 
ATOM     29  C   UNL     1      26.145   6.756  49.423  0.00  0.00    +0.139 A 
ATOM     30  C   UNL     1      25.037   6.576  50.265  0.00  0.00    +0.084 A 
ATOM     31 CL   UNL     1      24.139   7.963  50.862  0.00  0.00    -0.080 Cl
ATOM     32  C   UNL     1      24.630   5.289  50.633  0.00  0.00    -0.019 A 
BRANCH  29  33
ATOM     33  O   UNL     1      26.516   8.065  49.069  0.00  0.00    -0.486 OA
BRANCH  33  34
ATOM     34  C   UNL     1      27.174   8.998  49.926  0.00  0.00    +0.115 C 
BRANCH  34  35
ATOM     35  C   UNL     1      28.441   9.507  49.290  0.00  0.00    -0.010 A 
ATOM     36  C   UNL     1      29.552   8.657  49.159  0.00  0.00    -0.055 A 
ATOM     37  C   UNL     1      30.729   9.123  48.564  0.00  0.00    -0.061 A 
ATOM     38  C   UNL     1      30.802  10.435  48.089  0.00  0.00    -0.062 A 
ATOM     39  C   UNL     1      29.696  11.283  48.206  0.00  0.00    -0.061 A 
ATOM     40  C   UNL     1      28.518  10.822  48.800  0.00  0.00    -0.055 A 
ENDBRANCH  34  35
ENDBRANCH  33  34
ENDBRANCH  29  33
ENDBRANCH   9  26
TORSDOF 8
ENDMDL
MODEL 5
REMARK VINA RESULT:    -8.876      2.267      2.679
REMARK INTER + INTRA:         -14.593
REMARK INTER:                 -13.467
REMARK INTRA:                  -1.126
REMARK UNBOUND:                -1.566
REMARK  Name = 
REMARK  9 active torsions:
REMARK  status: ('A' for Active; 'I' for Inactive)
REMARK    1  A    between atoms: C_1  and  S_2
REMARK    2  A    between atoms: S_2  and  C_5
REMARK    3  A    between atoms: C_5  and  C_6
REMARK    4  A    between atoms: C_6  and  N_7
REMARK    5  A    between atoms: C_10  and  C_11
REMARK    6  A    between atoms: N_19  and  C_20
REMARK    7  A    between atoms: C_23  and  O_24
REMARK    8  A    between atoms: O_24  and  C_25
REMARK    9  A    between atoms: C_25  and  C_26
REMARK                            x       y       z     vdW  Elec       q    Type
REMARK                         _______ _______ _______ _____ _____    ______ ____
ROOT
ATOM      1  C   UNL     1      20.917   2.285  52.363  0.00  0.00    +0.002 A 
ATOM      2  C   UNL     1      19.597   2.275  51.878  0.00  0.00    -0.051 A 
ATOM      3  C   UNL     1      19.119   3.322  51.089  0.00  0.00    -0.035 A 
ATOM      4  C   UNL     1      19.945   4.406  50.784  0.00  0.00    +0.076 A 
ATOM      5  N   UNL     1      19.473   5.412  50.002  0.00  0.00    -0.235 NA
ATOM      6  C   UNL     1      20.253   6.474  49.688  0.00  0.00    +0.119 A 
ATOM      7  N   UNL     1      21.520   6.555  50.163  0.00  0.00    -0.220 NA
ATOM      8  C   UNL     1      22.053   5.580  50.950  0.00  0.00    +0.134 A 
ATOM      9  N   UNL     1      23.383   5.748  51.471  0.00  0.00    -0.299 N 
ATOM     10  C   UNL     1      21.264   4.455  51.282  0.00  0.00    +0.041 A 
ATOM     11  C   UNL     1      21.747   3.384  52.061  0.00  0.00    -0.040 A 
ATOM     12  H   UNL     1      23.593   5.361  52.352  0.00  0.00    +0.000 HD
ENDROOT
BRANCH   1  16
ATOM     13  N   UNL     1      24.249  -0.836  54.206  0.00  0.00    -0.322 N 
ATOM     14  C   UNL     1      22.956  -0.253  54.013  0.00  0.00    +0.159 A 
ATOM     15  N   UNL     1      22.720   0.796  53.197  0.00  0.00    -0.225 NA
ATOM     16  C   UNL     1      21.405   1.152  53.191  0.00  0.00    +0.080 A 
ATOM     17  C   UNL     1      20.593   0.374  54.025  0.00  0.00    +0.005 A 
ATOM     18  S   UNL     1      21.559  -0.783  54.773  0.00  0.00    -0.060 S 
ATOM     19  H   UNL     1      24.343  -1.579  54.846  0.00  0.00    +0.000 HD
BRANCH  13  20
ATOM     20  C   UNL     1      25.436  -0.370  53.492  0.00  0.00    +0.030 C 
BRANCH  20  21
ATOM     21  C   UNL     1      26.192   0.691  54.299  0.00  0.00    +0.081 C 
BRANCH  21  23
ATOM     22  C   UNL     1      28.521   2.300  53.638  0.00  0.00    +0.055 C 
ATOM     23  S   UNL     1      27.950   0.649  53.975  0.00  0.00    -0.032 S 
ATOM     24  O   UNL     1      28.234  -0.222  52.784  0.00  0.00    -0.175 OA
ATOM     25  O   UNL     1      28.679   0.110  55.175  0.00  0.00    -0.175 OA
ENDBRANCH  21  23
ENDBRANCH  20  21
ENDBRANCH  13  20
ENDBRANCH   1  16
BRANCH   9  26
ATOM     26  C   UNL     1      24.421   6.453  50.768  0.00  0.00    +0.034 A 
ATOM     27  C   UNL     1      24.489   7.856  50.781  0.00  0.00    -0.037 A 
ATOM     28  C   UNL     1      25.495   8.522  50.078  0.00  0.00    -0.017 A 
ATOM     29  C   UNL     1      26.452   7.797  49.342  0.00  0.00    +0.139 A 
ATOM     30  C   UNL     1      26.368   6.397  49.311  0.00  0.00    +0.084 A 
ATOM     31 CL   UNL     1      27.537   5.456  48.396  0.00  0.00    -0.080 Cl
ATOM     32  C   UNL     1      25.358   5.732  50.014  0.00  0.00    -0.019 A 
BRANCH  29  33
ATOM     33  O   UNL     1      27.487   8.426  48.630  0.00  0.00    -0.486 OA
BRANCH  33  34
ATOM     34  C   UNL     1      28.813   8.641  49.116  0.00  0.00    +0.115 C 
BRANCH  34  35
ATOM     35  C   UNL     1      29.177  10.101  49.046  0.00  0.00    -0.010 A 
ATOM     36  C   UNL     1      28.171  11.071  48.906  0.00  0.00    -0.055 A 
ATOM     37  C   UNL     1      28.504  12.428  48.847  0.00  0.00    -0.061 A 
ATOM     38  C   UNL     1      29.841  12.825  48.933  0.00  0.00    -0.062 A 
ATOM     39  C   UNL     1      30.847  11.866  49.084  0.00  0.00    -0.061 A 
ATOM     40  C   UNL     1      30.518  10.509  49.144  0.00  0.00    -0.055 A 
ENDBRANCH  34  35
ENDBRANCH  33  34
ENDBRANCH  29  33
ENDBRANCH   9  26
TORSDOF 8
ENDMDL
MODEL 6
REMARK VINA RESULT:    -8.580      3.479      5.779
REMARK INTER + INTRA:         -14.158
REMARK INTER:                 -12.851
REMARK INTRA:                  -1.307
REMARK UNBOUND:                -1.566
REMARK  Name = 
REMARK  9 active torsions:
REMARK  status: ('A' for Active; 'I' for Inactive)
REMARK    1  A    between atoms: C_1  and  S_2
REMARK    2  A    between atoms: S_2  and  C_5
REMARK    3  A    between atoms: C_5  and  C_6
REMARK    4  A    between atoms: C_6  and  N_7
REMARK    5  A    between atoms: C_10  and  C_11
REMARK    6  A    between atoms: N_19  and  C_20
REMARK    7  A    between atoms: C_23  and  O_24
REMARK    8  A    between atoms: O_24  and  C_25
REMARK    9  A    between atoms: C_25  and  C_26
REMARK                            x       y       z     vdW  Elec       q    Type
REMARK                         _______ _______ _______ _____ _____    ______ ____
ROOT
ATOM      1  C   UNL     1      20.478  -0.465  53.093  0.00  0.00    +0.002 A 
ATOM      2  C   UNL     1      20.956  -1.345  54.079  0.00  0.00    -0.051 A 
ATOM      3  C   UNL     1      22.305  -1.355  54.433  0.00  0.00    -0.035 A 
ATOM      4  C   UNL     1      23.206  -0.498  53.797  0.00  0.00    +0.076 A 
ATOM      5  N   UNL     1      24.514  -0.505  54.161  0.00  0.00    -0.235 NA
ATOM      6  C   UNL     1      25.409   0.317  53.563  0.00  0.00    +0.119 A 
ATOM      7  N   UNL     1      25.009   1.157  52.576  0.00  0.00    -0.220 NA
ATOM      8  C   UNL     1      23.713   1.215  52.166  0.00  0.00    +0.134 A 
ATOM      9  N   UNL     1      23.360   2.084  51.075  0.00  0.00    -0.299 N 
ATOM     10  C   UNL     1      22.757   0.375  52.783  0.00  0.00    +0.041 A 
ATOM     11  C   UNL     1      21.389   0.394  52.445  0.00  0.00    -0.040 A 
ATOM     12  H   UNL     1      22.625   1.812  50.479  0.00  0.00    +0.000 HD
ENDROOT
BRANCH   1  16
ATOM     13  N   UNL     1      16.399   1.073  50.804  0.00  0.00    -0.322 N 
ATOM     14  C   UNL     1      17.194   0.263  51.676  0.00  0.00    +0.159 A 
ATOM     15  N   UNL     1      18.520   0.433  51.858  0.00  0.00    -0.225 NA
ATOM     16  C   UNL     1      19.034  -0.467  52.743  0.00  0.00    +0.080 A 
ATOM     17  C   UNL     1      18.095  -1.367  53.260  0.00  0.00    +0.005 A 
ATOM     18  S   UNL     1      16.594  -1.010  52.588  0.00  0.00    -0.060 S 
ATOM     19  H   UNL     1      15.442   0.861  50.701  0.00  0.00    +0.000 HD
BRANCH  13  20
ATOM     20  C   UNL     1      16.953   2.201  50.058  0.00  0.00    +0.030 C 
BRANCH  20  21
ATOM     21  C   UNL     1      17.412   3.321  50.998  0.00  0.00    +0.081 C 
BRANCH  21  23
ATOM     22  C   UNL     1      19.798   2.755  49.439  0.00  0.00    +0.055 C 
ATOM     23  S   UNL     1      19.081   3.852  50.641  0.00  0.00    -0.032 S 
ATOM     24  O   UNL     1      19.911   3.817  51.894  0.00  0.00    -0.175 OA
ATOM     25  O   UNL     1      19.067   5.250  50.089  0.00  0.00    -0.175 OA
ENDBRANCH  21  23
ENDBRANCH  20  21
ENDBRANCH  13  20
ENDBRANCH   1  16
BRANCH   9  26
ATOM     26  C   UNL     1      24.027   3.331  50.814  0.00  0.00    +0.034 A 
ATOM     27  C   UNL     1      23.505   4.549  51.277  0.00  0.00    -0.037 A 
ATOM     28  C   UNL     1      24.159   5.752  50.998  0.00  0.00    -0.017 A 
ATOM     29  C   UNL     1      25.347   5.759  50.243  0.00  0.00    +0.139 A 
ATOM     30  C   UNL     1      25.855   4.543  49.761  0.00  0.00    +0.084 A 
ATOM     31 CL   UNL     1      27.331   4.511  48.807  0.00  0.00    -0.080 Cl
ATOM     32  C   UNL     1      25.197   3.340  50.040  0.00  0.00    -0.019 A 
BRANCH  29  33
ATOM     33  O   UNL     1      26.044   6.943  49.948  0.00  0.00    -0.486 OA
BRANCH  33  34
ATOM     34  C   UNL     1      25.450   8.229  49.770  0.00  0.00    +0.115 C 
BRANCH  34  35
ATOM     35  C   UNL     1      26.484   9.242  49.352  0.00  0.00    -0.010 A 
ATOM     36  C   UNL     1      27.844   9.009  49.614  0.00  0.00    -0.055 A 
ATOM     37  C   UNL     1      28.807   9.943  49.223  0.00  0.00    -0.061 A 
ATOM     38  C   UNL     1      28.421  11.112  48.562  0.00  0.00    -0.062 A 
ATOM     39  C   UNL     1      27.071  11.347  48.288  0.00  0.00    -0.061 A 
ATOM     40  C   UNL     1      26.104  10.415  48.677  0.00  0.00    -0.055 A 
ENDBRANCH  34  35
ENDBRANCH  33  34
ENDBRANCH  29  33
ENDBRANCH   9  26
TORSDOF 8
ENDMDL
MODEL 7
REMARK VINA RESULT:    -8.493      4.947      6.992
REMARK INTER + INTRA:         -14.030
REMARK INTER:                 -12.600
REMARK INTRA:                  -1.430
REMARK UNBOUND:                -1.566
REMARK  Name = 
REMARK  9 active torsions:
REMARK  status: ('A' for Active; 'I' for Inactive)
REMARK    1  A    between atoms: C_1  and  S_2
REMARK    2  A    between atoms: S_2  and  C_5
REMARK    3  A    between atoms: C_5  and  C_6
REMARK    4  A    between atoms: C_6  and  N_7
REMARK    5  A    between atoms: C_10  and  C_11
REMARK    6  A    between atoms: N_19  and  C_20
REMARK    7  A    between atoms: C_23  and  O_24
REMARK    8  A    between atoms: O_24  and  C_25
REMARK    9  A    between atoms: C_25  and  C_26
REMARK                            x       y       z     vdW  Elec       q    Type
REMARK                         _______ _______ _______ _____ _____    ______ ____
ROOT
ATOM      1  C   UNL     1      19.543   0.436  51.869  0.00  0.00    +0.002 A 
ATOM      2  C   UNL     1      19.682  -0.406  52.987  0.00  0.00    -0.051 A 
ATOM      3  C   UNL     1      20.925  -0.586  53.594  0.00  0.00    -0.035 A 
ATOM      4  C   UNL     1      22.056   0.058  53.085  0.00  0.00    +0.076 A 
ATOM      5  N   UNL     1      23.258  -0.112  53.694  0.00  0.00    -0.235 NA
ATOM      6  C   UNL     1      24.371   0.502  53.224  0.00  0.00    +0.119 A 
ATOM      7  N   UNL     1      24.300   1.291  52.124  0.00  0.00    -0.220 NA
ATOM      8  C   UNL     1      23.126   1.505  51.469  0.00  0.00    +0.134 A 
ATOM      9  N   UNL     1      23.125   2.306  50.275  0.00  0.00    -0.299 N 
ATOM     10  C   UNL     1      21.949   0.885  51.947  0.00  0.00    +0.041 A 
ATOM     11  C   UNL     1      20.686   1.078  51.352  0.00  0.00    -0.040 A 
ATOM     12  H   UNL     1      22.474   2.092  49.568  0.00  0.00    +0.000 HD
ENDROOT
BRANCH   1  16
ATOM     13  N   UNL     1      14.641   0.898  51.793  0.00  0.00    -0.322 N 
ATOM     14  C   UNL     1      15.966   0.829  51.255  0.00  0.00    +0.159 A 
ATOM     15  N   UNL     1      17.073   0.653  52.007  0.00  0.00    -0.225 NA
ATOM     16  C   UNL     1      18.205   0.619  51.249  0.00  0.00    +0.080 A 
ATOM     17  C   UNL     1      17.984   0.781  49.876  0.00  0.00    +0.005 A 
ATOM     18  S   UNL     1      16.330   0.963  49.625  0.00  0.00    -0.060 S 
ATOM     19  H   UNL     1      13.889   1.063  51.180  0.00  0.00    +0.000 HD
BRANCH  13  20
ATOM     20  C   UNL     1      14.363   0.735  53.219  0.00  0.00    +0.030 C 
BRANCH  20  21
ATOM     21  C   UNL     1      13.103   1.505  53.632  0.00  0.00    +0.081 C 
BRANCH  21  23
ATOM     22  C   UNL     1      12.226   4.189  54.318  0.00  0.00    +0.055 C 
ATOM     23  S   UNL     1      13.194   3.231  53.175  0.00  0.00    -0.032 S 
ATOM     24  O   UNL     1      12.651   3.425  51.787  0.00  0.00    -0.175 OA
ATOM     25  O   UNL     1      14.622   3.699  53.223  0.00  0.00    -0.175 OA
ENDBRANCH  21  23
ENDBRANCH  20  21
ENDBRANCH  13  20
ENDBRANCH   1  16
BRANCH   9  26
ATOM     26  C   UNL     1      24.028   3.406  50.062  0.00  0.00    +0.034 A 
ATOM     27  C   UNL     1      25.279   3.215  49.456  0.00  0.00    -0.037 A 
ATOM     28  C   UNL     1      26.149   4.293  49.274  0.00  0.00    -0.017 A 
ATOM     29  C   UNL     1      25.785   5.584  49.702  0.00  0.00    +0.139 A 
ATOM     30  C   UNL     1      24.543   5.768  50.330  0.00  0.00    +0.084 A 
ATOM     31 CL   UNL     1      24.056   7.362  50.888  0.00  0.00    -0.080 Cl
ATOM     32  C   UNL     1      23.676   4.686  50.513  0.00  0.00    -0.019 A 
BRANCH  29  33
ATOM     33  O   UNL     1      26.623   6.699  49.529  0.00  0.00    -0.486 OA
BRANCH  33  34
ATOM     34  C   UNL     1      27.234   7.091  48.300  0.00  0.00    +0.115 C 
BRANCH  34  35
ATOM     35  C   UNL     1      28.665   7.504  48.521  0.00  0.00    -0.010 A 
ATOM     36  C   UNL     1      28.957   8.769  49.058  0.00  0.00    -0.055 A 
ATOM     37  C   UNL     1      30.284   9.155  49.271  0.00  0.00    -0.061 A 
ATOM     38  C   UNL     1      31.327   8.280  48.957  0.00  0.00    -0.062 A 
ATOM     39  C   UNL     1      31.043   7.015  48.432  0.00  0.00    -0.061 A 
ATOM     40  C   UNL     1      29.719   6.625  48.218  0.00  0.00    -0.055 A 
ENDBRANCH  34  35
ENDBRANCH  33  34
ENDBRANCH  29  33
ENDBRANCH   9  26
TORSDOF 8
ENDMDL
MODEL 8
REMARK VINA RESULT:    -8.110      7.230     10.305
REMARK INTER + INTRA:         -13.468
REMARK INTER:                 -12.298
REMARK INTRA:                  -1.170
REMARK UNBOUND:                -1.566
REMARK  Name = 
REMARK  9 active torsions:
REMARK  status: ('A' for Active; 'I' for Inactive)
REMARK    1  A    between atoms: C_1  and  S_2
REMARK    2  A    between atoms: S_2  and  C_5
REMARK    3  A    between atoms: C_5  and  C_6
REMARK    4  A    between atoms: C_6  and  N_7
REMARK    5  A    between atoms: C_10  and  C_11
REMARK    6  A    between atoms: N_19  and  C_20
REMARK    7  A    between atoms: C_23  and  O_24
REMARK    8  A    between atoms: O_24  and  C_25
REMARK    9  A    between atoms: C_25  and  C_26
REMARK                            x       y       z     vdW  Elec       q    Type
REMARK                         _______ _______ _______ _____ _____    ______ ____
ROOT
ATOM      1  C   UNL     1      14.855   3.736  51.553  0.00  0.00    +0.002 A 
ATOM      2  C   UNL     1      14.443   4.195  50.290  0.00  0.00    -0.051 A 
ATOM      3  C   UNL     1      15.366   4.373  49.259  0.00  0.00    -0.035 A 
ATOM      4  C   UNL     1      16.721   4.111  49.476  0.00  0.00    +0.076 A 
ATOM      5  N   UNL     1      17.608   4.273  48.460  0.00  0.00    -0.235 NA
ATOM      6  C   UNL     1      18.928   4.023  48.641  0.00  0.00    +0.119 A 
ATOM      7  N   UNL     1      19.385   3.617  49.851  0.00  0.00    -0.220 NA
ATOM      8  C   UNL     1      18.548   3.434  50.909  0.00  0.00    +0.134 A 
ATOM      9  N   UNL     1      19.100   3.057  52.183  0.00  0.00    -0.299 N 
ATOM     10  C   UNL     1      17.165   3.676  50.743  0.00  0.00    +0.041 A 
ATOM     11  C   UNL     1      16.224   3.479  51.773  0.00  0.00    -0.040 A 
ATOM     12  H   UNL     1      18.651   3.375  52.999  0.00  0.00    +0.000 HD
ENDROOT
BRANCH   1  16
ATOM     13  N   UNL     1      12.124   1.185  54.759  0.00  0.00    -0.322 N 
ATOM     14  C   UNL     1      12.621   2.344  54.082  0.00  0.00    +0.159 A 
ATOM     15  N   UNL     1      13.556   2.303  53.110  0.00  0.00    -0.225 NA
ATOM     16  C   UNL     1      13.850   3.544  52.630  0.00  0.00    +0.080 A 
ATOM     17  C   UNL     1      13.139   4.582  53.244  0.00  0.00    +0.005 A 
ATOM     18  S   UNL     1      12.122   3.911  54.405  0.00  0.00    -0.060 S 
ATOM     19  H   UNL     1      11.466   1.304  55.482  0.00  0.00    +0.000 HD
BRANCH  13  20
ATOM     20  C   UNL     1      12.556  -0.169  54.418  0.00  0.00    +0.030 C 
BRANCH  20  21
ATOM     21  C   UNL     1      11.858  -0.675  53.151  0.00  0.00    +0.081 C 
BRANCH  21  23
ATOM     22  C   UNL     1      11.954  -2.465  50.863  0.00  0.00    +0.055 C 
ATOM     23  S   UNL     1      12.881  -1.822  52.237  0.00  0.00    -0.032 S 
ATOM     24  O   UNL     1      13.298  -2.961  53.125  0.00  0.00    -0.175 OA
ATOM     25  O   UNL     1      14.105  -1.117  51.721  0.00  0.00    -0.175 OA
ENDBRANCH  21  23
ENDBRANCH  20  21
ENDBRANCH  13  20
ENDBRANCH   1  16
BRANCH   9  26
ATOM     26  C   UNL     1      20.275   2.239  52.322  0.00  0.00    +0.034 A 
ATOM     27  C   UNL     1      20.191   0.838  52.330  0.00  0.00    -0.037 A 
ATOM     28  C   UNL     1      21.342   0.061  52.484  0.00  0.00    -0.017 A 
ATOM     29  C   UNL     1      22.600   0.673  52.639  0.00  0.00    +0.139 A 
ATOM     30  C   UNL     1      22.679   2.074  52.655  0.00  0.00    +0.084 A 
ATOM     31 CL   UNL     1      24.230   2.876  52.857  0.00  0.00    -0.080 Cl
ATOM     32  C   UNL     1      21.524   2.849  52.503  0.00  0.00    -0.019 A 
BRANCH  29  33
ATOM     33  O   UNL     1      23.785  -0.069  52.785  0.00  0.00    -0.486 OA
BRANCH  33  34
ATOM     34  C   UNL     1      24.349  -0.490  54.028  0.00  0.00    +0.115 C 
BRANCH  34  35
ATOM     35  C   UNL     1      25.854  -0.490  53.959  0.00  0.00    -0.010 A 
ATOM     36  C   UNL     1      26.602   0.221  54.912  0.00  0.00    -0.055 A 
ATOM     37  C   UNL     1      27.998   0.218  54.856  0.00  0.00    -0.061 A 
ATOM     38  C   UNL     1      28.658  -0.499  53.855  0.00  0.00    -0.062 A 
ATOM     39  C   UNL     1      27.921  -1.218  52.909  0.00  0.00    -0.061 A 
ATOM     40  C   UNL     1      26.524  -1.218  52.962  0.00  0.00    -0.055 A 
ENDBRANCH  34  35
ENDBRANCH  33  34
ENDBRANCH  29  33
ENDBRANCH   9  26
TORSDOF 8
ENDMDL
MODEL 9
REMARK VINA RESULT:    -8.104      3.707      5.861
REMARK INTER + INTRA:         -13.460
REMARK INTER:                 -12.451
REMARK INTRA:                  -1.009
REMARK UNBOUND:                -1.566
REMARK  Name = 
REMARK  9 active torsions:
REMARK  status: ('A' for Active; 'I' for Inactive)
REMARK    1  A    between atoms: C_1  and  S_2
REMARK    2  A    between atoms: S_2  and  C_5
REMARK    3  A    between atoms: C_5  and  C_6
REMARK    4  A    between atoms: C_6  and  N_7
REMARK    5  A    between atoms: C_10  and  C_11
REMARK    6  A    between atoms: N_19  and  C_20
REMARK    7  A    between atoms: C_23  and  O_24
REMARK    8  A    between atoms: O_24  and  C_25
REMARK    9  A    between atoms: C_25  and  C_26
REMARK                            x       y       z     vdW  Elec       q    Type
REMARK                         _______ _______ _______ _____ _____    ______ ____
ROOT
ATOM      1  C   UNL     1      22.649   0.265  52.823  0.00  0.00    +0.002 A 
ATOM      2  C   UNL     1      23.431  -0.567  53.644  0.00  0.00    -0.051 A 
ATOM      3  C   UNL     1      24.803  -0.352  53.777  0.00  0.00    -0.035 A 
ATOM      4  C   UNL     1      25.423   0.688  53.079  0.00  0.00    +0.076 A 
ATOM      5  N   UNL     1      26.757   0.897  53.229  0.00  0.00    -0.235 NA
ATOM      6  C   UNL     1      27.383   1.900  52.566  0.00  0.00    +0.119 A 
ATOM      7  N   UNL     1      26.684   2.706  51.730  0.00  0.00    -0.220 NA
ATOM      8  C   UNL     1      25.345   2.551  51.538  0.00  0.00    +0.134 A 
ATOM      9  N   UNL     1      24.669   3.400  50.595  0.00  0.00    -0.299 N 
ATOM     10  C   UNL     1      24.666   1.520  52.226  0.00  0.00    +0.041 A 
ATOM     11  C   UNL     1      23.277   1.309  52.114  0.00  0.00    -0.040 A 
ATOM     12  H   UNL     1      23.899   3.032  50.102  0.00  0.00    +0.000 HD
ENDROOT
BRANCH   1  16
ATOM     13  N   UNL     1      18.182   0.565  50.775  0.00  0.00    -0.322 N 
ATOM     14  C   UNL     1      19.164   0.179  51.742  0.00  0.00    +0.159 A 
ATOM     15  N   UNL     1      20.470   0.511  51.660  0.00  0.00    -0.225 NA
ATOM     16  C   UNL     1      21.188   0.021  52.709  0.00  0.00    +0.080 A 
ATOM     17  C   UNL     1      20.435  -0.719  53.628  0.00  0.00    +0.005 A 
ATOM     18  S   UNL     1      18.836  -0.744  53.102  0.00  0.00    -0.060 S 
ATOM     19  H   UNL     1      17.255   0.252  50.890  0.00  0.00    +0.000 HD
BRANCH  13  20
ATOM     20  C   UNL     1      18.502   1.406  49.623  0.00  0.00    +0.030 C 
BRANCH  20  21
ATOM     21  C   UNL     1      17.357   2.373  49.303  0.00  0.00    +0.081 C 
BRANCH  21  23
ATOM     22  C   UNL     1      15.561   2.132  51.576  0.00  0.00    +0.055 C 
ATOM     23  S   UNL     1      16.742   3.190  50.770  0.00  0.00    -0.032 S 
ATOM     24  O   UNL     1      16.069   4.481  50.396  0.00  0.00    -0.175 OA
ATOM     25  O   UNL     1      17.878   3.472  51.713  0.00  0.00    -0.175 OA
ENDBRANCH  21  23
ENDBRANCH  20  21
ENDBRANCH  13  20
ENDBRANCH   1  16
BRANCH   9  26
ATOM     26  C   UNL     1      25.060   4.760  50.337  0.00  0.00    +0.034 A 
ATOM     27  C   UNL     1      24.390   5.838  50.936  0.00  0.00    -0.037 A 
ATOM     28  C   UNL     1      24.775   7.152  50.659  0.00  0.00    -0.017 A 
ATOM     29  C   UNL     1      25.835   7.413  49.770  0.00  0.00    +0.139 A 
ATOM     30  C   UNL     1      26.488   6.334  49.153  0.00  0.00    +0.084 A 
ATOM     31 CL   UNL     1      27.809   6.618  48.030  0.00  0.00    -0.080 Cl
ATOM     32  C   UNL     1      26.099   5.020  49.431  0.00  0.00    -0.019 A 
BRANCH  29  33
ATOM     33  O   UNL     1      26.263   8.718  49.471  0.00  0.00    -0.486 OA
BRANCH  33  34
ATOM     34  C   UNL     1      25.801   9.509  48.375  0.00  0.00    +0.115 C 
BRANCH  34  35
ATOM     35  C   UNL     1      26.430  10.877  48.400  0.00  0.00    -0.010 A 
ATOM     36  C   UNL     1      27.790  11.020  48.723  0.00  0.00    -0.055 A 
ATOM     37  C   UNL     1      28.380  12.287  48.742  0.00  0.00    -0.061 A 
ATOM     38  C   UNL     1      27.621  13.418  48.432  0.00  0.00    -0.062 A 
ATOM     39  C   UNL     1      26.270  13.282  48.099  0.00  0.00    -0.061 A 
ATOM     40  C   UNL     1      25.676  12.018  48.078  0.00  0.00    -0.055 A 
ENDBRANCH  34  35
ENDBRANCH  33  34
ENDBRANCH  29  33
ENDBRANCH   9  26
TORSDOF 8
ENDMDL
