MODEL 1
REMARK VINA RESULT:    -5.988      0.000      0.000
REMARK INTER + INTRA:          -7.312
REMARK INTER:                  -7.038
REMARK INTRA:                  -0.274
REMARK UNBOUND:                -0.274
REMARK  Name = 
REMARK  3 active torsions:
REMARK  status: ('A' for Active; 'I' for Inactive)
REMARK    1  A    between atoms: C_2  and  C_3
REMARK    2  A    between atoms: C_3  and  C_12
REMARK    3  A    between atoms: C_4  and  C_5
REMARK                            x       y       z     vdW  Elec       q    Type
REMARK                         _______ _______ _______ _____ _____    ______ ____
ROOT
ATOM      1  C   UNL     1      23.647   0.077  53.276  0.00  0.00    +0.136 C 
ATOM      2  C   UNL     1      24.498  -0.673  54.003  0.00  0.00    -0.030 C 
ENDROOT
BRANCH   2   3
ATOM      3  C   UNL     1      25.976  -0.578  53.939  0.00  0.00    -0.023 A 
ATOM      4  C   UNL     1      26.673  -1.402  53.041  0.00  0.00    -0.052 A 
ATOM      5  C   UNL     1      28.070  -1.360  52.981  0.00  0.00    -0.026 A 
ATOM      6  C   UNL     1      28.781  -0.510  53.831  0.00  0.00    +0.123 A 
ATOM      7  F   UNL     1      30.136  -0.471  53.773  0.00  0.00    -0.205 F 
ATOM      8  C   UNL     1      28.098   0.293  54.749  0.00  0.00    -0.026 A 
ATOM      9  C   UNL     1      26.701   0.254  54.811  0.00  0.00    -0.052 A 
ENDBRANCH   2   3
BRANCH   1  10
ATOM     10  C   UNL     1      22.185  -0.094  53.423  0.00  0.00    +0.347 C 
ATOM     11  O   UNL     1      21.441  -0.094  52.404  0.00  0.00    -0.244 OA
ATOM     12  O   UNL     1      21.611  -0.252  54.683  0.00  0.00    -0.477 OA
ENDBRANCH   1  10
BRANCH   1  14
ATOM     13  N   UNL     1      24.510   1.770  51.495  0.00  0.00    -0.191 NA
ATOM     14  C   UNL     1      24.128   1.017  52.286  0.00  0.00    +0.106 C 
ENDBRANCH   1  14
TORSDOF 3
ENDMDL
MODEL 2
REMARK VINA RESULT:    -5.900      4.231      5.603
REMARK INTER + INTRA:          -7.208
REMARK INTER:                  -6.949
REMARK INTRA:                  -0.259
REMARK UNBOUND:                -0.274
REMARK  Name = 
REMARK  3 active torsions:
REMARK  status: ('A' for Active; 'I' for Inactive)
REMARK    1  A    between atoms: C_2  and  C_3
REMARK    2  A    between atoms: C_3  and  C_12
REMARK    3  A    between atoms: C_4  and  C_5
REMARK                            x       y       z     vdW  Elec       q    Type
REMARK                         _______ _______ _______ _____ _____    ______ ____
ROOT
ATOM      1  C   UNL     1      27.436  -0.485  53.752  0.00  0.00    +0.136 C 
ATOM      2  C   UNL     1      26.443   0.110  54.442  0.00  0.00    -0.030 C 
ENDROOT
BRANCH   2   3
ATOM      3  C   UNL     1      25.034  -0.350  54.461  0.00  0.00    -0.023 A 
ATOM      4  C   UNL     1      24.159   0.092  53.455  0.00  0.00    -0.052 A 
ATOM      5  C   UNL     1      22.816  -0.297  53.463  0.00  0.00    -0.026 A 
ATOM      6  C   UNL     1      22.331  -1.115  54.488  0.00  0.00    +0.123 A 
ATOM      7  F   UNL     1      21.028  -1.490  54.496  0.00  0.00    -0.205 F 
ATOM      8  C   UNL     1      23.186  -1.537  55.510  0.00  0.00    -0.026 A 
ATOM      9  C   UNL     1      24.531  -1.150  55.504  0.00  0.00    -0.052 A 
ENDBRANCH   2   3
BRANCH   1  10
ATOM     10  C   UNL     1      28.813   0.054  53.810  0.00  0.00    +0.347 C 
ATOM     11  O   UNL     1      29.029   1.190  54.314  0.00  0.00    -0.244 OA
ATOM     12  O   UNL     1      29.885  -0.681  53.306  0.00  0.00    -0.477 OA
ENDBRANCH   1  10
BRANCH   1  14
ATOM     13  N   UNL     1      26.976  -2.518  52.192  0.00  0.00    -0.191 NA
ATOM     14  C   UNL     1      27.181  -1.616  52.886  0.00  0.00    +0.106 C 
ENDBRANCH   1  14
TORSDOF 3
ENDMDL
MODEL 3
REMARK VINA RESULT:    -5.814      1.343      1.609
REMARK INTER + INTRA:          -7.107
REMARK INTER:                  -6.842
REMARK INTRA:                  -0.265
REMARK UNBOUND:                -0.274
REMARK  Name = 
REMARK  3 active torsions:
REMARK  status: ('A' for Active; 'I' for Inactive)
REMARK    1  A    between atoms: C_2  and  C_3
REMARK    2  A    between atoms: C_3  and  C_12
REMARK    3  A    between atoms: C_4  and  C_5
REMARK                            x       y       z     vdW  Elec       q    Type
REMARK                         _______ _______ _______ _____ _____    ______ ____
ROOT
ATOM      1  C   UNL     1      24.752   1.105  52.547  0.00  0.00    +0.136 C 
ATOM      2  C   UNL     1      25.220   0.118  53.336  0.00  0.00    -0.030 C 
ENDROOT
BRANCH   2   3
ATOM      3  C   UNL     1      26.654  -0.209  53.520  0.00  0.00    -0.023 A 
ATOM      4  C   UNL     1      27.206  -1.282  52.801  0.00  0.00    -0.052 A 
ATOM      5  C   UNL     1      28.547  -1.637  52.978  0.00  0.00    -0.026 A 
ATOM      6  C   UNL     1      29.342  -0.935  53.888  0.00  0.00    +0.123 A 
ATOM      7  F   UNL     1      30.642  -1.282  54.060  0.00  0.00    -0.205 F 
ATOM      8  C   UNL     1      28.795   0.116  54.629  0.00  0.00    -0.026 A 
ATOM      9  C   UNL     1      27.454   0.474  54.455  0.00  0.00    -0.052 A 
ENDBRANCH   2   3
BRANCH   1  10
ATOM     10  C   UNL     1      23.297   1.352  52.441  0.00  0.00    +0.347 C 
ATOM     11  O   UNL     1      22.844   2.525  52.547  0.00  0.00    -0.244 OA
ATOM     12  O   UNL     1      22.411   0.298  52.227  0.00  0.00    -0.477 OA
ENDBRANCH   1  10
BRANCH   1  14
ATOM     13  N   UNL     1      26.353   2.540  51.077  0.00  0.00    -0.191 NA
ATOM     14  C   UNL     1      25.641   1.904  51.730  0.00  0.00    +0.106 C 
ENDBRANCH   1  14
TORSDOF 3
ENDMDL
MODEL 4
REMARK VINA RESULT:    -5.681      4.228      5.608
REMARK INTER + INTRA:          -6.951
REMARK INTER:                  -6.943
REMARK INTRA:                  -0.009
REMARK UNBOUND:                -0.274
REMARK  Name = 
REMARK  3 active torsions:
REMARK  status: ('A' for Active; 'I' for Inactive)
REMARK    1  A    between atoms: C_2  and  C_3
REMARK    2  A    between atoms: C_3  and  C_12
REMARK    3  A    between atoms: C_4  and  C_5
REMARK                            x       y       z     vdW  Elec       q    Type
REMARK                         _______ _______ _______ _____ _____    ______ ____
ROOT
ATOM      1  C   UNL     1      28.187  -0.378  53.249  0.00  0.00    +0.136 C 
ATOM      2  C   UNL     1      26.976  -0.793  52.829  0.00  0.00    -0.030 C 
ENDROOT
BRANCH   2   3
ATOM      3  C   UNL     1      25.802   0.089  52.627  0.00  0.00    -0.023 A 
ATOM      4  C   UNL     1      25.892   1.139  51.699  0.00  0.00    -0.052 A 
ATOM      5  C   UNL     1      24.814   2.010  51.510  0.00  0.00    -0.026 A 
ATOM      6  C   UNL     1      23.646   1.851  52.260  0.00  0.00    +0.123 A 
ATOM      7  F   UNL     1      22.602   2.697  52.077  0.00  0.00    -0.205 F 
ATOM      8  C   UNL     1      23.557   0.827  53.206  0.00  0.00    -0.026 A 
ATOM      9  C   UNL     1      24.633  -0.047  53.398  0.00  0.00    -0.052 A 
ENDBRANCH   2   3
BRANCH   1  10
ATOM     10  C   UNL     1      29.295  -1.344  53.410  0.00  0.00    +0.347 C 
ATOM     11  O   UNL     1      30.439  -0.944  53.762  0.00  0.00    -0.244 OA
ATOM     12  O   UNL     1      29.094  -2.702  53.173  0.00  0.00    -0.477 OA
ENDBRANCH   1  10
BRANCH   1  14
ATOM     13  N   UNL     1      28.615   2.103  53.917  0.00  0.00    -0.191 NA
ATOM     14  C   UNL     1      28.424   1.001  53.618  0.00  0.00    +0.106 C 
ENDBRANCH   1  14
TORSDOF 3
ENDMDL
MODEL 5
REMARK VINA RESULT:    -5.640      1.743      1.936
REMARK INTER + INTRA:          -6.903
REMARK INTER:                  -6.665
REMARK INTRA:                  -0.238
REMARK UNBOUND:                -0.274
REMARK  Name = 
REMARK  3 active torsions:
REMARK  status: ('A' for Active; 'I' for Inactive)
REMARK    1  A    between atoms: C_2  and  C_3
REMARK    2  A    between atoms: C_3  and  C_12
REMARK    3  A    between atoms: C_4  and  C_5
REMARK                            x       y       z     vdW  Elec       q    Type
REMARK                         _______ _______ _______ _____ _____    ______ ____
ROOT
ATOM      1  C   UNL     1      22.956  -0.050  53.330  0.00  0.00    +0.136 C 
ATOM      2  C   UNL     1      24.038   0.457  52.707  0.00  0.00    -0.030 C 
ENDROOT
BRANCH   2   3
ATOM      3  C   UNL     1      25.442   0.204  53.112  0.00  0.00    -0.023 A 
ATOM      4  C   UNL     1      26.121  -0.896  52.563  0.00  0.00    -0.052 A 
ATOM      5  C   UNL     1      27.435  -1.181  52.951  0.00  0.00    -0.026 A 
ATOM      6  C   UNL     1      28.072  -0.382  53.903  0.00  0.00    +0.123 A 
ATOM      7  F   UNL     1      29.345  -0.661  54.280  0.00  0.00    -0.205 F 
ATOM      8  C   UNL     1      27.395   0.697  54.477  0.00  0.00    -0.026 A 
ATOM      9  C   UNL     1      26.081   0.986  54.092  0.00  0.00    -0.052 A 
ENDBRANCH   2   3
BRANCH   1  10
ATOM     10  C   UNL     1      21.596   0.261  52.837  0.00  0.00    +0.347 C 
ATOM     11  O   UNL     1      21.301   0.066  51.626  0.00  0.00    -0.244 OA
ATOM     12  O   UNL     1      20.628   0.774  53.698  0.00  0.00    -0.477 OA
ENDBRANCH   1  10
BRANCH   1  14
ATOM     13  N   UNL     1      23.183  -1.485  55.491  0.00  0.00    -0.191 NA
ATOM     14  C   UNL     1      23.081  -0.848  54.530  0.00  0.00    +0.106 C 
ENDBRANCH   1  14
TORSDOF 3
ENDMDL
MODEL 6
REMARK VINA RESULT:    -5.410      4.109      5.710
REMARK INTER + INTRA:          -6.633
REMARK INTER:                  -6.550
REMARK INTRA:                  -0.082
REMARK UNBOUND:                -0.274
REMARK  Name = 
REMARK  3 active torsions:
REMARK  status: ('A' for Active; 'I' for Inactive)
REMARK    1  A    between atoms: C_2  and  C_3
REMARK    2  A    between atoms: C_3  and  C_12
REMARK    3  A    between atoms: C_4  and  C_5
REMARK                            x       y       z     vdW  Elec       q    Type
REMARK                         _______ _______ _______ _____ _____    ______ ____
ROOT
ATOM      1  C   UNL     1      25.513   1.000  53.092  0.00  0.00    +0.136 C 
ATOM      2  C   UNL     1      24.842  -0.166  53.168  0.00  0.00    -0.030 C 
ENDROOT
BRANCH   2   3
ATOM      3  C   UNL     1      23.371  -0.288  53.308  0.00  0.00    -0.023 A 
ATOM      4  C   UNL     1      22.846  -0.964  54.420  0.00  0.00    -0.052 A 
ATOM      5  C   UNL     1      21.465  -1.125  54.563  0.00  0.00    -0.026 A 
ATOM      6  C   UNL     1      20.597  -0.628  53.587  0.00  0.00    +0.123 A 
ATOM      7  F   UNL     1      19.258  -0.786  53.726  0.00  0.00    -0.205 F 
ATOM      8  C   UNL     1      21.111   0.022  52.461  0.00  0.00    -0.026 A 
ATOM      9  C   UNL     1      22.493   0.185  52.315  0.00  0.00    -0.052 A 
ENDBRANCH   2   3
BRANCH   1  10
ATOM     10  C   UNL     1      26.985   1.008  52.945  0.00  0.00    +0.347 C 
ATOM     11  O   UNL     1      27.612  -0.075  52.781  0.00  0.00    -0.244 OA
ATOM     12  O   UNL     1      27.698   2.204  52.990  0.00  0.00    -0.477 OA
ENDBRANCH   1  10
BRANCH   1  14
ATOM     13  N   UNL     1      24.289   3.287  53.317  0.00  0.00    -0.191 NA
ATOM     14  C   UNL     1      24.833   2.271  53.219  0.00  0.00    +0.106 C 
ENDBRANCH   1  14
TORSDOF 3
ENDMDL
MODEL 7
REMARK VINA RESULT:    -5.305      4.105      5.510
REMARK INTER + INTRA:          -6.509
REMARK INTER:                  -6.247
REMARK INTRA:                  -0.262
REMARK UNBOUND:                -0.274
REMARK  Name = 
REMARK  3 active torsions:
REMARK  status: ('A' for Active; 'I' for Inactive)
REMARK    1  A    between atoms: C_2  and  C_3
REMARK    2  A    between atoms: C_3  and  C_12
REMARK    3  A    between atoms: C_4  and  C_5
REMARK                            x       y       z     vdW  Elec       q    Type
REMARK                         _______ _______ _______ _____ _____    ______ ____
ROOT
ATOM      1  C   UNL     1      26.186  -0.467  53.035  0.00  0.00    +0.136 C 
ATOM      2  C   UNL     1      25.968   0.536  52.162  0.00  0.00    -0.030 C 
ENDROOT
BRANCH   2   3
ATOM      3  C   UNL     1      24.851   1.506  52.251  0.00  0.00    -0.023 A 
ATOM      4  C   UNL     1      23.665   1.246  51.547  0.00  0.00    -0.052 A 
ATOM      5  C   UNL     1      22.605   2.158  51.583  0.00  0.00    -0.026 A 
ATOM      6  C   UNL     1      22.730   3.346  52.307  0.00  0.00    +0.123 A 
ATOM      7  F   UNL     1      21.702   4.231  52.340  0.00  0.00    -0.205 F 
ATOM      8  C   UNL     1      23.917   3.629  52.988  0.00  0.00    -0.026 A 
ATOM      9  C   UNL     1      24.979   2.719  52.954  0.00  0.00    -0.052 A 
ENDBRANCH   2   3
BRANCH   1  10
ATOM     10  C   UNL     1      27.339  -1.376  52.858  0.00  0.00    +0.347 C 
ATOM     11  O   UNL     1      27.157  -2.562  52.466  0.00  0.00    -0.244 OA
ATOM     12  O   UNL     1      28.636  -0.940  53.122  0.00  0.00    -0.477 OA
ENDBRANCH   1  10
BRANCH   1  14
ATOM     13  N   UNL     1      24.539  -0.943  54.996  0.00  0.00    -0.191 NA
ATOM     14  C   UNL     1      25.271  -0.730  54.125  0.00  0.00    +0.106 C 
ENDBRANCH   1  14
TORSDOF 3
ENDMDL
MODEL 8
REMARK VINA RESULT:    -5.222      2.843      3.546
REMARK INTER + INTRA:          -6.411
REMARK INTER:                  -6.165
REMARK INTRA:                  -0.246
REMARK UNBOUND:                -0.274
REMARK  Name = 
REMARK  3 active torsions:
REMARK  status: ('A' for Active; 'I' for Inactive)
REMARK    1  A    between atoms: C_2  and  C_3
REMARK    2  A    between atoms: C_3  and  C_12
REMARK    3  A    between atoms: C_4  and  C_5
REMARK                            x       y       z     vdW  Elec       q    Type
REMARK                         _______ _______ _______ _____ _____    ______ ____
ROOT
ATOM      1  C   UNL     1      23.358   3.002  52.048  0.00  0.00    +0.136 C 
ATOM      2  C   UNL     1      24.386   2.669  52.853  0.00  0.00    -0.030 C 
ENDROOT
BRANCH   2   3
ATOM      3  C   UNL     1      25.072   1.354  52.849  0.00  0.00    -0.023 A 
ATOM      4  C   UNL     1      26.163   1.158  51.988  0.00  0.00    -0.052 A 
ATOM      5  C   UNL     1      26.810  -0.081  51.936  0.00  0.00    -0.026 A 
ATOM      6  C   UNL     1      26.359  -1.139  52.729  0.00  0.00    +0.123 A 
ATOM      7  F   UNL     1      26.985  -2.340  52.676  0.00  0.00    -0.205 F 
ATOM      8  C   UNL     1      25.255  -0.963  53.568  0.00  0.00    -0.026 A 
ATOM      9  C   UNL     1      24.606   0.275  53.623  0.00  0.00    -0.052 A 
ENDBRANCH   2   3
BRANCH   1  10
ATOM     10  C   UNL     1      22.750   4.348  52.129  0.00  0.00    +0.347 C 
ATOM     11  O   UNL     1      21.497   4.473  52.213  0.00  0.00    -0.244 OA
ATOM     12  O   UNL     1      23.547   5.490  52.111  0.00  0.00    -0.477 OA
ENDBRANCH   1  10
BRANCH   1  14
ATOM     13  N   UNL     1      22.304   1.275  50.408  0.00  0.00    -0.191 NA
ATOM     14  C   UNL     1      22.773   2.043  51.136  0.00  0.00    +0.106 C 
ENDBRANCH   1  14
TORSDOF 3
ENDMDL
MODEL 9
REMARK VINA RESULT:    -5.045      2.362      2.821
REMARK INTER + INTRA:          -6.203
REMARK INTER:                  -5.950
REMARK INTRA:                  -0.253
REMARK UNBOUND:                -0.274
REMARK  Name = 
REMARK  3 active torsions:
REMARK  status: ('A' for Active; 'I' for Inactive)
REMARK    1  A    between atoms: C_2  and  C_3
REMARK    2  A    between atoms: C_3  and  C_12
REMARK    3  A    between atoms: C_4  and  C_5
REMARK                            x       y       z     vdW  Elec       q    Type
REMARK                         _______ _______ _______ _____ _____    ______ ____
ROOT
ATOM      1  C   UNL     1      24.012   2.976  52.046  0.00  0.00    +0.136 C 
ATOM      2  C   UNL     1      24.356   2.084  52.995  0.00  0.00    -0.030 C 
ENDROOT
BRANCH   2   3
ATOM      3  C   UNL     1      25.657   1.375  53.058  0.00  0.00    -0.023 A 
ATOM      4  C   UNL     1      25.745   0.069  52.549  0.00  0.00    -0.052 A 
ATOM      5  C   UNL     1      26.949  -0.639  52.623  0.00  0.00    -0.026 A 
ATOM      6  C   UNL     1      28.068  -0.056  53.224  0.00  0.00    +0.123 A 
ATOM      7  F   UNL     1      29.234  -0.744  53.297  0.00  0.00    -0.205 F 
ATOM      8  C   UNL     1      27.982   1.232  53.759  0.00  0.00    -0.026 A 
ATOM      9  C   UNL     1      26.780   1.944  53.686  0.00  0.00    -0.052 A 
ENDBRANCH   2   3
BRANCH   1  10
ATOM     10  C   UNL     1      22.688   3.634  52.082  0.00  0.00    +0.347 C 
ATOM     11  O   UNL     1      22.577   4.811  52.524  0.00  0.00    -0.244 OA
ATOM     12  O   UNL     1      21.550   2.965  51.636  0.00  0.00    -0.477 OA
ENDBRANCH   1  10
BRANCH   1  14
ATOM     13  N   UNL     1      25.588   3.502  50.040  0.00  0.00    -0.191 NA
ATOM     14  C   UNL     1      24.888   3.267  50.931  0.00  0.00    +0.106 C 
ENDBRANCH   1  14
TORSDOF 3
ENDMDL
