MODEL 1
REMARK VINA RESULT:    -8.320      0.000      0.000
REMARK INTER + INTRA:         -12.339
REMARK INTER:                 -11.238
REMARK INTRA:                  -1.101
REMARK UNBOUND:                -1.101
REMARK  Name = 
REMARK  8 active torsions:
REMARK  status: ('A' for Active; 'I' for Inactive)
REMARK    1  A    between atoms: C_1  and  O_2
REMARK    2  A    between atoms: O_2  and  C_3
REMARK    3  A    between atoms: C_6  and  N_7
REMARK    4  A    between atoms: N_7  and  C_8
REMARK    5  A    between atoms: C_21  and  O_22
REMARK    6  A    between atoms: O_22  and  C_23
REMARK    7  A    between atoms: C_23  and  C_24
REMARK    8  A    between atoms: N_28  and  C_29
REMARK                            x       y       z     vdW  Elec       q    Type
REMARK                         _______ _______ _______ _____ _____    ______ ____
ROOT
ATOM      1  C   UNL     1      22.563   0.115  52.555  0.00  0.00    +0.162 A 
ATOM      2  C   UNL     1      21.595   0.407  51.574  0.00  0.00    -0.004 A 
ATOM      3  C   UNL     1      21.872   1.329  50.549  0.00  0.00    +0.044 A 
ATOM      4  C   UNL     1      20.939   1.660  49.540  0.00  0.00    +0.134 A 
ATOM      5  N   UNL     1      21.276   2.589  48.605  0.00  0.00    -0.220 NA
ATOM      6  C   UNL     1      22.483   3.208  48.615  0.00  0.00    +0.119 A 
ATOM      7  N   UNL     1      23.397   2.898  49.567  0.00  0.00    -0.235 NA
ATOM      8  C   UNL     1      23.124   1.980  50.529  0.00  0.00    +0.080 A 
ATOM      9  C   UNL     1      24.084   1.689  51.500  0.00  0.00    +0.010 A 
ATOM     10  C   UNL     1      23.811   0.757  52.518  0.00  0.00    +0.164 A 
ENDROOT
BRANCH   1  12
ATOM     11  C   UNL     1      21.534  -0.534  54.746  0.00  0.00    +0.079 C 
ATOM     12  O   UNL     1      22.322  -0.804  53.590  0.00  0.00    -0.491 OA
ENDBRANCH   1  12
BRANCH   4  13
ATOM     13  N   UNL     1      19.666   0.999  49.445  0.00  0.00    -0.297 N 
ATOM     14  H   UNL     1      19.594   0.203  48.870  0.00  0.00    +0.000 HD
BRANCH  13  15
ATOM     15  C   UNL     1      18.491   1.444  50.148  0.00  0.00    +0.068 A 
ATOM     16  C   UNL     1      18.014   2.760  50.002  0.00  0.00    -0.037 A 
ATOM     17  C   UNL     1      16.886   3.186  50.709  0.00  0.00    -0.046 A 
ATOM     18  C   UNL     1      16.229   2.308  51.575  0.00  0.00    +0.021 A 
ATOM     19 BR   UNL     1      14.688   2.892  52.542  0.00  0.00    -0.050 Br
ATOM     20  C   UNL     1      16.705   1.004  51.740  0.00  0.00    -0.011 A 
ATOM     21  C   UNL     1      17.834   0.573  51.035  0.00  0.00    +0.145 A 
ATOM     22  F   UNL     1      18.277  -0.697  51.207  0.00  0.00    -0.204 F 
ENDBRANCH  13  15
ENDBRANCH   4  13
BRANCH  10  23
ATOM     23  O   UNL     1      24.748   0.432  53.515  0.00  0.00    -0.488 OA
BRANCH  23  24
ATOM     24  C   UNL     1      25.557  -0.746  53.550  0.00  0.00    +0.094 C 
BRANCH  24  25
ATOM     25  C   UNL     1      26.744  -0.644  52.566  0.00  0.00    +0.006 C 
ATOM     26  C   UNL     1      27.819  -1.721  52.868  0.00  0.00    -0.045 C 
ATOM     27  C   UNL     1      29.129  -1.130  53.411  0.00  0.00    -0.040 C 
ATOM     28  C   UNL     1      28.851  -0.001  54.412  0.00  0.00    -0.001 C 
ATOM     29  N   UNL     1      27.997   1.088  53.863  0.00  0.00    -0.305 N 
ATOM     30  C   UNL     1      28.738   2.354  53.765  0.00  0.00    -0.013 C 
ATOM     31  C   UNL     1      27.357   0.771  52.566  0.00  0.00    +0.005 C 
ATOM     32  H   UNL     1      27.238   1.185  54.537  0.00  0.00    +0.000 HD
ENDBRANCH  24  25
ENDBRANCH  23  24
ENDBRANCH  10  23
TORSDOF 6
ENDMDL
MODEL 2
REMARK VINA RESULT:    -8.309      1.893      3.033
REMARK INTER + INTRA:         -12.324
REMARK INTER:                 -11.075
REMARK INTRA:                  -1.249
REMARK UNBOUND:                -1.101
REMARK  Name = 
REMARK  8 active torsions:
REMARK  status: ('A' for Active; 'I' for Inactive)
REMARK    1  A    between atoms: C_1  and  O_2
REMARK    2  A    between atoms: O_2  and  C_3
REMARK    3  A    between atoms: C_6  and  N_7
REMARK    4  A    between atoms: N_7  and  C_8
REMARK    5  A    between atoms: C_21  and  O_22
REMARK    6  A    between atoms: O_22  and  C_23
REMARK    7  A    between atoms: C_23  and  C_24
REMARK    8  A    between atoms: N_28  and  C_29
REMARK                            x       y       z     vdW  Elec       q    Type
REMARK                         _______ _______ _______ _____ _____    ______ ____
ROOT
ATOM      1  C   UNL     1      23.363   0.924  52.062  0.00  0.00    +0.162 A 
ATOM      2  C   UNL     1      22.046   0.959  51.563  0.00  0.00    -0.004 A 
ATOM      3  C   UNL     1      21.020   0.242  52.204  0.00  0.00    +0.044 A 
ATOM      4  C   UNL     1      19.682   0.240  51.748  0.00  0.00    +0.134 A 
ATOM      5  N   UNL     1      18.757  -0.509  52.408  0.00  0.00    -0.220 NA
ATOM      6  C   UNL     1      19.085  -1.255  53.492  0.00  0.00    +0.119 A 
ATOM      7  N   UNL     1      20.359  -1.260  53.954  0.00  0.00    -0.235 NA
ATOM      8  C   UNL     1      21.330  -0.534  53.341  0.00  0.00    +0.080 A 
ATOM      9  C   UNL     1      22.635  -0.567  53.837  0.00  0.00    +0.010 A 
ATOM     10  C   UNL     1      23.659   0.160  53.201  0.00  0.00    +0.164 A 
ENDROOT
BRANCH   1  12
ATOM     11  C   UNL     1      24.624   3.034  51.576  0.00  0.00    +0.079 C 
ATOM     12  O   UNL     1      24.410   1.631  51.449  0.00  0.00    -0.491 OA
ENDBRANCH   1  12
BRANCH   4  13
ATOM     13  N   UNL     1      19.263   1.054  50.638  0.00  0.00    -0.297 N 
ATOM     14  H   UNL     1      19.852   1.112  49.852  0.00  0.00    +0.000 HD
BRANCH  13  15
ATOM     15  C   UNL     1      18.025   1.788  50.623  0.00  0.00    +0.068 A 
ATOM     16  C   UNL     1      16.908   1.311  49.912  0.00  0.00    -0.037 A 
ATOM     17  C   UNL     1      15.719   2.045  49.887  0.00  0.00    -0.046 A 
ATOM     18  C   UNL     1      15.635   3.267  50.561  0.00  0.00    +0.021 A 
ATOM     19 BR   UNL     1      14.010   4.270  50.524  0.00  0.00    -0.050 Br
ATOM     20  C   UNL     1      16.744   3.757  51.256  0.00  0.00    -0.011 A 
ATOM     21  C   UNL     1      17.937   3.026  51.284  0.00  0.00    +0.145 A 
ATOM     22  F   UNL     1      19.000   3.518  51.967  0.00  0.00    -0.204 F 
ENDBRANCH  13  15
ENDBRANCH   4  13
BRANCH  10  23
ATOM     23  O   UNL     1      24.986   0.158  53.666  0.00  0.00    -0.488 OA
BRANCH  23  24
ATOM     24  C   UNL     1      25.862  -0.971  53.688  0.00  0.00    +0.094 C 
BRANCH  24  25
ATOM     25  C   UNL     1      27.025  -0.800  52.685  0.00  0.00    +0.006 C 
ATOM     26  C   UNL     1      28.212  -1.737  53.035  0.00  0.00    -0.045 C 
ATOM     27  C   UNL     1      29.454  -0.979  53.528  0.00  0.00    -0.040 C 
ATOM     28  C   UNL     1      29.062   0.171  54.466  0.00  0.00    -0.001 C 
ATOM     29  N   UNL     1      28.093   1.128  53.865  0.00  0.00    -0.305 N 
ATOM     30  C   UNL     1      28.692   2.459  53.686  0.00  0.00    -0.013 C 
ATOM     31  C   UNL     1      27.483   0.669  52.596  0.00  0.00    +0.005 C 
ATOM     32  H   UNL     1      27.332   1.183  54.542  0.00  0.00    +0.000 HD
ENDBRANCH  24  25
ENDBRANCH  23  24
ENDBRANCH  10  23
TORSDOF 6
ENDMDL
MODEL 3
REMARK VINA RESULT:    -8.137      2.313      3.521
REMARK INTER + INTRA:         -12.093
REMARK INTER:                 -10.989
REMARK INTRA:                  -1.104
REMARK UNBOUND:                -1.101
REMARK  Name = 
REMARK  8 active torsions:
REMARK  status: ('A' for Active; 'I' for Inactive)
REMARK    1  A    between atoms: C_1  and  O_2
REMARK    2  A    between atoms: O_2  and  C_3
REMARK    3  A    between atoms: C_6  and  N_7
REMARK    4  A    between atoms: N_7  and  C_8
REMARK    5  A    between atoms: C_21  and  O_22
REMARK    6  A    between atoms: O_22  and  C_23
REMARK    7  A    between atoms: C_23  and  C_24
REMARK    8  A    between atoms: N_28  and  C_29
REMARK                            x       y       z     vdW  Elec       q    Type
REMARK                         _______ _______ _______ _____ _____    ______ ____
ROOT
ATOM      1  C   UNL     1      23.170   1.020  51.703  0.00  0.00    +0.162 A 
ATOM      2  C   UNL     1      21.918   0.999  51.056  0.00  0.00    -0.004 A 
ATOM      3  C   UNL     1      20.797   0.432  51.688  0.00  0.00    +0.044 A 
ATOM      4  C   UNL     1      19.519   0.383  51.087  0.00  0.00    +0.134 A 
ATOM      5  N   UNL     1      18.495  -0.215  51.755  0.00  0.00    -0.220 NA
ATOM      6  C   UNL     1      18.668  -0.766  52.982  0.00  0.00    +0.119 A 
ATOM      7  N   UNL     1      19.882  -0.721  53.582  0.00  0.00    -0.235 NA
ATOM      8  C   UNL     1      20.945  -0.139  52.970  0.00  0.00    +0.080 A 
ATOM      9  C   UNL     1      22.186  -0.116  53.612  0.00  0.00    +0.010 A 
ATOM     10  C   UNL     1      23.304   0.462  52.983  0.00  0.00    +0.164 A 
ENDROOT
BRANCH   1  12
ATOM     11  C   UNL     1      24.553   2.980  50.980  0.00  0.00    +0.079 C 
ATOM     12  O   UNL     1      24.309   1.581  51.103  0.00  0.00    -0.491 OA
ENDBRANCH   1  12
BRANCH   4  13
ATOM     13  N   UNL     1      19.261   0.998  49.813  0.00  0.00    -0.297 N 
ATOM     14  H   UNL     1      19.037   0.418  49.050  0.00  0.00    +0.000 HD
BRANCH  13  15
ATOM     15  C   UNL     1      19.317   2.421  49.599  0.00  0.00    +0.068 A 
ATOM     16  C   UNL     1      18.587   3.306  50.415  0.00  0.00    -0.037 A 
ATOM     17  C   UNL     1      18.633   4.682  50.182  0.00  0.00    -0.046 A 
ATOM     18  C   UNL     1      19.397   5.191  49.128  0.00  0.00    +0.021 A 
ATOM     19 BR   UNL     1      19.456   7.073  48.810  0.00  0.00    -0.050 Br
ATOM     20  C   UNL     1      20.111   4.319  48.301  0.00  0.00    -0.011 A 
ATOM     21  C   UNL     1      20.069   2.939  48.530  0.00  0.00    +0.145 A 
ATOM     22  F   UNL     1      20.773   2.111  47.718  0.00  0.00    -0.204 F 
ENDBRANCH  13  15
ENDBRANCH   4  13
BRANCH  10  23
ATOM     23  O   UNL     1      24.571   0.509  53.593  0.00  0.00    -0.488 OA
BRANCH  23  24
ATOM     24  C   UNL     1      25.460  -0.598  53.758  0.00  0.00    +0.094 C 
BRANCH  24  25
ATOM     25  C   UNL     1      26.596  -0.569  52.711  0.00  0.00    +0.006 C 
ATOM     26  C   UNL     1      27.665  -1.655  53.010  0.00  0.00    -0.045 C 
ATOM     27  C   UNL     1      29.012  -1.067  53.457  0.00  0.00    -0.040 C 
ATOM     28  C   UNL     1      28.808   0.114  54.414  0.00  0.00    -0.001 C 
ATOM     29  N   UNL     1      27.948   1.194  53.857  0.00  0.00    -0.305 N 
ATOM     30  C   UNL     1      28.707   2.438  53.660  0.00  0.00    -0.013 C 
ATOM     31  C   UNL     1      27.236   0.830  52.611  0.00  0.00    +0.005 C 
ATOM     32  H   UNL     1      27.228   1.341  54.563  0.00  0.00    +0.000 HD
ENDBRANCH  24  25
ENDBRANCH  23  24
ENDBRANCH  10  23
TORSDOF 6
ENDMDL
MODEL 4
REMARK VINA RESULT:    -7.934      2.098      2.308
REMARK INTER + INTRA:         -11.818
REMARK INTER:                 -10.804
REMARK INTRA:                  -1.014
REMARK UNBOUND:                -1.101
REMARK  Name = 
REMARK  8 active torsions:
REMARK  status: ('A' for Active; 'I' for Inactive)
REMARK    1  A    between atoms: C_1  and  O_2
REMARK    2  A    between atoms: O_2  and  C_3
REMARK    3  A    between atoms: C_6  and  N_7
REMARK    4  A    between atoms: N_7  and  C_8
REMARK    5  A    between atoms: C_21  and  O_22
REMARK    6  A    between atoms: O_22  and  C_23
REMARK    7  A    between atoms: C_23  and  C_24
REMARK    8  A    between atoms: N_28  and  C_29
REMARK                            x       y       z     vdW  Elec       q    Type
REMARK                         _______ _______ _______ _____ _____    ______ ____
ROOT
ATOM      1  C   UNL     1      22.043   0.144  53.258  0.00  0.00    +0.162 A 
ATOM      2  C   UNL     1      21.105   1.153  52.959  0.00  0.00    -0.004 A 
ATOM      3  C   UNL     1      21.511   2.338  52.320  0.00  0.00    +0.044 A 
ATOM      4  C   UNL     1      20.615   3.383  51.997  0.00  0.00    +0.134 A 
ATOM      5  N   UNL     1      21.097   4.511  51.409  0.00  0.00    -0.220 NA
ATOM      6  C   UNL     1      22.415   4.662  51.125  0.00  0.00    +0.119 A 
ATOM      7  N   UNL     1      23.290   3.669  51.416  0.00  0.00    -0.235 NA
ATOM      8  C   UNL     1      22.874   2.517  52.003  0.00  0.00    +0.080 A 
ATOM      9  C   UNL     1      23.803   1.516  52.298  0.00  0.00    +0.010 A 
ATOM     10  C   UNL     1      23.394   0.325  52.926  0.00  0.00    +0.164 A 
ENDROOT
BRANCH   1  12
ATOM     11  C   UNL     1      20.330  -1.507  54.045  0.00  0.00    +0.079 C 
ATOM     12  O   UNL     1      21.672  -1.053  53.891  0.00  0.00    -0.491 OA
ENDBRANCH   1  12
BRANCH   4  13
ATOM     13  N   UNL     1      19.200   3.259  52.223  0.00  0.00    -0.297 N 
ATOM     14  H   UNL     1      18.844   3.503  53.108  0.00  0.00    +0.000 HD
BRANCH  13  15
ATOM     15  C   UNL     1      18.280   2.794  51.218  0.00  0.00    +0.068 A 
ATOM     16  C   UNL     1      18.070   1.418  51.008  0.00  0.00    -0.037 A 
ATOM     17  C   UNL     1      17.191   0.981  50.013  0.00  0.00    -0.046 A 
ATOM     18  C   UNL     1      16.519   1.909  49.213  0.00  0.00    +0.021 A 
ATOM     19 BR   UNL     1      15.319   1.310  47.854  0.00  0.00    -0.050 Br
ATOM     20  C   UNL     1      16.734   3.278  49.404  0.00  0.00    -0.011 A 
ATOM     21  C   UNL     1      17.614   3.721  50.397  0.00  0.00    +0.145 A 
ATOM     22  F   UNL     1      17.804   5.053  50.567  0.00  0.00    -0.204 F 
ENDBRANCH  13  15
ENDBRANCH   4  13
BRANCH  10  23
ATOM     23  O   UNL     1      24.294  -0.709  53.239  0.00  0.00    -0.488 OA
BRANCH  23  24
ATOM     24  C   UNL     1      25.584  -0.544  53.832  0.00  0.00    +0.094 C 
BRANCH  24  25
ATOM     25  C   UNL     1      26.694  -0.489  52.759  0.00  0.00    +0.006 C 
ATOM     26  C   UNL     1      27.739  -1.617  52.971  0.00  0.00    -0.045 C 
ATOM     27  C   UNL     1      29.113  -1.091  53.414  0.00  0.00    -0.040 C 
ATOM     28  C   UNL     1      28.965   0.042  54.439  0.00  0.00    -0.001 C 
ATOM     29  N   UNL     1      28.123   1.173  53.963  0.00  0.00    -0.305 N 
ATOM     30  C   UNL     1      28.912   2.405  53.814  0.00  0.00    -0.013 C 
ATOM     31  C   UNL     1      27.370   0.897  52.718  0.00  0.00    +0.005 C 
ATOM     32  H   UNL     1      27.424   1.300  54.694  0.00  0.00    +0.000 HD
ENDBRANCH  24  25
ENDBRANCH  23  24
ENDBRANCH  10  23
TORSDOF 6
ENDMDL
MODEL 5
REMARK VINA RESULT:    -7.912      4.255      9.550
REMARK INTER + INTRA:         -11.789
REMARK INTER:                 -10.820
REMARK INTRA:                  -0.969
REMARK UNBOUND:                -1.101
REMARK  Name = 
REMARK  8 active torsions:
REMARK  status: ('A' for Active; 'I' for Inactive)
REMARK    1  A    between atoms: C_1  and  O_2
REMARK    2  A    between atoms: O_2  and  C_3
REMARK    3  A    between atoms: C_6  and  N_7
REMARK    4  A    between atoms: N_7  and  C_8
REMARK    5  A    between atoms: C_21  and  O_22
REMARK    6  A    between atoms: O_22  and  C_23
REMARK    7  A    between atoms: C_23  and  C_24
REMARK    8  A    between atoms: N_28  and  C_29
REMARK                            x       y       z     vdW  Elec       q    Type
REMARK                         _______ _______ _______ _____ _____    ______ ____
ROOT
ATOM      1  C   UNL     1      19.981   0.873  51.056  0.00  0.00    +0.162 A 
ATOM      2  C   UNL     1      21.289   0.902  51.579  0.00  0.00    -0.004 A 
ATOM      3  C   UNL     1      21.617   0.154  52.725  0.00  0.00    +0.044 A 
ATOM      4  C   UNL     1      22.911   0.147  53.293  0.00  0.00    +0.134 A 
ATOM      5  N   UNL     1      23.134  -0.578  54.423  0.00  0.00    -0.220 NA
ATOM      6  C   UNL     1      22.148  -1.292  55.020  0.00  0.00    +0.119 A 
ATOM      7  N   UNL     1      20.902  -1.308  54.487  0.00  0.00    -0.235 NA
ATOM      8  C   UNL     1      20.613  -0.606  53.361  0.00  0.00    +0.080 A 
ATOM      9  C   UNL     1      19.317  -0.637  52.840  0.00  0.00    +0.010 A 
ATOM     10  C   UNL     1      18.993   0.102  51.687  0.00  0.00    +0.164 A 
ENDROOT
BRANCH   1  12
ATOM     11  C   UNL     1      20.413   2.629  49.322  0.00  0.00    +0.079 C 
ATOM     12  O   UNL     1      19.620   1.603  49.912  0.00  0.00    -0.491 OA
ENDBRANCH   1  12
BRANCH   4  13
ATOM     13  N   UNL     1      24.009   0.840  52.675  0.00  0.00    -0.297 N 
ATOM     14  H   UNL     1      23.810   1.601  52.085  0.00  0.00    +0.000 HD
BRANCH  13  15
ATOM     15  C   UNL     1      25.387   0.472  52.878  0.00  0.00    +0.068 A 
ATOM     16  C   UNL     1      25.875  -0.777  52.449  0.00  0.00    -0.037 A 
ATOM     17  C   UNL     1      27.208  -1.129  52.672  0.00  0.00    -0.046 A 
ATOM     18  C   UNL     1      28.066  -0.246  53.333  0.00  0.00    +0.021 A 
ATOM     19 BR   UNL     1      29.888  -0.730  53.639  0.00  0.00    -0.050 Br
ATOM     20  C   UNL     1      27.586   0.990  53.778  0.00  0.00    -0.011 A 
ATOM     21  C   UNL     1      26.252   1.347  53.557  0.00  0.00    +0.145 A 
ATOM     22  F   UNL     1      25.808   2.553  53.994  0.00  0.00    -0.204 F 
ENDBRANCH  13  15
ENDBRANCH   4  13
BRANCH  10  23
ATOM     23  O   UNL     1      17.703   0.099  51.128  0.00  0.00    -0.488 OA
BRANCH  23  24
ATOM     24  C   UNL     1      16.557   0.763  51.666  0.00  0.00    +0.094 C 
BRANCH  24  25
ATOM     25  C   UNL     1      16.257   2.074  50.903  0.00  0.00    +0.006 C 
ATOM     26  C   UNL     1      17.006   3.277  51.534  0.00  0.00    -0.045 C 
ATOM     27  C   UNL     1      16.066   4.282  52.216  0.00  0.00    -0.040 C 
ATOM     28  C   UNL     1      14.954   3.561  52.990  0.00  0.00    -0.001 C 
ATOM     29  N   UNL     1      14.162   2.617  52.155  0.00  0.00    -0.305 N 
ATOM     30  C   UNL     1      12.766   3.060  52.020  0.00  0.00    -0.013 C 
ATOM     31  C   UNL     1      14.740   2.343  50.820  0.00  0.00    +0.005 C 
ATOM     32  H   UNL     1      14.193   1.734  52.664  0.00  0.00    +0.000 HD
ENDBRANCH  24  25
ENDBRANCH  23  24
ENDBRANCH  10  23
TORSDOF 6
ENDMDL
MODEL 6
REMARK VINA RESULT:    -7.808      3.940      9.028
REMARK INTER + INTRA:         -11.648
REMARK INTER:                 -10.786
REMARK INTRA:                  -0.862
REMARK UNBOUND:                -1.101
REMARK  Name = 
REMARK  8 active torsions:
REMARK  status: ('A' for Active; 'I' for Inactive)
REMARK    1  A    between atoms: C_1  and  O_2
REMARK    2  A    between atoms: O_2  and  C_3
REMARK    3  A    between atoms: C_6  and  N_7
REMARK    4  A    between atoms: N_7  and  C_8
REMARK    5  A    between atoms: C_21  and  O_22
REMARK    6  A    between atoms: O_22  and  C_23
REMARK    7  A    between atoms: C_23  and  C_24
REMARK    8  A    between atoms: N_28  and  C_29
REMARK                            x       y       z     vdW  Elec       q    Type
REMARK                         _______ _______ _______ _____ _____    ______ ____
ROOT
ATOM      1  C   UNL     1      21.632   0.381  52.321  0.00  0.00    +0.162 A 
ATOM      2  C   UNL     1      22.909   0.946  52.506  0.00  0.00    -0.004 A 
ATOM      3  C   UNL     1      23.474   1.774  51.520  0.00  0.00    +0.044 A 
ATOM      4  C   UNL     1      24.751   2.366  51.652  0.00  0.00    +0.134 A 
ATOM      5  N   UNL     1      25.238   3.127  50.634  0.00  0.00    -0.220 NA
ATOM      6  C   UNL     1      24.531   3.330  49.494  0.00  0.00    +0.119 A 
ATOM      7  N   UNL     1      23.301   2.781  49.349  0.00  0.00    -0.235 NA
ATOM      8  C   UNL     1      22.757   2.012  50.328  0.00  0.00    +0.080 A 
ATOM      9  C   UNL     1      21.490   1.454  50.145  0.00  0.00    +0.010 A 
ATOM     10  C   UNL     1      20.921   0.636  51.139  0.00  0.00    +0.164 A 
ENDROOT
BRANCH   1  12
ATOM     11  C   UNL     1      21.734  -1.075  54.357  0.00  0.00    +0.079 C 
ATOM     12  O   UNL     1      21.036  -0.446  53.287  0.00  0.00    -0.491 OA
ENDBRANCH   1  12
BRANCH   4  13
ATOM     13  N   UNL     1      25.523   2.232  52.858  0.00  0.00    -0.297 N 
ATOM     14  H   UNL     1      25.323   2.833  53.611  0.00  0.00    +0.000 HD
BRANCH  13  15
ATOM     15  C   UNL     1      26.575   1.262  53.016  0.00  0.00    +0.068 A 
ATOM     16  C   UNL     1      26.364  -0.095  52.705  0.00  0.00    -0.037 A 
ATOM     17  C   UNL     1      27.387  -1.029  52.885  0.00  0.00    -0.046 A 
ATOM     18  C   UNL     1      28.627  -0.624  53.387  0.00  0.00    +0.021 A 
ATOM     19 BR   UNL     1      30.023  -1.903  53.634  0.00  0.00    -0.050 Br
ATOM     20  C   UNL     1      28.841   0.718  53.715  0.00  0.00    -0.011 A 
ATOM     21  C   UNL     1      27.819   1.658  53.537  0.00  0.00    +0.145 A 
ATOM     22  F   UNL     1      28.050   2.955  53.858  0.00  0.00    -0.204 F 
ENDBRANCH  13  15
ENDBRANCH   4  13
BRANCH  10  23
ATOM     23  O   UNL     1      19.648   0.054  50.998  0.00  0.00    -0.488 OA
BRANCH  23  24
ATOM     24  C   UNL     1      18.398   0.729  51.159  0.00  0.00    +0.094 C 
BRANCH  24  25
ATOM     25  C   UNL     1      17.216  -0.266  51.159  0.00  0.00    +0.006 C 
ATOM     26  C   UNL     1      16.538  -0.335  49.764  0.00  0.00    -0.045 C 
ATOM     27  C   UNL     1      15.123   0.262  49.752  0.00  0.00    -0.040 C 
ATOM     28  C   UNL     1      15.058   1.545  50.590  0.00  0.00    -0.001 C 
ATOM     29  N   UNL     1      15.515   1.365  51.995  0.00  0.00    -0.305 N 
ATOM     30  C   UNL     1      14.414   1.564  52.949  0.00  0.00    -0.013 C 
ATOM     31  C   UNL     1      16.191   0.075  52.260  0.00  0.00    +0.005 C 
ATOM     32  H   UNL     1      16.221   2.088  52.131  0.00  0.00    +0.000 HD
ENDBRANCH  24  25
ENDBRANCH  23  24
ENDBRANCH  10  23
TORSDOF 6
ENDMDL
MODEL 7
REMARK VINA RESULT:    -7.569      6.415      9.338
REMARK INTER + INTRA:         -11.326
REMARK INTER:                 -10.632
REMARK INTRA:                  -0.693
REMARK UNBOUND:                -1.101
REMARK  Name = 
REMARK  8 active torsions:
REMARK  status: ('A' for Active; 'I' for Inactive)
REMARK    1  A    between atoms: C_1  and  O_2
REMARK    2  A    between atoms: O_2  and  C_3
REMARK    3  A    between atoms: C_6  and  N_7
REMARK    4  A    between atoms: N_7  and  C_8
REMARK    5  A    between atoms: C_21  and  O_22
REMARK    6  A    between atoms: O_22  and  C_23
REMARK    7  A    between atoms: C_23  and  C_24
REMARK    8  A    between atoms: N_28  and  C_29
REMARK                            x       y       z     vdW  Elec       q    Type
REMARK                         _______ _______ _______ _____ _____    ______ ____
ROOT
ATOM      1  C   UNL     1      25.983   2.939  50.499  0.00  0.00    +0.162 A 
ATOM      2  C   UNL     1      26.704   3.993  49.903  0.00  0.00    -0.004 A 
ATOM      3  C   UNL     1      26.028   5.048  49.264  0.00  0.00    +0.044 A 
ATOM      4  C   UNL     1      26.699   6.130  48.649  0.00  0.00    +0.134 A 
ATOM      5  N   UNL     1      25.969   7.092  48.022  0.00  0.00    -0.220 NA
ATOM      6  C   UNL     1      24.615   7.040  47.969  0.00  0.00    +0.119 A 
ATOM      7  N   UNL     1      23.950   6.018  48.560  0.00  0.00    -0.235 NA
ATOM      8  C   UNL     1      24.619   5.026  49.202  0.00  0.00    +0.080 A 
ATOM      9  C   UNL     1      23.905   3.981  49.795  0.00  0.00    +0.010 A 
ATOM     10  C   UNL     1      24.581   2.933  50.445  0.00  0.00    +0.164 A 
ENDROOT
BRANCH   1  12
ATOM     11  C   UNL     1      27.186   1.941  52.457  0.00  0.00    +0.079 C 
ATOM     12  O   UNL     1      26.625   1.872  51.149  0.00  0.00    -0.491 OA
ENDBRANCH   1  12
BRANCH   4  13
ATOM     13  N   UNL     1      28.129   6.268  48.720  0.00  0.00    -0.297 N 
ATOM     14  H   UNL     1      28.657   5.504  49.046  0.00  0.00    +0.000 HD
BRANCH  13  15
ATOM     15  C   UNL     1      28.824   7.470  48.339  0.00  0.00    +0.068 A 
ATOM     16  C   UNL     1      29.706   7.481  47.242  0.00  0.00    -0.037 A 
ATOM     17  C   UNL     1      30.392   8.649  46.898  0.00  0.00    -0.046 A 
ATOM     18  C   UNL     1      30.213   9.814  47.648  0.00  0.00    +0.021 A 
ATOM     19 BR   UNL     1      31.152  11.409  47.177  0.00  0.00    -0.050 Br
ATOM     20  C   UNL     1      29.352   9.809  48.750  0.00  0.00    -0.011 A 
ATOM     21  C   UNL     1      28.664   8.642  49.099  0.00  0.00    +0.145 A 
ATOM     22  F   UNL     1      27.830   8.660  50.169  0.00  0.00    -0.204 F 
ENDBRANCH  13  15
ENDBRANCH   4  13
BRANCH  10  23
ATOM     23  O   UNL     1      23.903   1.863  51.056  0.00  0.00    -0.488 OA
BRANCH  23  24
ATOM     24  C   UNL     1      22.549   1.883  51.512  0.00  0.00    +0.094 C 
BRANCH  24  25
ATOM     25  C   UNL     1      21.914   0.475  51.454  0.00  0.00    +0.006 C 
ATOM     26  C   UNL     1      20.364   0.555  51.463  0.00  0.00    -0.045 C 
ATOM     27  C   UNL     1      19.739   0.017  52.759  0.00  0.00    -0.040 C 
ATOM     28  C   UNL     1      20.552   0.454  53.985  0.00  0.00    -0.001 C 
ATOM     29  N   UNL     1      21.988   0.067  53.920  0.00  0.00    -0.305 N 
ATOM     30  C   UNL     1      22.328  -0.913  54.963  0.00  0.00    -0.013 C 
ATOM     31  C   UNL     1      22.432  -0.424  52.595  0.00  0.00    +0.005 C 
ATOM     32  H   UNL     1      22.497   0.935  54.086  0.00  0.00    +0.000 HD
ENDBRANCH  24  25
ENDBRANCH  23  24
ENDBRANCH  10  23
TORSDOF 6
ENDMDL
MODEL 8
REMARK VINA RESULT:    -7.503      3.877      8.993
REMARK INTER + INTRA:         -11.236
REMARK INTER:                 -10.055
REMARK INTRA:                  -1.182
REMARK UNBOUND:                -1.101
REMARK  Name = 
REMARK  8 active torsions:
REMARK  status: ('A' for Active; 'I' for Inactive)
REMARK    1  A    between atoms: C_1  and  O_2
REMARK    2  A    between atoms: O_2  and  C_3
REMARK    3  A    between atoms: C_6  and  N_7
REMARK    4  A    between atoms: N_7  and  C_8
REMARK    5  A    between atoms: C_21  and  O_22
REMARK    6  A    between atoms: O_22  and  C_23
REMARK    7  A    between atoms: C_23  and  C_24
REMARK    8  A    between atoms: N_28  and  C_29
REMARK                            x       y       z     vdW  Elec       q    Type
REMARK                         _______ _______ _______ _____ _____    ______ ____
ROOT
ATOM      1  C   UNL     1      19.113  -0.256  52.552  0.00  0.00    +0.162 A 
ATOM      2  C   UNL     1      20.478   0.018  52.774  0.00  0.00    -0.004 A 
ATOM      3  C   UNL     1      21.240   0.685  51.798  0.00  0.00    +0.044 A 
ATOM      4  C   UNL     1      22.611   0.984  51.966  0.00  0.00    +0.134 A 
ATOM      5  N   UNL     1      23.284   1.602  50.956  0.00  0.00    -0.220 NA
ATOM      6  C   UNL     1      22.674   1.935  49.792  0.00  0.00    +0.119 A 
ATOM      7  N   UNL     1      21.358   1.667  49.612  0.00  0.00    -0.235 NA
ATOM      8  C   UNL     1      20.629   1.053  50.580  0.00  0.00    +0.080 A 
ATOM      9  C   UNL     1      19.276   0.783  50.362  0.00  0.00    +0.010 A 
ATOM     10  C   UNL     1      18.511   0.128  51.344  0.00  0.00    +0.164 A 
ENDROOT
BRANCH   1  12
ATOM     11  C   UNL     1      18.208  -2.330  53.628  0.00  0.00    +0.079 C 
ATOM     12  O   UNL     1      18.321  -0.915  53.506  0.00  0.00    -0.491 OA
ENDBRANCH   1  12
BRANCH   4  13
ATOM     13  N   UNL     1      23.298   0.705  53.198  0.00  0.00    -0.297 N 
ATOM     14  H   UNL     1      22.762   0.582  54.015  0.00  0.00    +0.000 HD
BRANCH  13  15
ATOM     15  C   UNL     1      24.730   0.596  53.295  0.00  0.00    +0.068 A 
ATOM     16  C   UNL     1      25.375  -0.648  53.161  0.00  0.00    -0.037 A 
ATOM     17  C   UNL     1      26.763  -0.741  53.280  0.00  0.00    -0.046 A 
ATOM     18  C   UNL     1      27.524   0.402  53.544  0.00  0.00    +0.021 A 
ATOM     19 BR   UNL     1      29.422   0.272  53.708  0.00  0.00    -0.050 Br
ATOM     20  C   UNL     1      26.891   1.639  53.696  0.00  0.00    -0.011 A 
ATOM     21  C   UNL     1      25.501   1.738  53.578  0.00  0.00    +0.145 A 
ATOM     22  F   UNL     1      24.908   2.949  53.725  0.00  0.00    -0.204 F 
ENDBRANCH  13  15
ENDBRANCH   4  13
BRANCH  10  23
ATOM     23  O   UNL     1      17.146  -0.162  51.167  0.00  0.00    -0.488 OA
BRANCH  23  24
ATOM     24  C   UNL     1      16.388   0.077  49.980  0.00  0.00    +0.094 C 
BRANCH  24  25
ATOM     25  C   UNL     1      15.079   0.839  50.290  0.00  0.00    +0.006 C 
ATOM     26  C   UNL     1      14.530   1.552  49.026  0.00  0.00    -0.045 C 
ATOM     27  C   UNL     1      14.616   3.083  49.112  0.00  0.00    -0.040 C 
ATOM     28  C   UNL     1      15.942   3.526  49.744  0.00  0.00    -0.001 C 
ATOM     29  N   UNL     1      16.191   2.932  51.087  0.00  0.00    -0.305 N 
ATOM     30  C   UNL     1      16.196   3.961  52.137  0.00  0.00    -0.013 C 
ATOM     31  C   UNL     1      15.268   1.834  51.453  0.00  0.00    +0.005 C 
ATOM     32  H   UNL     1      17.118   2.511  51.014  0.00  0.00    +0.000 HD
ENDBRANCH  24  25
ENDBRANCH  23  24
ENDBRANCH  10  23
TORSDOF 6
ENDMDL
MODEL 9
REMARK VINA RESULT:    -7.441      4.188      9.386
REMARK INTER + INTRA:         -11.152
REMARK INTER:                  -9.970
REMARK INTRA:                  -1.182
REMARK UNBOUND:                -1.101
REMARK  Name = 
REMARK  8 active torsions:
REMARK  status: ('A' for Active; 'I' for Inactive)
REMARK    1  A    between atoms: C_1  and  O_2
REMARK    2  A    between atoms: O_2  and  C_3
REMARK    3  A    between atoms: C_6  and  N_7
REMARK    4  A    between atoms: N_7  and  C_8
REMARK    5  A    between atoms: C_21  and  O_22
REMARK    6  A    between atoms: O_22  and  C_23
REMARK    7  A    between atoms: C_23  and  C_24
REMARK    8  A    between atoms: N_28  and  C_29
REMARK                            x       y       z     vdW  Elec       q    Type
REMARK                         _______ _______ _______ _____ _____    ______ ____
ROOT
ATOM      1  C   UNL     1      19.384   0.459  51.353  0.00  0.00    +0.162 A 
ATOM      2  C   UNL     1      20.741   0.624  51.694  0.00  0.00    -0.004 A 
ATOM      3  C   UNL     1      21.284  -0.045  52.807  0.00  0.00    +0.044 A 
ATOM      4  C   UNL     1      22.637   0.085  53.197  0.00  0.00    +0.134 A 
ATOM      5  N   UNL     1      23.072  -0.570  54.307  0.00  0.00    -0.220 NA
ATOM      6  C   UNL     1      22.243  -1.344  55.051  0.00  0.00    +0.119 A 
ATOM      7  N   UNL     1      20.945  -1.490  54.690  0.00  0.00    -0.235 NA
ATOM      8  C   UNL     1      20.447  -0.864  53.593  0.00  0.00    +0.080 A 
ATOM      9  C   UNL     1      19.102  -1.029  53.253  0.00  0.00    +0.010 A 
ATOM     10  C   UNL     1      18.563  -0.370  52.132  0.00  0.00    +0.164 A 
ENDROOT
BRANCH   1  12
ATOM     11  C   UNL     1      19.062   2.460  49.881  0.00  0.00    +0.079 C 
ATOM     12  O   UNL     1      18.811   1.106  50.246  0.00  0.00    -0.491 OA
ENDBRANCH   1  12
BRANCH   4  13
ATOM     13  N   UNL     1      23.576   0.846  52.417  0.00  0.00    -0.297 N 
ATOM     14  H   UNL     1      23.236   1.371  51.657  0.00  0.00    +0.000 HD
BRANCH  13  15
ATOM     15  C   UNL     1      24.988   0.875  52.694  0.00  0.00    +0.068 A 
ATOM     16  C   UNL     1      25.813  -0.221  52.376  0.00  0.00    -0.037 A 
ATOM     17  C   UNL     1      27.178  -0.187  52.671  0.00  0.00    -0.046 A 
ATOM     18  C   UNL     1      27.734   0.933  53.294  0.00  0.00    +0.021 A 
ATOM     19 BR   UNL     1      29.600   0.976  53.698  0.00  0.00    -0.050 Br
ATOM     20  C   UNL     1      26.920   2.020  53.629  0.00  0.00    -0.011 A 
ATOM     21  C   UNL     1      25.553   1.991  53.336  0.00  0.00    +0.145 A 
ATOM     22  F   UNL     1      24.782   3.058  53.666  0.00  0.00    -0.204 F 
ENDBRANCH  13  15
ENDBRANCH   4  13
BRANCH  10  23
ATOM     23  O   UNL     1      17.217  -0.509  51.752  0.00  0.00    -0.488 OA
BRANCH  23  24
ATOM     24  C   UNL     1      16.108   0.178  52.336  0.00  0.00    +0.094 C 
BRANCH  24  25
ATOM     25  C   UNL     1      14.832   0.021  51.477  0.00  0.00    +0.006 C 
ATOM     26  C   UNL     1      14.640  -1.448  51.017  0.00  0.00    -0.045 C 
ATOM     27  C   UNL     1      14.834  -1.637  49.505  0.00  0.00    -0.040 C 
ATOM     28  C   UNL     1      16.019  -0.806  48.993  0.00  0.00    -0.001 C 
ATOM     29  N   UNL     1      15.912   0.644  49.310  0.00  0.00    -0.305 N 
ATOM     30  C   UNL     1      15.769   1.452  48.089  0.00  0.00    -0.013 C 
ATOM     31  C   UNL     1      14.841   0.985  50.274  0.00  0.00    +0.005 C 
ATOM     32  H   UNL     1      16.792   0.873  49.771  0.00  0.00    +0.000 HD
ENDBRANCH  24  25
ENDBRANCH  23  24
ENDBRANCH  10  23
TORSDOF 6
ENDMDL
