MODEL 1
REMARK VINA RESULT:    -8.242      0.000      0.000
REMARK INTER + INTRA:         -13.998
REMARK INTER:                 -12.096
REMARK INTRA:                  -1.901
REMARK UNBOUND:                -1.901
REMARK  Name = 
REMARK  9 active torsions:
REMARK  status: ('A' for Active; 'I' for Inactive)
REMARK    1  A    between atoms: C_1  and  O_2
REMARK    2  A    between atoms: O_2  and  C_3
REMARK    3  A    between atoms: C_9  and  N_10
REMARK    4  A    between atoms: N_10  and  C_11
REMARK    5  A    between atoms: C_21  and  O_22
REMARK    6  A    between atoms: O_22  and  C_23
REMARK    7  A    between atoms: C_23  and  C_24
REMARK    8  A    between atoms: C_24  and  C_25
REMARK    9  A    between atoms: C_25  and  N_26
REMARK                            x       y       z     vdW  Elec       q    Type
REMARK                         _______ _______ _______ _____ _____    ______ ____
ROOT
ATOM      1  C   UNL     1      19.980  -0.004  52.387  0.00  0.00    +0.164 A 
ATOM      2  C   UNL     1      20.365  -0.578  53.613  0.00  0.00    +0.010 A 
ATOM      3  C   UNL     1      21.714  -0.660  53.963  0.00  0.00    +0.080 A 
ATOM      4  N   UNL     1      22.069  -1.234  55.142  0.00  0.00    -0.235 NA
ATOM      5  C   UNL     1      23.371  -1.334  55.508  0.00  0.00    +0.119 A 
ATOM      6  N   UNL     1      24.345  -0.848  54.698  0.00  0.00    -0.220 NA
ATOM      7  C   UNL     1      24.056  -0.263  53.503  0.00  0.00    +0.134 A 
ATOM      8  C   UNL     1      22.707  -0.156  53.097  0.00  0.00    +0.044 A 
ATOM      9  C   UNL     1      22.321   0.403  51.864  0.00  0.00    -0.004 A 
ATOM     10  C   UNL     1      20.960   0.483  51.510  0.00  0.00    +0.163 A 
ENDROOT
BRANCH   1  12
ATOM     11  C   UNL     1      17.591  -0.745  52.484  0.00  0.00    +0.079 C 
ATOM     12  O   UNL     1      18.634   0.096  52.002  0.00  0.00    -0.491 OA
ENDBRANCH   1  12
BRANCH   7  13
ATOM     13  N   UNL     1      25.126   0.282  52.712  0.00  0.00    -0.299 N 
ATOM     14  H   UNL     1      24.894   0.832  51.929  0.00  0.00    +0.000 HD
BRANCH  13  15
ATOM     15  C   UNL     1      26.517   0.064  53.005  0.00  0.00    +0.034 A 
ATOM     16  C   UNL     1      27.087  -1.194  52.756  0.00  0.00    -0.038 A 
ATOM     17  C   UNL     1      28.433  -1.431  53.050  0.00  0.00    -0.023 A 
ATOM     18  C   UNL     1      29.219  -0.420  53.608  0.00  0.00    +0.142 A 
ATOM     19  F   UNL     1      30.524  -0.663  53.892  0.00  0.00    -0.204 F 
ATOM     20  C   UNL     1      28.657   0.833  53.879  0.00  0.00    +0.078 A 
ATOM     21 CL   UNL     1      29.630   2.105  54.598  0.00  0.00    -0.081 Cl
ATOM     22  C   UNL     1      27.309   1.073  53.585  0.00  0.00    -0.019 A 
ENDBRANCH  13  15
ENDBRANCH   7  13
BRANCH  10  23
ATOM     23  O   UNL     1      20.539   1.040  50.292  0.00  0.00    -0.488 OA
BRANCH  23  24
ATOM     24  C   UNL     1      21.341   1.121  49.115  0.00  0.00    +0.091 C 
BRANCH  24  25
ATOM     25  C   UNL     1      21.220   2.515  48.497  0.00  0.00    -0.006 C 
BRANCH  25  26
ATOM     26  C   UNL     1      21.325   3.619  49.573  0.00  0.00    +0.002 C 
BRANCH  26  27
ATOM     27  N   UNL     1      22.497   3.495  50.468  0.00  0.00    -0.298 N 
ATOM     28  C   UNL     1      22.317   4.166  51.770  0.00  0.00    +0.022 C 
ATOM     29  C   UNL     1      23.634   4.158  52.571  0.00  0.00    +0.060 C 
ATOM     30  O   UNL     1      24.505   3.152  52.091  0.00  0.00    -0.377 OA
ATOM     31  C   UNL     1      24.941   3.471  50.779  0.00  0.00    +0.060 C 
ATOM     32  C   UNL     1      23.777   3.862  49.842  0.00  0.00    +0.022 C 
ATOM     33  H   UNL     1      22.552   2.494  50.655  0.00  0.00    +0.000 HD
ENDBRANCH  26  27
ENDBRANCH  25  26
ENDBRANCH  24  25
ENDBRANCH  23  24
ENDBRANCH  10  23
TORSDOF 8
ENDMDL
MODEL 2
REMARK VINA RESULT:    -7.920      3.803      5.130
REMARK INTER + INTRA:         -13.525
REMARK INTER:                 -12.666
REMARK INTRA:                  -0.859
REMARK UNBOUND:                -1.901
REMARK  Name = 
REMARK  9 active torsions:
REMARK  status: ('A' for Active; 'I' for Inactive)
REMARK    1  A    between atoms: C_1  and  O_2
REMARK    2  A    between atoms: O_2  and  C_3
REMARK    3  A    between atoms: C_9  and  N_10
REMARK    4  A    between atoms: N_10  and  C_11
REMARK    5  A    between atoms: C_21  and  O_22
REMARK    6  A    between atoms: O_22  and  C_23
REMARK    7  A    between atoms: C_23  and  C_24
REMARK    8  A    between atoms: C_24  and  C_25
REMARK    9  A    between atoms: C_25  and  N_26
REMARK                            x       y       z     vdW  Elec       q    Type
REMARK                         _______ _______ _______ _____ _____    ______ ____
ROOT
ATOM      1  C   UNL     1      22.997   2.745  49.412  0.00  0.00    +0.164 A 
ATOM      2  C   UNL     1      22.307   1.768  50.153  0.00  0.00    +0.010 A 
ATOM      3  C   UNL     1      22.839   1.281  51.350  0.00  0.00    +0.080 A 
ATOM      4  N   UNL     1      22.168   0.325  52.043  0.00  0.00    -0.235 NA
ATOM      5  C   UNL     1      22.661  -0.172  53.204  0.00  0.00    +0.119 A 
ATOM      6  N   UNL     1      23.837   0.289  53.698  0.00  0.00    -0.220 NA
ATOM      7  C   UNL     1      24.558   1.245  53.051  0.00  0.00    +0.134 A 
ATOM      8  C   UNL     1      24.069   1.772  51.834  0.00  0.00    +0.044 A 
ATOM      9  C   UNL     1      24.766   2.737  51.083  0.00  0.00    -0.004 A 
ATOM     10  C   UNL     1      24.230   3.227  49.876  0.00  0.00    +0.163 A 
ENDROOT
BRANCH   1  12
ATOM     11  C   UNL     1      21.261   2.865  47.613  0.00  0.00    +0.079 C 
ATOM     12  O   UNL     1      22.493   3.259  48.207  0.00  0.00    -0.491 OA
ENDBRANCH   1  12
BRANCH   7  13
ATOM     13  N   UNL     1      25.771   1.735  53.649  0.00  0.00    -0.299 N 
ATOM     14  H   UNL     1      25.758   2.627  54.066  0.00  0.00    +0.000 HD
BRANCH  13  15
ATOM     15  C   UNL     1      27.000   0.989  53.671  0.00  0.00    +0.034 A 
ATOM     16  C   UNL     1      28.197   1.638  54.013  0.00  0.00    -0.038 A 
ATOM     17  C   UNL     1      29.405   0.936  54.023  0.00  0.00    -0.023 A 
ATOM     18  C   UNL     1      29.433  -0.418  53.679  0.00  0.00    +0.142 A 
ATOM     19  F   UNL     1      30.612  -1.089  53.690  0.00  0.00    -0.204 F 
ATOM     20  C   UNL     1      28.249  -1.072  53.317  0.00  0.00    +0.078 A 
ATOM     21 CL   UNL     1      28.276  -2.767  52.864  0.00  0.00    -0.081 Cl
ATOM     22  C   UNL     1      27.038  -0.370  53.307  0.00  0.00    -0.019 A 
ENDBRANCH  13  15
ENDBRANCH   7  13
BRANCH  10  23
ATOM     23  O   UNL     1      24.895   4.193  49.104  0.00  0.00    -0.488 OA
BRANCH  23  24
ATOM     24  C   UNL     1      25.872   5.104  49.606  0.00  0.00    +0.091 C 
BRANCH  24  25
ATOM     25  C   UNL     1      27.173   4.960  48.814  0.00  0.00    -0.006 C 
BRANCH  25  26
ATOM     26  C   UNL     1      27.758   6.339  48.436  0.00  0.00    +0.002 C 
BRANCH  26  27
ATOM     27  N   UNL     1      29.169   6.537  48.833  0.00  0.00    -0.298 N 
ATOM     28  C   UNL     1      29.616   7.940  48.739  0.00  0.00    +0.022 C 
ATOM     29  C   UNL     1      31.135   8.044  48.983  0.00  0.00    +0.060 C 
ATOM     30  O   UNL     1      31.610   6.901  49.667  0.00  0.00    -0.377 OA
ATOM     31  C   UNL     1      31.506   5.757  48.834  0.00  0.00    +0.060 C 
ATOM     32  C   UNL     1      30.116   5.622  48.176  0.00  0.00    +0.022 C 
ATOM     33  H   UNL     1      29.179   6.289  49.822  0.00  0.00    +0.000 HD
ENDBRANCH  26  27
ENDBRANCH  25  26
ENDBRANCH  24  25
ENDBRANCH  23  24
ENDBRANCH  10  23
TORSDOF 8
ENDMDL
MODEL 3
REMARK VINA RESULT:    -7.654      3.744      6.205
REMARK INTER + INTRA:         -13.135
REMARK INTER:                 -11.860
REMARK INTRA:                  -1.275
REMARK UNBOUND:                -1.901
REMARK  Name = 
REMARK  9 active torsions:
REMARK  status: ('A' for Active; 'I' for Inactive)
REMARK    1  A    between atoms: C_1  and  O_2
REMARK    2  A    between atoms: O_2  and  C_3
REMARK    3  A    between atoms: C_9  and  N_10
REMARK    4  A    between atoms: N_10  and  C_11
REMARK    5  A    between atoms: C_21  and  O_22
REMARK    6  A    between atoms: O_22  and  C_23
REMARK    7  A    between atoms: C_23  and  C_24
REMARK    8  A    between atoms: C_24  and  C_25
REMARK    9  A    between atoms: C_25  and  N_26
REMARK                            x       y       z     vdW  Elec       q    Type
REMARK                         _______ _______ _______ _____ _____    ______ ____
ROOT
ATOM      1  C   UNL     1      26.532  -0.025  53.503  0.00  0.00    +0.164 A 
ATOM      2  C   UNL     1      25.704  -0.681  54.432  0.00  0.00    +0.010 A 
ATOM      3  C   UNL     1      24.317  -0.686  54.264  0.00  0.00    +0.080 A 
ATOM      4  N   UNL     1      23.531  -1.309  55.181  0.00  0.00    -0.235 NA
ATOM      5  C   UNL     1      22.182  -1.326  55.049  0.00  0.00    +0.119 A 
ATOM      6  N   UNL     1      21.594  -0.724  53.984  0.00  0.00    -0.220 NA
ATOM      7  C   UNL     1      22.325  -0.083  53.032  0.00  0.00    +0.134 A 
ATOM      8  C   UNL     1      23.732  -0.044  53.153  0.00  0.00    +0.044 A 
ATOM      9  C   UNL     1      24.561   0.626  52.233  0.00  0.00    -0.004 A 
ATOM     10  C   UNL     1      25.959   0.632  52.404  0.00  0.00    +0.163 A 
ENDROOT
BRANCH   1  12
ATOM     11  C   UNL     1      28.618   0.223  54.865  0.00  0.00    +0.079 C 
ATOM     12  O   UNL     1      27.929  -0.000  53.638  0.00  0.00    -0.491 OA
ENDBRANCH   1  12
BRANCH   7  13
ATOM     13  N   UNL     1      21.651   0.490  51.897  0.00  0.00    -0.299 N 
ATOM     14  H   UNL     1      21.070  -0.094  51.356  0.00  0.00    +0.000 HD
BRANCH  13  15
ATOM     15  C   UNL     1      21.780   1.869  51.513  0.00  0.00    +0.034 A 
ATOM     16  C   UNL     1      21.446   2.877  52.432  0.00  0.00    -0.038 A 
ATOM     17  C   UNL     1      21.548   4.224  52.073  0.00  0.00    -0.023 A 
ATOM     18  C   UNL     1      21.972   4.579  50.789  0.00  0.00    +0.142 A 
ATOM     19  F   UNL     1      22.065   5.889  50.451  0.00  0.00    -0.204 F 
ATOM     20  C   UNL     1      22.289   3.582  49.858  0.00  0.00    +0.078 A 
ATOM     21 CL   UNL     1      22.804   4.016  48.237  0.00  0.00    -0.081 Cl
ATOM     22  C   UNL     1      22.188   2.233  50.216  0.00  0.00    -0.019 A 
ENDBRANCH  13  15
ENDBRANCH   7  13
BRANCH  10  23
ATOM     23  O   UNL     1      26.817   1.284  51.504  0.00  0.00    -0.488 OA
BRANCH  23  24
ATOM     24  C   UNL     1      26.885   2.698  51.325  0.00  0.00    +0.091 C 
BRANCH  24  25
ATOM     25  C   UNL     1      26.131   3.101  50.057  0.00  0.00    -0.006 C 
BRANCH  25  26
ATOM     26  C   UNL     1      26.955   4.089  49.201  0.00  0.00    +0.002 C 
BRANCH  26  27
ATOM     27  N   UNL     1      26.770   5.513  49.559  0.00  0.00    -0.298 N 
ATOM     28  C   UNL     1      25.401   5.835  50.007  0.00  0.00    +0.022 C 
ATOM     29  C   UNL     1      25.230   7.357  50.181  0.00  0.00    +0.060 C 
ATOM     30  O   UNL     1      26.488   7.988  50.321  0.00  0.00    -0.377 OA
ATOM     31  C   UNL     1      27.218   7.893  49.108  0.00  0.00    +0.060 C 
ATOM     32  C   UNL     1      27.241   6.459  48.535  0.00  0.00    +0.022 C 
ATOM     33  H   UNL     1      27.383   5.642  50.364  0.00  0.00    +0.000 HD
ENDBRANCH  26  27
ENDBRANCH  25  26
ENDBRANCH  24  25
ENDBRANCH  23  24
ENDBRANCH  10  23
TORSDOF 8
ENDMDL
MODEL 4
REMARK VINA RESULT:    -7.521      3.883      7.222
REMARK INTER + INTRA:         -12.940
REMARK INTER:                 -11.883
REMARK INTRA:                  -1.057
REMARK UNBOUND:                -1.901
REMARK  Name = 
REMARK  9 active torsions:
REMARK  status: ('A' for Active; 'I' for Inactive)
REMARK    1  A    between atoms: C_1  and  O_2
REMARK    2  A    between atoms: O_2  and  C_3
REMARK    3  A    between atoms: C_9  and  N_10
REMARK    4  A    between atoms: N_10  and  C_11
REMARK    5  A    between atoms: C_21  and  O_22
REMARK    6  A    between atoms: O_22  and  C_23
REMARK    7  A    between atoms: C_23  and  C_24
REMARK    8  A    between atoms: C_24  and  C_25
REMARK    9  A    between atoms: C_25  and  N_26
REMARK                            x       y       z     vdW  Elec       q    Type
REMARK                         _______ _______ _______ _____ _____    ______ ____
ROOT
ATOM      1  C   UNL     1      22.009   2.633  52.216  0.00  0.00    +0.164 A 
ATOM      2  C   UNL     1      21.161   3.562  51.586  0.00  0.00    +0.010 A 
ATOM      3  C   UNL     1      21.626   4.839  51.262  0.00  0.00    +0.080 A 
ATOM      4  N   UNL     1      20.788   5.729  50.671  0.00  0.00    -0.235 NA
ATOM      5  C   UNL     1      21.208   6.978  50.350  0.00  0.00    +0.119 A 
ATOM      6  N   UNL     1      22.485   7.355  50.609  0.00  0.00    -0.220 NA
ATOM      7  C   UNL     1      23.373   6.511  51.201  0.00  0.00    +0.134 A 
ATOM      8  C   UNL     1      22.956   5.207  51.553  0.00  0.00    +0.044 A 
ATOM      9  C   UNL     1      23.798   4.283  52.198  0.00  0.00    -0.004 A 
ATOM     10  C   UNL     1      23.329   2.996  52.526  0.00  0.00    +0.163 A 
ENDROOT
BRANCH   1  12
ATOM     11  C   UNL     1      21.147   0.361  51.617  0.00  0.00    +0.079 C 
ATOM     12  O   UNL     1      21.578   1.341  52.556  0.00  0.00    -0.491 OA
ENDBRANCH   1  12
BRANCH   7  13
ATOM     13  N   UNL     1      24.729   6.947  51.402  0.00  0.00    -0.299 N 
ATOM     14  H   UNL     1      25.006   7.207  52.311  0.00  0.00    +0.000 HD
BRANCH  13  15
ATOM     15  C   UNL     1      25.700   7.025  50.344  0.00  0.00    +0.034 A 
ATOM     16  C   UNL     1      25.940   5.898  49.542  0.00  0.00    -0.038 A 
ATOM     17  C   UNL     1      26.892   5.947  48.520  0.00  0.00    -0.023 A 
ATOM     18  C   UNL     1      27.624   7.116  48.297  0.00  0.00    +0.142 A 
ATOM     19  F   UNL     1      28.547   7.151  47.303  0.00  0.00    -0.204 F 
ATOM     20  C   UNL     1      27.407   8.240  49.102  0.00  0.00    +0.078 A 
ATOM     21 CL   UNL     1      28.334   9.708  48.843  0.00  0.00    -0.081 Cl
ATOM     22  C   UNL     1      26.453   8.193  50.126  0.00  0.00    -0.019 A 
ENDBRANCH  13  15
ENDBRANCH   7  13
BRANCH  10  23
ATOM     23  O   UNL     1      24.142   2.046  53.164  0.00  0.00    -0.488 OA
BRANCH  23  24
ATOM     24  C   UNL     1      24.985   1.112  52.490  0.00  0.00    +0.091 C 
BRANCH  24  25
ATOM     25  C   UNL     1      25.100  -0.173  53.310  0.00  0.00    -0.006 C 
BRANCH  25  26
ATOM     26  C   UNL     1      26.080  -0.002  54.492  0.00  0.00    +0.002 C 
BRANCH  26  27
ATOM     27  N   UNL     1      27.451  -0.493  54.229  0.00  0.00    -0.298 N 
ATOM     28  C   UNL     1      28.450   0.586  54.105  0.00  0.00    +0.022 C 
ATOM     29  C   UNL     1      29.808   0.019  53.647  0.00  0.00    +0.060 C 
ATOM     30  O   UNL     1      29.882  -1.370  53.906  0.00  0.00    -0.377 OA
ATOM     31  C   UNL     1      28.961  -2.069  53.084  0.00  0.00    +0.060 C 
ATOM     32  C   UNL     1      27.546  -1.450  53.114  0.00  0.00    +0.022 C 
ATOM     33  H   UNL     1      27.685  -1.019  55.071  0.00  0.00    +0.000 HD
ENDBRANCH  26  27
ENDBRANCH  25  26
ENDBRANCH  24  25
ENDBRANCH  23  24
ENDBRANCH  10  23
TORSDOF 8
ENDMDL
MODEL 5
REMARK VINA RESULT:    -7.353      2.422      3.027
REMARK INTER + INTRA:         -12.693
REMARK INTER:                 -11.596
REMARK INTRA:                  -1.097
REMARK UNBOUND:                -1.901
REMARK  Name = 
REMARK  9 active torsions:
REMARK  status: ('A' for Active; 'I' for Inactive)
REMARK    1  A    between atoms: C_1  and  O_2
REMARK    2  A    between atoms: O_2  and  C_3
REMARK    3  A    between atoms: C_9  and  N_10
REMARK    4  A    between atoms: N_10  and  C_11
REMARK    5  A    between atoms: C_21  and  O_22
REMARK    6  A    between atoms: O_22  and  C_23
REMARK    7  A    between atoms: C_23  and  C_24
REMARK    8  A    between atoms: C_24  and  C_25
REMARK    9  A    between atoms: C_25  and  N_26
REMARK                            x       y       z     vdW  Elec       q    Type
REMARK                         _______ _______ _______ _____ _____    ______ ____
ROOT
ATOM      1  C   UNL     1      20.663   2.318  51.323  0.00  0.00    +0.164 A 
ATOM      2  C   UNL     1      20.329   1.717  52.551  0.00  0.00    +0.010 A 
ATOM      3  C   UNL     1      21.224   0.849  53.180  0.00  0.00    +0.080 A 
ATOM      4  N   UNL     1      20.878   0.263  54.356  0.00  0.00    -0.235 NA
ATOM      5  C   UNL     1      21.722  -0.589  54.988  0.00  0.00    +0.119 A 
ATOM      6  N   UNL     1      22.939  -0.862  54.455  0.00  0.00    -0.220 NA
ATOM      7  C   UNL     1      23.346  -0.309  53.279  0.00  0.00    +0.134 A 
ATOM      8  C   UNL     1      22.479   0.575  52.598  0.00  0.00    +0.044 A 
ATOM      9  C   UNL     1      22.805   1.163  51.362  0.00  0.00    -0.004 A 
ATOM     10  C   UNL     1      21.901   2.037  50.726  0.00  0.00    +0.163 A 
ENDROOT
BRANCH   1  12
ATOM     11  C   UNL     1      18.530   2.822  50.114  0.00  0.00    +0.079 C 
ATOM     12  O   UNL     1      19.790   3.196  50.662  0.00  0.00    -0.491 OA
ENDBRANCH   1  12
BRANCH   7  13
ATOM     13  N   UNL     1      24.668  -0.594  52.790  0.00  0.00    -0.299 N 
ATOM     14  H   UNL     1      24.790  -1.373  52.200  0.00  0.00    +0.000 HD
BRANCH  13  15
ATOM     15  C   UNL     1      25.821   0.200  53.119  0.00  0.00    +0.034 A 
ATOM     16  C   UNL     1      25.675   1.582  53.318  0.00  0.00    -0.038 A 
ATOM     17  C   UNL     1      26.786   2.374  53.622  0.00  0.00    -0.023 A 
ATOM     18  C   UNL     1      28.055   1.798  53.715  0.00  0.00    +0.142 A 
ATOM     19  F   UNL     1      29.127   2.578  54.008  0.00  0.00    -0.204 F 
ATOM     20  C   UNL     1      28.217   0.424  53.499  0.00  0.00    +0.078 A 
ATOM     21 CL   UNL     1      29.809  -0.307  53.595  0.00  0.00    -0.081 Cl
ATOM     22  C   UNL     1      27.105  -0.371  53.196  0.00  0.00    -0.019 A 
ENDBRANCH  13  15
ENDBRANCH   7  13
BRANCH  10  23
ATOM     23  O   UNL     1      22.195   2.647  49.496  0.00  0.00    -0.488 OA
BRANCH  23  24
ATOM     24  C   UNL     1      22.922   3.865  49.346  0.00  0.00    +0.091 C 
BRANCH  24  25
ATOM     25  C   UNL     1      23.551   4.266  50.681  0.00  0.00    -0.006 C 
BRANCH  25  26
ATOM     26  C   UNL     1      25.093   4.292  50.594  0.00  0.00    +0.002 C 
BRANCH  26  27
ATOM     27  N   UNL     1      25.669   5.624  50.305  0.00  0.00    -0.298 N 
ATOM     28  C   UNL     1      24.780   6.742  50.672  0.00  0.00    +0.022 C 
ATOM     29  C   UNL     1      25.358   8.082  50.174  0.00  0.00    +0.060 C 
ATOM     30  O   UNL     1      26.745   7.964  49.923  0.00  0.00    -0.377 OA
ATOM     31  C   UNL     1      26.970   7.100  48.821  0.00  0.00    +0.060 C 
ATOM     32  C   UNL     1      26.189   5.772  48.936  0.00  0.00    +0.022 C 
ATOM     33  H   UNL     1      26.481   5.675  50.920  0.00  0.00    +0.000 HD
ENDBRANCH  26  27
ENDBRANCH  25  26
ENDBRANCH  24  25
ENDBRANCH  23  24
ENDBRANCH  10  23
TORSDOF 8
ENDMDL
MODEL 6
REMARK VINA RESULT:    -7.327      2.628      4.355
REMARK INTER + INTRA:         -12.656
REMARK INTER:                 -10.812
REMARK INTRA:                  -1.844
REMARK UNBOUND:                -1.901
REMARK  Name = 
REMARK  9 active torsions:
REMARK  status: ('A' for Active; 'I' for Inactive)
REMARK    1  A    between atoms: C_1  and  O_2
REMARK    2  A    between atoms: O_2  and  C_3
REMARK    3  A    between atoms: C_9  and  N_10
REMARK    4  A    between atoms: N_10  and  C_11
REMARK    5  A    between atoms: C_21  and  O_22
REMARK    6  A    between atoms: O_22  and  C_23
REMARK    7  A    between atoms: C_23  and  C_24
REMARK    8  A    between atoms: C_24  and  C_25
REMARK    9  A    between atoms: C_25  and  N_26
REMARK                            x       y       z     vdW  Elec       q    Type
REMARK                         _______ _______ _______ _____ _____    ______ ____
ROOT
ATOM      1  C   UNL     1      23.186   3.459  49.683  0.00  0.00    +0.164 A 
ATOM      2  C   UNL     1      22.189   2.474  49.802  0.00  0.00    +0.010 A 
ATOM      3  C   UNL     1      22.247   1.529  50.829  0.00  0.00    +0.080 A 
ATOM      4  N   UNL     1      21.286   0.573  50.918  0.00  0.00    -0.235 NA
ATOM      5  C   UNL     1      21.318  -0.362  51.900  0.00  0.00    +0.119 A 
ATOM      6  N   UNL     1      22.314  -0.349  52.820  0.00  0.00    -0.220 NA
ATOM      7  C   UNL     1      23.308   0.581  52.786  0.00  0.00    +0.134 A 
ATOM      8  C   UNL     1      23.300   1.560  51.766  0.00  0.00    +0.044 A 
ATOM      9  C   UNL     1      24.306   2.536  51.636  0.00  0.00    -0.004 A 
ATOM     10  C   UNL     1      24.248   3.487  50.599  0.00  0.00    +0.163 A 
ENDROOT
BRANCH   1  12
ATOM     11  C   UNL     1      22.380   4.328  47.478  0.00  0.00    +0.079 C 
ATOM     12  O   UNL     1      23.160   4.426  48.665  0.00  0.00    -0.491 OA
ENDBRANCH   1  12
BRANCH   7  13
ATOM     13  N   UNL     1      24.308   0.578  53.819  0.00  0.00    -0.299 N 
ATOM     14  H   UNL     1      24.048   0.878  54.721  0.00  0.00    +0.000 HD
BRANCH  13  15
ATOM     15  C   UNL     1      25.667   0.159  53.605  0.00  0.00    +0.034 A 
ATOM     16  C   UNL     1      25.920  -1.053  52.943  0.00  0.00    -0.038 A 
ATOM     17  C   UNL     1      27.233  -1.487  52.740  0.00  0.00    -0.023 A 
ATOM     18  C   UNL     1      28.306  -0.723  53.207  0.00  0.00    +0.142 A 
ATOM     19  F   UNL     1      29.576  -1.155  53.006  0.00  0.00    -0.204 F 
ATOM     20  C   UNL     1      28.065   0.478  53.886  0.00  0.00    +0.078 A 
ATOM     21 CL   UNL     1      29.404   1.436  54.494  0.00  0.00    -0.081 Cl
ATOM     22  C   UNL     1      26.751   0.914  54.090  0.00  0.00    -0.019 A 
ENDBRANCH  13  15
ENDBRANCH   7  13
BRANCH  10  23
ATOM     23  O   UNL     1      25.230   4.479  50.442  0.00  0.00    -0.488 OA
BRANCH  23  24
ATOM     24  C   UNL     1      26.374   4.363  49.598  0.00  0.00    +0.091 C 
BRANCH  24  25
ATOM     25  C   UNL     1      26.574   5.660  48.811  0.00  0.00    -0.006 C 
BRANCH  25  26
ATOM     26  C   UNL     1      26.033   6.881  49.588  0.00  0.00    +0.002 C 
BRANCH  26  27
ATOM     27  N   UNL     1      24.578   7.104  49.445  0.00  0.00    -0.298 N 
ATOM     28  C   UNL     1      24.212   7.835  48.216  0.00  0.00    +0.022 C 
ATOM     29  C   UNL     1      22.714   8.196  48.224  0.00  0.00    +0.060 C 
ATOM     30  O   UNL     1      22.006   7.371  49.130  0.00  0.00    -0.377 OA
ATOM     31  C   UNL     1      22.403   7.657  50.462  0.00  0.00    +0.060 C 
ATOM     32  C   UNL     1      23.937   7.690  50.634  0.00  0.00    +0.022 C 
ATOM     33  H   UNL     1      24.196   6.163  49.355  0.00  0.00    +0.000 HD
ENDBRANCH  26  27
ENDBRANCH  25  26
ENDBRANCH  24  25
ENDBRANCH  23  24
ENDBRANCH  10  23
TORSDOF 8
ENDMDL
MODEL 7
REMARK VINA RESULT:    -7.302      3.844      6.713
REMARK INTER + INTRA:         -12.618
REMARK INTER:                 -11.262
REMARK INTRA:                  -1.356
REMARK UNBOUND:                -1.901
REMARK  Name = 
REMARK  9 active torsions:
REMARK  status: ('A' for Active; 'I' for Inactive)
REMARK    1  A    between atoms: C_1  and  O_2
REMARK    2  A    between atoms: O_2  and  C_3
REMARK    3  A    between atoms: C_9  and  N_10
REMARK    4  A    between atoms: N_10  and  C_11
REMARK    5  A    between atoms: C_21  and  O_22
REMARK    6  A    between atoms: O_22  and  C_23
REMARK    7  A    between atoms: C_23  and  C_24
REMARK    8  A    between atoms: C_24  and  C_25
REMARK    9  A    between atoms: C_25  and  N_26
REMARK                            x       y       z     vdW  Elec       q    Type
REMARK                         _______ _______ _______ _____ _____    ______ ____
ROOT
ATOM      1  C   UNL     1      26.848   0.860  53.058  0.00  0.00    +0.164 A 
ATOM      2  C   UNL     1      26.255  -0.089  53.911  0.00  0.00    +0.010 A 
ATOM      3  C   UNL     1      24.864  -0.176  54.014  0.00  0.00    +0.080 A 
ATOM      4  N   UNL     1      24.309  -1.086  54.856  0.00  0.00    -0.235 NA
ATOM      5  C   UNL     1      22.963  -1.191  54.982  0.00  0.00    +0.119 A 
ATOM      6  N   UNL     1      22.146  -0.388  54.256  0.00  0.00    -0.220 NA
ATOM      7  C   UNL     1      22.639   0.544  53.396  0.00  0.00    +0.134 A 
ATOM      8  C   UNL     1      24.039   0.678  53.254  0.00  0.00    +0.044 A 
ATOM      9  C   UNL     1      24.634   1.639  52.415  0.00  0.00    -0.004 A 
ATOM     10  C   UNL     1      26.036   1.728  52.312  0.00  0.00    +0.163 A 
ENDROOT
BRANCH   1  12
ATOM     11  C   UNL     1      29.143   1.143  54.017  0.00  0.00    +0.079 C 
ATOM     12  O   UNL     1      28.241   0.977  52.928  0.00  0.00    -0.491 OA
ENDBRANCH   1  12
BRANCH   7  13
ATOM     13  N   UNL     1      21.724   1.330  52.613  0.00  0.00    -0.299 N 
ATOM     14  H   UNL     1      21.955   2.269  52.428  0.00  0.00    +0.000 HD
BRANCH  13  15
ATOM     15  C   UNL     1      20.489   0.815  52.086  0.00  0.00    +0.034 A 
ATOM     16  C   UNL     1      20.080   1.185  50.795  0.00  0.00    -0.038 A 
ATOM     17  C   UNL     1      18.875   0.710  50.271  0.00  0.00    -0.023 A 
ATOM     18  C   UNL     1      18.059  -0.130  51.035  0.00  0.00    +0.142 A 
ATOM     19  F   UNL     1      16.890  -0.583  50.517  0.00  0.00    -0.204 F 
ATOM     20  C   UNL     1      18.447  -0.490  52.331  0.00  0.00    +0.078 A 
ATOM     21 CL   UNL     1      17.422  -1.528  53.306  0.00  0.00    -0.081 Cl
ATOM     22  C   UNL     1      19.654  -0.015  52.857  0.00  0.00    -0.019 A 
ENDBRANCH  13  15
ENDBRANCH   7  13
BRANCH  10  23
ATOM     23  O   UNL     1      26.664   2.669  51.480  0.00  0.00    -0.488 OA
BRANCH  23  24
ATOM     24  C   UNL     1      26.466   2.768  50.071  0.00  0.00    +0.091 C 
BRANCH  24  25
ATOM     25  C   UNL     1      25.666   4.030  49.744  0.00  0.00    -0.006 C 
BRANCH  25  26
ATOM     26  C   UNL     1      24.223   3.686  49.311  0.00  0.00    +0.002 C 
BRANCH  26  27
ATOM     27  N   UNL     1      23.190   3.983  50.329  0.00  0.00    -0.298 N 
ATOM     28  C   UNL     1      21.901   4.409  49.752  0.00  0.00    +0.022 C 
ATOM     29  C   UNL     1      20.938   4.879  50.861  0.00  0.00    +0.060 C 
ATOM     30  O   UNL     1      21.336   4.366  52.117  0.00  0.00    -0.377 OA
ATOM     31  C   UNL     1      22.571   4.944  52.511  0.00  0.00    +0.060 C 
ATOM     32  C   UNL     1      23.635   4.896  51.393  0.00  0.00    +0.022 C 
ATOM     33  H   UNL     1      23.030   3.082  50.780  0.00  0.00    +0.000 HD
ENDBRANCH  26  27
ENDBRANCH  25  26
ENDBRANCH  24  25
ENDBRANCH  23  24
ENDBRANCH  10  23
TORSDOF 8
ENDMDL
MODEL 8
REMARK VINA RESULT:    -7.269      4.138      6.892
REMARK INTER + INTRA:         -12.571
REMARK INTER:                 -11.053
REMARK INTRA:                  -1.518
REMARK UNBOUND:                -1.901
REMARK  Name = 
REMARK  9 active torsions:
REMARK  status: ('A' for Active; 'I' for Inactive)
REMARK    1  A    between atoms: C_1  and  O_2
REMARK    2  A    between atoms: O_2  and  C_3
REMARK    3  A    between atoms: C_9  and  N_10
REMARK    4  A    between atoms: N_10  and  C_11
REMARK    5  A    between atoms: C_21  and  O_22
REMARK    6  A    between atoms: O_22  and  C_23
REMARK    7  A    between atoms: C_23  and  C_24
REMARK    8  A    between atoms: C_24  and  C_25
REMARK    9  A    between atoms: C_25  and  N_26
REMARK                            x       y       z     vdW  Elec       q    Type
REMARK                         _______ _______ _______ _____ _____    ______ ____
ROOT
ATOM      1  C   UNL     1      26.110  -0.173  53.348  0.00  0.00    +0.164 A 
ATOM      2  C   UNL     1      25.171  -0.774  54.206  0.00  0.00    +0.010 A 
ATOM      3  C   UNL     1      23.808  -0.502  54.065  0.00  0.00    +0.080 A 
ATOM      4  N   UNL     1      22.917  -1.076  54.914  0.00  0.00    -0.235 NA
ATOM      5  C   UNL     1      21.588  -0.827  54.807  0.00  0.00    +0.119 A 
ATOM      6  N   UNL     1      21.127  -0.000  53.835  0.00  0.00    -0.220 NA
ATOM      7  C   UNL     1      21.967   0.608  52.954  0.00  0.00    +0.134 A 
ATOM      8  C   UNL     1      23.357   0.370  53.052  0.00  0.00    +0.044 A 
ATOM      9  C   UNL     1      24.299   0.983  52.205  0.00  0.00    -0.004 A 
ATOM     10  C   UNL     1      25.674   0.710  52.348  0.00  0.00    +0.163 A 
ENDROOT
BRANCH   1  12
ATOM     11  C   UNL     1      28.305   0.022  54.535  0.00  0.00    +0.079 C 
ATOM     12  O   UNL     1      27.487  -0.424  53.458  0.00  0.00    -0.491 OA
ENDBRANCH   1  12
BRANCH   7  13
ATOM     13  N   UNL     1      21.416   1.431  51.911  0.00  0.00    -0.299 N 
ATOM     14  H   UNL     1      22.030   1.996  51.389  0.00  0.00    +0.000 HD
BRANCH  13  15
ATOM     15  C   UNL     1      20.014   1.470  51.593  0.00  0.00    +0.034 A 
ATOM     16  C   UNL     1      19.410   0.355  50.991  0.00  0.00    -0.038 A 
ATOM     17  C   UNL     1      18.053   0.379  50.657  0.00  0.00    -0.023 A 
ATOM     18  C   UNL     1      17.288   1.521  50.908  0.00  0.00    +0.142 A 
ATOM     19  F   UNL     1      15.972   1.534  50.578  0.00  0.00    -0.204 F 
ATOM     20  C   UNL     1      17.884   2.647  51.490  0.00  0.00    +0.078 A 
ATOM     21 CL   UNL     1      16.937   4.093  51.791  0.00  0.00    -0.081 Cl
ATOM     22  C   UNL     1      19.243   2.624  51.825  0.00  0.00    -0.019 A 
ENDBRANCH  13  15
ENDBRANCH   7  13
BRANCH  10  23
ATOM     23  O   UNL     1      26.641   1.298  51.518  0.00  0.00    -0.488 OA
BRANCH  23  24
ATOM     24  C   UNL     1      26.804   2.703  51.329  0.00  0.00    +0.091 C 
BRANCH  24  25
ATOM     25  C   UNL     1      26.355   3.095  49.921  0.00  0.00    -0.006 C 
BRANCH  25  26
ATOM     26  C   UNL     1      25.805   4.538  49.886  0.00  0.00    +0.002 C 
BRANCH  26  27
ATOM     27  N   UNL     1      24.330   4.634  49.963  0.00  0.00    -0.298 N 
ATOM     28  C   UNL     1      23.831   4.966  51.311  0.00  0.00    +0.022 C 
ATOM     29  C   UNL     1      22.294   4.865  51.362  0.00  0.00    +0.060 C 
ATOM     30  O   UNL     1      21.746   4.941  50.060  0.00  0.00    -0.377 OA
ATOM     31  C   UNL     1      22.108   3.792  49.310  0.00  0.00    +0.060 C 
ATOM     32  C   UNL     1      23.619   3.480  49.391  0.00  0.00    +0.022 C 
ATOM     33  H   UNL     1      24.108   5.427  49.361  0.00  0.00    +0.000 HD
ENDBRANCH  26  27
ENDBRANCH  25  26
ENDBRANCH  24  25
ENDBRANCH  23  24
ENDBRANCH  10  23
TORSDOF 8
ENDMDL
MODEL 9
REMARK VINA RESULT:    -7.219      2.824      5.757
REMARK INTER + INTRA:         -12.496
REMARK INTER:                 -11.047
REMARK INTRA:                  -1.449
REMARK UNBOUND:                -1.901
REMARK  Name = 
REMARK  9 active torsions:
REMARK  status: ('A' for Active; 'I' for Inactive)
REMARK    1  A    between atoms: C_1  and  O_2
REMARK    2  A    between atoms: O_2  and  C_3
REMARK    3  A    between atoms: C_9  and  N_10
REMARK    4  A    between atoms: N_10  and  C_11
REMARK    5  A    between atoms: C_21  and  O_22
REMARK    6  A    between atoms: O_22  and  C_23
REMARK    7  A    between atoms: C_23  and  C_24
REMARK    8  A    between atoms: C_24  and  C_25
REMARK    9  A    between atoms: C_25  and  N_26
REMARK                            x       y       z     vdW  Elec       q    Type
REMARK                         _______ _______ _______ _____ _____    ______ ____
ROOT
ATOM      1  C   UNL     1      19.890   1.036  51.995  0.00  0.00    +0.164 A 
ATOM      2  C   UNL     1      19.324   2.019  51.163  0.00  0.00    +0.010 A 
ATOM      3  C   UNL     1      20.016   3.203  50.895  0.00  0.00    +0.080 A 
ATOM      4  N   UNL     1      19.446   4.149  50.104  0.00  0.00    -0.235 NA
ATOM      5  C   UNL     1      20.090   5.312  49.830  0.00  0.00    +0.119 A 
ATOM      6  N   UNL     1      21.325   5.542  50.340  0.00  0.00    -0.220 NA
ATOM      7  C   UNL     1      21.950   4.635  51.140  0.00  0.00    +0.134 A 
ATOM      8  C   UNL     1      21.295   3.421  51.446  0.00  0.00    +0.044 A 
ATOM      9  C   UNL     1      21.853   2.444  52.292  0.00  0.00    -0.004 A 
ATOM     10  C   UNL     1      21.155   1.251  52.564  0.00  0.00    +0.163 A 
ENDROOT
BRANCH   1  12
ATOM     11  C   UNL     1      17.815  -0.294  52.433  0.00  0.00    +0.079 C 
ATOM     12  O   UNL     1      19.226  -0.166  52.286  0.00  0.00    -0.491 OA
ENDBRANCH   1  12
BRANCH   7  13
ATOM     13  N   UNL     1      23.282   4.911  51.607  0.00  0.00    -0.299 N 
ATOM     14  H   UNL     1      23.397   5.214  52.537  0.00  0.00    +0.000 HD
BRANCH  13  15
ATOM     15  C   UNL     1      24.454   4.768  50.785  0.00  0.00    +0.034 A 
ATOM     16  C   UNL     1      25.106   3.526  50.722  0.00  0.00    -0.038 A 
ATOM     17  C   UNL     1      26.256   3.370  49.944  0.00  0.00    -0.023 A 
ATOM     18  C   UNL     1      26.775   4.455  49.231  0.00  0.00    +0.142 A 
ATOM     19  F   UNL     1      27.893   4.292  48.481  0.00  0.00    -0.204 F 
ATOM     20  C   UNL     1      26.144   5.703  49.302  0.00  0.00    +0.078 A 
ATOM     21 CL   UNL     1      26.798   7.077  48.428  0.00  0.00    -0.081 Cl
ATOM     22  C   UNL     1      24.992   5.861  50.081  0.00  0.00    -0.019 A 
ENDBRANCH  13  15
ENDBRANCH   7  13
BRANCH  10  23
ATOM     23  O   UNL     1      21.682   0.252  53.397  0.00  0.00    -0.488 OA
BRANCH  23  24
ATOM     24  C   UNL     1      22.705  -0.667  53.017  0.00  0.00    +0.091 C 
BRANCH  24  25
ATOM     25  C   UNL     1      23.997  -0.350  53.772  0.00  0.00    -0.006 C 
BRANCH  25  26
ATOM     26  C   UNL     1      24.994   0.426  52.882  0.00  0.00    +0.002 C 
BRANCH  26  27
ATOM     27  N   UNL     1      26.376   0.478  53.408  0.00  0.00    -0.298 N 
ATOM     28  C   UNL     1      26.980   1.822  53.346  0.00  0.00    +0.022 C 
ATOM     29  C   UNL     1      28.472   1.767  53.732  0.00  0.00    +0.060 C 
ATOM     30  O   UNL     1      28.754   0.590  54.465  0.00  0.00    -0.377 OA
ATOM     31  C   UNL     1      28.604  -0.550  53.635  0.00  0.00    +0.060 C 
ATOM     32  C   UNL     1      27.274  -0.545  52.849  0.00  0.00    +0.022 C 
ATOM     33  H   UNL     1      26.267   0.247  54.396  0.00  0.00    +0.000 HD
ENDBRANCH  26  27
ENDBRANCH  25  26
ENDBRANCH  24  25
ENDBRANCH  23  24
ENDBRANCH  10  23
TORSDOF 8
ENDMDL
