MODEL 1
REMARK VINA RESULT:    -8.326      0.000      0.000
REMARK INTER + INTRA:         -10.884
REMARK INTER:                 -10.273
REMARK INTRA:                  -0.611
REMARK UNBOUND:                -0.611
REMARK  Name = 
REMARK  4 active torsions:
REMARK  status: ('A' for Active; 'I' for Inactive)
REMARK    1  A    between atoms: C_2  and  C_4
REMARK    2  A    between atoms: C_4  and  N_5
REMARK    3  A    between atoms: C_11  and  N_12
REMARK    4  A    between atoms: N_12  and  C_13
REMARK                            x       y       z     vdW  Elec       q    Type
REMARK                         _______ _______ _______ _____ _____    ______ ____
ROOT
ATOM      1  N   UNL     1      24.866  -0.441  54.029  0.00  0.00    -0.336 N 
ATOM      2  C   UNL     1      24.791  -1.075  55.224  0.00  0.00    +0.006 A 
ATOM      3  C   UNL     1      23.469  -1.368  55.539  0.00  0.00    -0.036 A 
ATOM      4  C   UNL     1      22.725  -0.873  54.488  0.00  0.00    +0.001 A 
ATOM      5  C   UNL     1      21.349  -0.879  54.282  0.00  0.00    -0.040 A 
ATOM      6  C   UNL     1      20.849  -0.272  53.104  0.00  0.00    +0.041 A 
ATOM      7  C   UNL     1      19.473  -0.225  52.794  0.00  0.00    +0.134 A 
ATOM      8  N   UNL     1      19.075   0.351  51.627  0.00  0.00    -0.220 NA
ATOM      9  C   UNL     1      19.962   0.881  50.749  0.00  0.00    +0.119 A 
ATOM     10  N   UNL     1      21.290   0.855  51.021  0.00  0.00    -0.235 NA
ATOM     11  C   UNL     1      21.760   0.299  52.166  0.00  0.00    +0.078 A 
ATOM     12  C   UNL     1      23.146   0.286  52.413  0.00  0.00    -0.011 A 
ATOM     13  C   UNL     1      23.597  -0.313  53.590  0.00  0.00    +0.052 A 
ENDROOT
BRANCH   7  14
ATOM     14  N   UNL     1      18.480  -0.722  53.709  0.00  0.00    -0.299 N 
ATOM     15  H   UNL     1      18.453  -0.346  54.619  0.00  0.00    +0.000 HD
BRANCH  14  16
ATOM     16  C   UNL     1      17.523  -1.738  53.363  0.00  0.00    +0.033 A 
ATOM     17  C   UNL     1      17.762  -3.070  53.736  0.00  0.00    -0.040 A 
ATOM     18  C   UNL     1      16.855  -4.076  53.393  0.00  0.00    -0.059 A 
ATOM     19  C   UNL     1      15.706  -3.763  52.661  0.00  0.00    -0.048 A 
ATOM     20  C   UNL     1      15.467  -2.444  52.266  0.00  0.00    +0.020 A 
ATOM     21 BR   UNL     1      13.907  -2.021  51.247  0.00  0.00    -0.050 Br
ATOM     22  C   UNL     1      16.373  -1.435  52.609  0.00  0.00    -0.027 A 
ENDBRANCH  14  16
ENDBRANCH   7  14
BRANCH   1  23
ATOM     23  C   UNL     1      26.086   0.069  53.404  0.00  0.00    +0.120 C 
BRANCH  23  25
ATOM     24  O   UNL     1      26.450  -1.992  52.254  0.00  0.00    -0.249 OA
ATOM     25  C   UNL     1      26.944  -1.069  52.955  0.00  0.00    +0.325 C 
ATOM     26  O   UNL     1      28.277  -1.131  53.348  0.00  0.00    -0.479 OA
ENDBRANCH  23  25
ENDBRANCH   1  23
TORSDOF 4
ENDMDL
MODEL 2
REMARK VINA RESULT:    -8.243      6.986      9.314
REMARK INTER + INTRA:         -10.782
REMARK INTER:                  -9.957
REMARK INTRA:                  -0.824
REMARK UNBOUND:                -0.611
REMARK  Name = 
REMARK  4 active torsions:
REMARK  status: ('A' for Active; 'I' for Inactive)
REMARK    1  A    between atoms: C_2  and  C_4
REMARK    2  A    between atoms: C_4  and  N_5
REMARK    3  A    between atoms: C_11  and  N_12
REMARK    4  A    between atoms: N_12  and  C_13
REMARK                            x       y       z     vdW  Elec       q    Type
REMARK                         _______ _______ _______ _____ _____    ______ ____
ROOT
ATOM      1  N   UNL     1      27.251   7.033  48.597  0.00  0.00    -0.336 N 
ATOM      2  C   UNL     1      28.241   6.259  48.091  0.00  0.00    +0.006 A 
ATOM      3  C   UNL     1      28.035   4.925  48.423  0.00  0.00    -0.036 A 
ATOM      4  C   UNL     1      26.877   4.909  49.171  0.00  0.00    +0.001 A 
ATOM      5  C   UNL     1      26.211   3.844  49.770  0.00  0.00    -0.040 A 
ATOM      6  C   UNL     1      25.034   4.124  50.507  0.00  0.00    +0.041 A 
ATOM      7  C   UNL     1      24.280   3.121  51.151  0.00  0.00    +0.134 A 
ATOM      8  N   UNL     1      23.144   3.469  51.816  0.00  0.00    -0.220 NA
ATOM      9  C   UNL     1      22.711   4.753  51.875  0.00  0.00    +0.119 A 
ATOM     10  N   UNL     1      23.418   5.740  51.271  0.00  0.00    -0.235 NA
ATOM     11  C   UNL     1      24.561   5.468  50.592  0.00  0.00    +0.078 A 
ATOM     12  C   UNL     1      25.265   6.517  49.971  0.00  0.00    -0.011 A 
ATOM     13  C   UNL     1      26.425   6.200  49.264  0.00  0.00    +0.052 A 
ENDROOT
BRANCH   7  14
ATOM     14  N   UNL     1      24.714   1.750  51.170  0.00  0.00    -0.299 N 
ATOM     15  H   UNL     1      24.573   1.204  50.362  0.00  0.00    +0.000 HD
BRANCH  14  16
ATOM     16  C   UNL     1      25.345   1.135  52.307  0.00  0.00    +0.033 A 
ATOM     17  C   UNL     1      24.595   0.290  53.141  0.00  0.00    -0.040 A 
ATOM     18  C   UNL     1      25.183  -0.302  54.262  0.00  0.00    -0.059 A 
ATOM     19  C   UNL     1      26.522  -0.046  54.568  0.00  0.00    -0.048 A 
ATOM     20  C   UNL     1      27.273   0.810  53.757  0.00  0.00    +0.020 A 
ATOM     21 BR   UNL     1      29.098   1.177  54.189  0.00  0.00    -0.050 Br
ATOM     22  C   UNL     1      26.688   1.404  52.634  0.00  0.00    -0.027 A 
ENDBRANCH  14  16
ENDBRANCH   7  14
BRANCH   1  23
ATOM     23  C   UNL     1      27.165   8.490  48.498  0.00  0.00    +0.120 C 
BRANCH  23  25
ATOM     24  O   UNL     1      27.446   9.407  50.686  0.00  0.00    -0.249 OA
ATOM     25  C   UNL     1      27.979   9.124  49.580  0.00  0.00    +0.325 C 
ATOM     26  O   UNL     1      29.313   9.443  49.349  0.00  0.00    -0.479 OA
ENDBRANCH  23  25
ENDBRANCH   1  23
TORSDOF 4
ENDMDL
MODEL 3
REMARK VINA RESULT:    -8.086      4.863      8.861
REMARK INTER + INTRA:         -10.588
REMARK INTER:                 -10.371
REMARK INTRA:                  -0.217
REMARK UNBOUND:                -0.611
REMARK  Name = 
REMARK  4 active torsions:
REMARK  status: ('A' for Active; 'I' for Inactive)
REMARK    1  A    between atoms: C_2  and  C_4
REMARK    2  A    between atoms: C_4  and  N_5
REMARK    3  A    between atoms: C_11  and  N_12
REMARK    4  A    between atoms: N_12  and  C_13
REMARK                            x       y       z     vdW  Elec       q    Type
REMARK                         _______ _______ _______ _____ _____    ______ ____
ROOT
ATOM      1  N   UNL     1      18.642  -0.426  52.337  0.00  0.00    -0.336 N 
ATOM      2  C   UNL     1      18.642   0.266  51.172  0.00  0.00    +0.006 A 
ATOM      3  C   UNL     1      19.932   0.668  50.843  0.00  0.00    -0.036 A 
ATOM      4  C   UNL     1      20.730   0.203  51.867  0.00  0.00    +0.001 A 
ATOM      5  C   UNL     1      22.103   0.328  52.060  0.00  0.00    -0.040 A 
ATOM      6  C   UNL     1      22.665  -0.240  53.230  0.00  0.00    +0.041 A 
ATOM      7  C   UNL     1      24.044  -0.176  53.523  0.00  0.00    +0.134 A 
ATOM      8  N   UNL     1      24.510  -0.771  54.655  0.00  0.00    -0.220 NA
ATOM      9  C   UNL     1      23.688  -1.428  55.511  0.00  0.00    +0.119 A 
ATOM     10  N   UNL     1      22.358  -1.502  55.259  0.00  0.00    -0.235 NA
ATOM     11  C   UNL     1      21.822  -0.931  54.151  0.00  0.00    +0.078 A 
ATOM     12  C   UNL     1      20.437  -1.033  53.920  0.00  0.00    -0.011 A 
ATOM     13  C   UNL     1      19.922  -0.451  52.760  0.00  0.00    +0.052 A 
ENDROOT
BRANCH   7  14
ATOM     14  N   UNL     1      24.957   0.552  52.683  0.00  0.00    -0.299 N 
ATOM     15  H   UNL     1      24.623   0.910  51.829  0.00  0.00    +0.000 HD
BRANCH  14  16
ATOM     16  C   UNL     1      26.334   0.784  53.027  0.00  0.00    +0.033 A 
ATOM     17  C   UNL     1      26.779   2.096  53.255  0.00  0.00    -0.040 A 
ATOM     18  C   UNL     1      28.118   2.345  53.571  0.00  0.00    -0.059 A 
ATOM     19  C   UNL     1      29.028   1.287  53.651  0.00  0.00    -0.048 A 
ATOM     20  C   UNL     1      28.601  -0.021  53.406  0.00  0.00    +0.020 A 
ATOM     21 BR   UNL     1      29.850  -1.464  53.493  0.00  0.00    -0.050 Br
ATOM     22  C   UNL     1      27.262  -0.274  53.090  0.00  0.00    -0.027 A 
ENDBRANCH  14  16
ENDBRANCH   7  14
BRANCH   1  23
ATOM     23  C   UNL     1      17.461  -0.954  53.020  0.00  0.00    +0.120 C 
BRANCH  23  25
ATOM     24  O   UNL     1      15.624   0.500  52.553  0.00  0.00    -0.249 OA
ATOM     25  C   UNL     1      16.224  -0.572  52.272  0.00  0.00    +0.325 C 
ATOM     26  O   UNL     1      15.713  -1.422  51.297  0.00  0.00    -0.479 OA
ENDBRANCH  23  25
ENDBRANCH   1  23
TORSDOF 4
ENDMDL
MODEL 4
REMARK VINA RESULT:    -8.065      5.272      8.966
REMARK INTER + INTRA:         -10.562
REMARK INTER:                  -9.753
REMARK INTRA:                  -0.809
REMARK UNBOUND:                -0.611
REMARK  Name = 
REMARK  4 active torsions:
REMARK  status: ('A' for Active; 'I' for Inactive)
REMARK    1  A    between atoms: C_2  and  C_4
REMARK    2  A    between atoms: C_4  and  N_5
REMARK    3  A    between atoms: C_11  and  N_12
REMARK    4  A    between atoms: N_12  and  C_13
REMARK                            x       y       z     vdW  Elec       q    Type
REMARK                         _______ _______ _______ _____ _____    ______ ____
ROOT
ATOM      1  N   UNL     1      21.148   0.753  52.713  0.00  0.00    -0.336 N 
ATOM      2  C   UNL     1      20.476   0.931  51.550  0.00  0.00    +0.006 A 
ATOM      3  C   UNL     1      21.330   1.404  50.561  0.00  0.00    -0.036 A 
ATOM      4  C   UNL     1      22.561   1.524  51.168  0.00  0.00    +0.001 A 
ATOM      5  C   UNL     1      23.777   1.961  50.651  0.00  0.00    -0.040 A 
ATOM      6  C   UNL     1      24.895   2.001  51.521  0.00  0.00    +0.041 A 
ATOM      7  C   UNL     1      26.174   2.424  51.101  0.00  0.00    +0.134 A 
ATOM      8  N   UNL     1      27.204   2.406  51.991  0.00  0.00    -0.220 NA
ATOM      9  C   UNL     1      27.039   1.990  53.271  0.00  0.00    +0.119 A 
ATOM     10  N   UNL     1      25.821   1.583  53.705  0.00  0.00    -0.235 NA
ATOM     11  C   UNL     1      24.748   1.576  52.875  0.00  0.00    +0.078 A 
ATOM     12  C   UNL     1      23.500   1.141  53.359  0.00  0.00    -0.011 A 
ATOM     13  C   UNL     1      22.422   1.126  52.473  0.00  0.00    +0.052 A 
ENDROOT
BRANCH   7  14
ATOM     14  N   UNL     1      26.400   2.926  49.772  0.00  0.00    -0.299 N 
ATOM     15  H   UNL     1      26.507   2.278  49.039  0.00  0.00    +0.000 HD
BRANCH  14  16
ATOM     16  C   UNL     1      26.478   4.328  49.459  0.00  0.00    +0.033 A 
ATOM     17  C   UNL     1      27.558   4.809  48.702  0.00  0.00    -0.040 A 
ATOM     18  C   UNL     1      27.663   6.170  48.404  0.00  0.00    -0.059 A 
ATOM     19  C   UNL     1      26.698   7.066  48.869  0.00  0.00    -0.048 A 
ATOM     20  C   UNL     1      25.628   6.602  49.641  0.00  0.00    +0.020 A 
ATOM     21 BR   UNL     1      24.320   7.832  50.295  0.00  0.00    -0.050 Br
ATOM     22  C   UNL     1      25.520   5.241  49.941  0.00  0.00    -0.027 A 
ENDBRANCH  14  16
ENDBRANCH   7  14
BRANCH   1  23
ATOM     23  C   UNL     1      20.565   0.322  53.984  0.00  0.00    +0.120 C 
BRANCH  23  25
ATOM     24  O   UNL     1      21.525  -1.832  54.365  0.00  0.00    -0.249 OA
ATOM     25  C   UNL     1      20.504  -1.171  54.038  0.00  0.00    +0.325 C 
ATOM     26  O   UNL     1      19.331  -1.831  53.684  0.00  0.00    -0.479 OA
ENDBRANCH  23  25
ENDBRANCH   1  23
TORSDOF 4
ENDMDL
MODEL 5
REMARK VINA RESULT:    -7.990      2.996      4.022
REMARK INTER + INTRA:         -10.469
REMARK INTER:                  -9.907
REMARK INTRA:                  -0.562
REMARK UNBOUND:                -0.611
REMARK  Name = 
REMARK  4 active torsions:
REMARK  status: ('A' for Active; 'I' for Inactive)
REMARK    1  A    between atoms: C_2  and  C_4
REMARK    2  A    between atoms: C_4  and  N_5
REMARK    3  A    between atoms: C_11  and  N_12
REMARK    4  A    between atoms: N_12  and  C_13
REMARK                            x       y       z     vdW  Elec       q    Type
REMARK                         _______ _______ _______ _____ _____    ______ ____
ROOT
ATOM      1  N   UNL     1      26.682   0.290  52.615  0.00  0.00    -0.336 N 
ATOM      2  C   UNL     1      26.929   1.409  51.893  0.00  0.00    +0.006 A 
ATOM      3  C   UNL     1      25.759   2.137  51.706  0.00  0.00    -0.036 A 
ATOM      4  C   UNL     1      24.772   1.410  52.336  0.00  0.00    +0.001 A 
ATOM      5  C   UNL     1      23.409   1.664  52.455  0.00  0.00    -0.040 A 
ATOM      6  C   UNL     1      22.614   0.721  53.152  0.00  0.00    +0.041 A 
ATOM      7  C   UNL     1      21.224   0.881  53.334  0.00  0.00    +0.134 A 
ATOM      8  N   UNL     1      20.535  -0.057  54.040  0.00  0.00    -0.220 NA
ATOM      9  C   UNL     1      21.146  -1.143  54.578  0.00  0.00    +0.119 A 
ATOM     10  N   UNL     1      22.479  -1.327  54.414  0.00  0.00    -0.235 NA
ATOM     11  C   UNL     1      23.230  -0.434  53.721  0.00  0.00    +0.078 A 
ATOM     12  C   UNL     1      24.612  -0.655  53.576  0.00  0.00    -0.011 A 
ATOM     13  C   UNL     1      25.358   0.294  52.875  0.00  0.00    +0.052 A 
ENDROOT
BRANCH   7  14
ATOM     14  N   UNL     1      20.511   1.982  52.744  0.00  0.00    -0.299 N 
ATOM     15  H   UNL     1      20.795   2.897  52.969  0.00  0.00    +0.000 HD
BRANCH  14  16
ATOM     16  C   UNL     1      19.403   1.814  51.842  0.00  0.00    +0.033 A 
ATOM     17  C   UNL     1      19.310   0.644  51.071  0.00  0.00    -0.040 A 
ATOM     18  C   UNL     1      18.253   0.470  50.173  0.00  0.00    -0.059 A 
ATOM     19  C   UNL     1      17.285   1.467  50.028  0.00  0.00    -0.048 A 
ATOM     20  C   UNL     1      17.379   2.645  50.775  0.00  0.00    +0.020 A 
ATOM     21 BR   UNL     1      16.067   4.018  50.560  0.00  0.00    -0.050 Br
ATOM     22  C   UNL     1      18.435   2.822  51.675  0.00  0.00    -0.027 A 
ENDBRANCH  14  16
ENDBRANCH   7  14
BRANCH   1  23
ATOM     23  C   UNL     1      27.659  -0.743  52.958  0.00  0.00    +0.120 C 
BRANCH  23  25
ATOM     24  O   UNL     1      28.239   0.084  55.123  0.00  0.00    -0.249 OA
ATOM     25  C   UNL     1      28.631  -0.214  53.963  0.00  0.00    +0.325 C 
ATOM     26  O   UNL     1      29.959  -0.009  53.603  0.00  0.00    -0.479 OA
ENDBRANCH  23  25
ENDBRANCH   1  23
TORSDOF 4
ENDMDL
MODEL 6
REMARK VINA RESULT:    -7.842      3.777      5.276
REMARK INTER + INTRA:         -10.286
REMARK INTER:                  -9.736
REMARK INTRA:                  -0.550
REMARK UNBOUND:                -0.611
REMARK  Name = 
REMARK  4 active torsions:
REMARK  status: ('A' for Active; 'I' for Inactive)
REMARK    1  A    between atoms: C_2  and  C_4
REMARK    2  A    between atoms: C_4  and  N_5
REMARK    3  A    between atoms: C_11  and  N_12
REMARK    4  A    between atoms: N_12  and  C_13
REMARK                            x       y       z     vdW  Elec       q    Type
REMARK                         _______ _______ _______ _____ _____    ______ ____
ROOT
ATOM      1  N   UNL     1      26.887   0.176  52.837  0.00  0.00    -0.336 N 
ATOM      2  C   UNL     1      27.225   1.264  52.104  0.00  0.00    +0.006 A 
ATOM      3  C   UNL     1      26.098   2.024  51.811  0.00  0.00    -0.036 A 
ATOM      4  C   UNL     1      25.043   1.348  52.387  0.00  0.00    +0.001 A 
ATOM      5  C   UNL     1      23.684   1.651  52.397  0.00  0.00    -0.040 A 
ATOM      6  C   UNL     1      22.808   0.756  53.059  0.00  0.00    +0.041 A 
ATOM      7  C   UNL     1      21.415   0.966  53.135  0.00  0.00    +0.134 A 
ATOM      8  N   UNL     1      20.644   0.073  53.814  0.00  0.00    -0.220 NA
ATOM      9  C   UNL     1      21.176  -1.015  54.425  0.00  0.00    +0.119 A 
ATOM     10  N   UNL     1      22.510  -1.247  54.365  0.00  0.00    -0.235 NA
ATOM     11  C   UNL     1      23.340  -0.401  53.704  0.00  0.00    +0.078 A 
ATOM     12  C   UNL     1      24.721  -0.671  53.669  0.00  0.00    -0.011 A 
ATOM     13  C   UNL     1      25.548   0.231  52.998  0.00  0.00    +0.052 A 
ENDROOT
BRANCH   7  14
ATOM     14  N   UNL     1      20.785   2.072  52.463  0.00  0.00    -0.299 N 
ATOM     15  H   UNL     1      20.256   2.704  52.999  0.00  0.00    +0.000 HD
BRANCH  14  16
ATOM     16  C   UNL     1      20.890   2.300  51.046  0.00  0.00    +0.033 A 
ATOM     17  C   UNL     1      20.754   1.220  50.159  0.00  0.00    -0.040 A 
ATOM     18  C   UNL     1      20.872   1.417  48.781  0.00  0.00    -0.059 A 
ATOM     19  C   UNL     1      21.139   2.692  48.275  0.00  0.00    -0.048 A 
ATOM     20  C   UNL     1      21.297   3.771  49.150  0.00  0.00    +0.020 A 
ATOM     21 BR   UNL     1      21.684   5.510  48.459  0.00  0.00    -0.050 Br
ATOM     22  C   UNL     1      21.179   3.578  50.530  0.00  0.00    -0.027 A 
ENDBRANCH  14  16
ENDBRANCH   7  14
BRANCH   1  23
ATOM     23  C   UNL     1      27.800  -0.878  53.280  0.00  0.00    +0.120 C 
BRANCH  23  25
ATOM     24  O   UNL     1      28.717   0.323  55.130  0.00  0.00    -0.249 OA
ATOM     25  C   UNL     1      28.936  -0.280  54.046  0.00  0.00    +0.325 C 
ATOM     26  O   UNL     1      30.230  -0.353  53.539  0.00  0.00    -0.479 OA
ENDBRANCH  23  25
ENDBRANCH   1  23
TORSDOF 4
ENDMDL
MODEL 7
REMARK VINA RESULT:    -7.815      4.786      8.353
REMARK INTER + INTRA:         -10.253
REMARK INTER:                  -9.521
REMARK INTRA:                  -0.732
REMARK UNBOUND:                -0.611
REMARK  Name = 
REMARK  4 active torsions:
REMARK  status: ('A' for Active; 'I' for Inactive)
REMARK    1  A    between atoms: C_2  and  C_4
REMARK    2  A    between atoms: C_4  and  N_5
REMARK    3  A    between atoms: C_11  and  N_12
REMARK    4  A    between atoms: N_12  and  C_13
REMARK                            x       y       z     vdW  Elec       q    Type
REMARK                         _______ _______ _______ _____ _____    ______ ____
ROOT
ATOM      1  N   UNL     1      19.924   0.394  52.075  0.00  0.00    -0.336 N 
ATOM      2  C   UNL     1      19.952   0.007  53.373  0.00  0.00    +0.006 A 
ATOM      3  C   UNL     1      21.143   0.398  53.972  0.00  0.00    -0.036 A 
ATOM      4  C   UNL     1      21.860   1.034  52.980  0.00  0.00    +0.001 A 
ATOM      5  C   UNL     1      23.124   1.614  53.019  0.00  0.00    -0.040 A 
ATOM      6  C   UNL     1      23.630   2.188  51.828  0.00  0.00    +0.041 A 
ATOM      7  C   UNL     1      24.897   2.805  51.755  0.00  0.00    +0.134 A 
ATOM      8  N   UNL     1      25.299   3.359  50.579  0.00  0.00    -0.220 NA
ATOM      9  C   UNL     1      24.517   3.340  49.471  0.00  0.00    +0.119 A 
ATOM     10  N   UNL     1      23.297   2.750  49.508  0.00  0.00    -0.235 NA
ATOM     11  C   UNL     1      22.830   2.175  50.646  0.00  0.00    +0.078 A 
ATOM     12  C   UNL     1      21.556   1.576  50.648  0.00  0.00    -0.011 A 
ATOM     13  C   UNL     1      21.099   1.013  51.840  0.00  0.00    +0.052 A 
ENDROOT
BRANCH   7  14
ATOM     14  N   UNL     1      25.794   2.811  52.880  0.00  0.00    -0.299 N 
ATOM     15  H   UNL     1      25.702   3.528  53.548  0.00  0.00    +0.000 HD
BRANCH  14  16
ATOM     16  C   UNL     1      26.821   1.823  53.078  0.00  0.00    +0.033 A 
ATOM     17  C   UNL     1      28.091   2.224  53.523  0.00  0.00    -0.040 A 
ATOM     18  C   UNL     1      29.108   1.283  53.703  0.00  0.00    -0.059 A 
ATOM     19  C   UNL     1      28.870  -0.067  53.428  0.00  0.00    -0.048 A 
ATOM     20  C   UNL     1      27.616  -0.475  52.965  0.00  0.00    +0.020 A 
ATOM     21 BR   UNL     1      27.299  -2.317  52.568  0.00  0.00    -0.050 Br
ATOM     22  C   UNL     1      26.596   0.465  52.784  0.00  0.00    -0.027 A 
ENDBRANCH  14  16
ENDBRANCH   7  14
BRANCH   1  23
ATOM     23  C   UNL     1      18.856   0.107  51.117  0.00  0.00    +0.120 C 
BRANCH  23  25
ATOM     24  O   UNL     1      16.616   0.087  51.947  0.00  0.00    -0.249 OA
ATOM     25  C   UNL     1      17.590   0.777  51.547  0.00  0.00    +0.325 C 
ATOM     26  O   UNL     1      17.475   2.162  51.464  0.00  0.00    -0.479 OA
ENDBRANCH  23  25
ENDBRANCH   1  23
TORSDOF 4
ENDMDL
MODEL 8
REMARK VINA RESULT:    -7.705      6.471      8.392
REMARK INTER + INTRA:         -10.117
REMARK INTER:                  -9.434
REMARK INTRA:                  -0.684
REMARK UNBOUND:                -0.611
REMARK  Name = 
REMARK  4 active torsions:
REMARK  status: ('A' for Active; 'I' for Inactive)
REMARK    1  A    between atoms: C_2  and  C_4
REMARK    2  A    between atoms: C_4  and  N_5
REMARK    3  A    between atoms: C_11  and  N_12
REMARK    4  A    between atoms: N_12  and  C_13
REMARK                            x       y       z     vdW  Elec       q    Type
REMARK                         _______ _______ _______ _____ _____    ______ ____
ROOT
ATOM      1  N   UNL     1      27.110   6.854  49.019  0.00  0.00    -0.336 N 
ATOM      2  C   UNL     1      27.979   5.955  48.496  0.00  0.00    +0.006 A 
ATOM      3  C   UNL     1      27.499   4.661  48.659  0.00  0.00    -0.036 A 
ATOM      4  C   UNL     1      26.297   4.798  49.320  0.00  0.00    +0.001 A 
ATOM      5  C   UNL     1      25.394   3.829  49.748  0.00  0.00    -0.040 A 
ATOM      6  C   UNL     1      24.229   4.260  50.430  0.00  0.00    +0.041 A 
ATOM      7  C   UNL     1      23.247   3.365  50.904  0.00  0.00    +0.134 A 
ATOM      8  N   UNL     1      22.142   3.860  51.525  0.00  0.00    -0.220 NA
ATOM      9  C   UNL     1      21.954   5.192  51.701  0.00  0.00    +0.119 A 
ATOM     10  N   UNL     1      22.882   6.076  51.262  0.00  0.00    -0.235 NA
ATOM     11  C   UNL     1      24.010   5.655  50.635  0.00  0.00    +0.078 A 
ATOM     12  C   UNL     1      24.949   6.603  50.188  0.00  0.00    -0.011 A 
ATOM     13  C   UNL     1      26.088   6.137  49.529  0.00  0.00    +0.052 A 
ENDROOT
BRANCH   7  14
ATOM     14  N   UNL     1      23.415   1.940  50.795  0.00  0.00    -0.299 N 
ATOM     15  H   UNL     1      23.246   1.515  49.923  0.00  0.00    +0.000 HD
BRANCH  14  16
ATOM     16  C   UNL     1      23.815   1.105  51.895  0.00  0.00    +0.033 A 
ATOM     17  C   UNL     1      25.179   0.963  52.196  0.00  0.00    -0.040 A 
ATOM     18  C   UNL     1      25.591   0.141  53.248  0.00  0.00    -0.059 A 
ATOM     19  C   UNL     1      24.646  -0.558  54.003  0.00  0.00    -0.048 A 
ATOM     20  C   UNL     1      23.286  -0.441  53.700  0.00  0.00    +0.020 A 
ATOM     21 BR   UNL     1      21.995  -1.415  54.718  0.00  0.00    -0.050 Br
ATOM     22  C   UNL     1      22.870   0.381  52.648  0.00  0.00    -0.027 A 
ENDBRANCH  14  16
ENDBRANCH   7  14
BRANCH   1  23
ATOM     23  C   UNL     1      27.308   8.302  49.080  0.00  0.00    +0.120 C 
BRANCH  23  25
ATOM     24  O   UNL     1      25.634   9.950  48.643  0.00  0.00    -0.249 OA
ATOM     25  C   UNL     1      26.318   8.991  48.196  0.00  0.00    +0.325 C 
ATOM     26  O   UNL     1      26.122   8.543  46.893  0.00  0.00    -0.479 OA
ENDBRANCH  23  25
ENDBRANCH   1  23
TORSDOF 4
ENDMDL
MODEL 9
REMARK VINA RESULT:    -7.668      2.939      3.912
REMARK INTER + INTRA:         -10.072
REMARK INTER:                  -9.323
REMARK INTRA:                  -0.749
REMARK UNBOUND:                -0.611
REMARK  Name = 
REMARK  4 active torsions:
REMARK  status: ('A' for Active; 'I' for Inactive)
REMARK    1  A    between atoms: C_2  and  C_4
REMARK    2  A    between atoms: C_4  and  N_5
REMARK    3  A    between atoms: C_11  and  N_12
REMARK    4  A    between atoms: N_12  and  C_13
REMARK                            x       y       z     vdW  Elec       q    Type
REMARK                         _______ _______ _______ _____ _____    ______ ____
ROOT
ATOM      1  N   UNL     1      26.077   0.328  52.791  0.00  0.00    -0.336 N 
ATOM      2  C   UNL     1      25.549  -0.788  53.350  0.00  0.00    +0.006 A 
ATOM      3  C   UNL     1      24.170  -0.662  53.478  0.00  0.00    -0.036 A 
ATOM      4  C   UNL     1      23.870   0.590  52.985  0.00  0.00    +0.001 A 
ATOM      5  C   UNL     1      22.645   1.242  52.880  0.00  0.00    -0.040 A 
ATOM      6  C   UNL     1      22.632   2.553  52.343  0.00  0.00    +0.041 A 
ATOM      7  C   UNL     1      21.448   3.303  52.188  0.00  0.00    +0.134 A 
ATOM      8  N   UNL     1      21.516   4.546  51.638  0.00  0.00    -0.220 NA
ATOM      9  C   UNL     1      22.691   5.086  51.228  0.00  0.00    +0.119 A 
ATOM     10  N   UNL     1      23.847   4.392  51.369  0.00  0.00    -0.235 NA
ATOM     11  C   UNL     1      23.855   3.148  51.912  0.00  0.00    +0.078 A 
ATOM     12  C   UNL     1      25.074   2.454  52.037  0.00  0.00    -0.011 A 
ATOM     13  C   UNL     1      25.044   1.169  52.580  0.00  0.00    +0.052 A 
ENDROOT
BRANCH   7  14
ATOM     14  N   UNL     1      20.179   2.807  52.651  0.00  0.00    -0.299 N 
ATOM     15  H   UNL     1      19.898   3.027  53.569  0.00  0.00    +0.000 HD
BRANCH  14  16
ATOM     16  C   UNL     1      19.300   2.006  51.843  0.00  0.00    +0.033 A 
ATOM     17  C   UNL     1      19.159   0.637  52.121  0.00  0.00    -0.040 A 
ATOM     18  C   UNL     1      18.325  -0.163  51.335  0.00  0.00    -0.059 A 
ATOM     19  C   UNL     1      17.633   0.394  50.256  0.00  0.00    -0.048 A 
ATOM     20  C   UNL     1      17.782   1.751  49.956  0.00  0.00    +0.020 A 
ATOM     21 BR   UNL     1      16.853   2.507  48.467  0.00  0.00    -0.050 Br
ATOM     22  C   UNL     1      18.615   2.555  50.741  0.00  0.00    -0.027 A 
ENDBRANCH  14  16
ENDBRANCH   7  14
BRANCH   1  23
ATOM     23  C   UNL     1      27.499   0.578  52.556  0.00  0.00    +0.120 C 
BRANCH  23  25
ATOM     24  O   UNL     1      28.331   0.523  54.795  0.00  0.00    -0.249 OA
ATOM     25  C   UNL     1      28.113   1.212  53.762  0.00  0.00    +0.325 C 
ATOM     26  O   UNL     1      28.404   2.573  53.759  0.00  0.00    -0.479 OA
ENDBRANCH  23  25
ENDBRANCH   1  23
TORSDOF 4
ENDMDL
