MODEL 1
REMARK VINA RESULT:    -9.240      0.000      0.000
REMARK INTER + INTRA:         -13.891
REMARK INTER:                 -13.022
REMARK INTRA:                  -0.869
REMARK UNBOUND:                -0.869
REMARK  Name = 
REMARK  8 active torsions:
REMARK  status: ('A' for Active; 'I' for Inactive)
REMARK    1  A    between atoms: C_1  and  O_2
REMARK    2  A    between atoms: O_2  and  C_3
REMARK    3  A    between atoms: C_5  and  N_6
REMARK    4  A    between atoms: N_6  and  C_7
REMARK    5  A    between atoms: C_8  and  C_9
REMARK    6  A    between atoms: C_15  and  C_16
REMARK    7  A    between atoms: C_19  and  C_20
REMARK    8  A    between atoms: C_20  and  N_21
REMARK                            x       y       z     vdW  Elec       q    Type
REMARK                         _______ _______ _______ _____ _____    ______ ____
ROOT
ATOM      1  C   UNL     1      21.502   3.051  50.534  0.00  0.00    +0.060 A 
ATOM      2  C   UNL     1      20.439   3.906  50.888  0.00  0.00    +0.091 A 
ATOM      3  C   UNL     1      20.609   5.291  50.792  0.00  0.00    +0.047 A 
ATOM      4  N   UNL     1      21.790   5.809  50.368  0.00  0.00    -0.254 NA
ATOM      5  C   UNL     1      22.841   5.019  50.025  0.00  0.00    +0.073 A 
ATOM      6  C   UNL     1      24.035   5.605  49.592  0.00  0.00    -0.028 A 
ATOM      7  C   UNL     1      25.129   4.806  49.218  0.00  0.00    -0.016 A 
ATOM      8  C   UNL     1      25.006   3.408  49.283  0.00  0.00    -0.053 A 
ATOM      9  C   UNL     1      23.816   2.815  49.716  0.00  0.00    -0.050 A 
ATOM     10  C   UNL     1      22.723   3.612  50.100  0.00  0.00    +0.023 A 
ENDROOT
BRANCH   7  11
ATOM     11  C   UNL     1      26.396   5.431  48.759  0.00  0.00    -0.018 A 
ATOM     12  C   UNL     1      26.415   6.767  48.319  0.00  0.00    -0.054 A 
ATOM     13  C   UNL     1      27.606   7.353  47.882  0.00  0.00    -0.057 A 
ATOM     14  C   UNL     1      28.799   6.617  47.879  0.00  0.00    -0.033 A 
ATOM     15  C   UNL     1      28.785   5.282  48.312  0.00  0.00    -0.057 A 
ATOM     16  C   UNL     1      27.595   4.695  48.750  0.00  0.00    -0.054 A 
BRANCH  14  17
ATOM     17  C   UNL     1      30.073   7.249  47.380  0.00  0.00    +0.024 C 
BRANCH  17  18
ATOM     18  N   UNL     1      30.098   8.689  47.708  0.00  0.00    -0.294 N 
ATOM     19  C   UNL     1      31.097   9.408  46.894  0.00  0.00    +0.023 C 
ATOM     20  C   UNL     1      31.088  10.911  47.247  0.00  0.00    +0.060 C 
ATOM     21  O   UNL     1      30.283  11.195  48.378  0.00  0.00    -0.377 OA
ATOM     22  C   UNL     1      30.669  10.367  49.457  0.00  0.00    +0.060 C 
ATOM     23  C   UNL     1      30.387   8.884  49.144  0.00  0.00    +0.023 C 
ATOM     24  H   UNL     1      29.177   9.072  47.496  0.00  0.00    +0.000 HD
ENDBRANCH  17  18
ENDBRANCH  14  17
ENDBRANCH   7  11
BRANCH   1  25
ATOM     25  N   UNL     1      21.354   1.623  50.644  0.00  0.00    -0.312 N 
ATOM     26  H   UNL     1      20.943   1.136  49.893  0.00  0.00    +0.000 HD
BRANCH  25  29
ATOM     27  C   UNL     1      23.520   0.231  53.395  0.00  0.00    +0.140 A 
ATOM     28  C   UNL     1      23.103   0.955  52.262  0.00  0.00    +0.004 A 
ATOM     29  C   UNL     1      21.775   0.872  51.800  0.00  0.00    +0.053 A 
ATOM     30  C   UNL     1      20.858   0.063  52.499  0.00  0.00    +0.064 A 
ATOM     31 CL   UNL     1      19.188  -0.105  51.969  0.00  0.00    -0.082 Cl
ATOM     32  C   UNL     1      21.272  -0.653  53.625  0.00  0.00    -0.020 A 
ATOM     33  C   UNL     1      22.593  -0.572  54.072  0.00  0.00    +0.084 A 
ATOM     34 CL   UNL     1      23.078  -1.491  55.489  0.00  0.00    -0.080 Cl
BRANCH  27  36
ATOM     35  C   UNL     1      25.915  -0.500  53.374  0.00  0.00    +0.079 C 
ATOM     36  O   UNL     1      24.840   0.289  53.872  0.00  0.00    -0.494 OA
ENDBRANCH  27  36
ENDBRANCH  25  29
ENDBRANCH   1  25
BRANCH   2  37
ATOM     37  C   UNL     1      19.188   3.387  51.382  0.00  0.00    +0.103 C 
ATOM     38  N   UNL     1      18.183   2.968  51.779  0.00  0.00    -0.191 NA
ENDBRANCH   2  37
TORSDOF 7
ENDMDL
MODEL 2
REMARK VINA RESULT:    -9.027      4.993     11.899
REMARK INTER + INTRA:         -13.589
REMARK INTER:                 -12.381
REMARK INTRA:                  -1.208
REMARK UNBOUND:                -0.869
REMARK  Name = 
REMARK  8 active torsions:
REMARK  status: ('A' for Active; 'I' for Inactive)
REMARK    1  A    between atoms: C_1  and  O_2
REMARK    2  A    between atoms: O_2  and  C_3
REMARK    3  A    between atoms: C_5  and  N_6
REMARK    4  A    between atoms: N_6  and  C_7
REMARK    5  A    between atoms: C_8  and  C_9
REMARK    6  A    between atoms: C_15  and  C_16
REMARK    7  A    between atoms: C_19  and  C_20
REMARK    8  A    between atoms: C_20  and  N_21
REMARK                            x       y       z     vdW  Elec       q    Type
REMARK                         _______ _______ _______ _____ _____    ______ ____
ROOT
ATOM      1  C   UNL     1      24.235   1.706  51.445  0.00  0.00    +0.060 A 
ATOM      2  C   UNL     1      25.118   1.387  52.497  0.00  0.00    +0.091 A 
ATOM      3  C   UNL     1      24.656   0.628  53.576  0.00  0.00    +0.047 A 
ATOM      4  N   UNL     1      23.366   0.208  53.617  0.00  0.00    -0.254 NA
ATOM      5  C   UNL     1      22.482   0.501  52.628  0.00  0.00    +0.073 A 
ATOM      6  C   UNL     1      21.165   0.040  52.719  0.00  0.00    -0.028 A 
ATOM      7  C   UNL     1      20.237   0.319  51.700  0.00  0.00    -0.016 A 
ATOM      8  C   UNL     1      20.654   1.066  50.586  0.00  0.00    -0.053 A 
ATOM      9  C   UNL     1      21.969   1.532  50.489  0.00  0.00    -0.050 A 
ATOM     10  C   UNL     1      22.896   1.262  51.511  0.00  0.00    +0.023 A 
ENDROOT
BRANCH   7  11
ATOM     11  C   UNL     1      18.839  -0.172  51.799  0.00  0.00    -0.018 A 
ATOM     12  C   UNL     1      18.414  -0.896  52.927  0.00  0.00    -0.054 A 
ATOM     13  C   UNL     1      17.100  -1.362  53.018  0.00  0.00    -0.057 A 
ATOM     14  C   UNL     1      16.186  -1.111  51.985  0.00  0.00    -0.033 A 
ATOM     15  C   UNL     1      16.605  -0.392  50.855  0.00  0.00    -0.057 A 
ATOM     16  C   UNL     1      17.919   0.075  50.764  0.00  0.00    -0.054 A 
BRANCH  14  17
ATOM     17  C   UNL     1      14.778  -1.641  52.080  0.00  0.00    +0.024 C 
BRANCH  17  18
ATOM     18  N   UNL     1      14.021  -0.914  53.119  0.00  0.00    -0.294 N 
ATOM     19  C   UNL     1      12.672  -1.485  53.298  0.00  0.00    +0.023 C 
ATOM     20  C   UNL     1      11.912  -0.717  54.401  0.00  0.00    +0.060 C 
ATOM     21  O   UNL     1      12.604   0.446  54.823  0.00  0.00    -0.377 OA
ATOM     22  C   UNL     1      12.924   1.244  53.701  0.00  0.00    +0.060 C 
ATOM     23  C   UNL     1      13.917   0.518  52.772  0.00  0.00    +0.023 C 
ATOM     24  H   UNL     1      14.529  -1.011  53.998  0.00  0.00    +0.000 HD
ENDBRANCH  17  18
ENDBRANCH  14  17
ENDBRANCH   7  11
BRANCH   1  25
ATOM     25  N   UNL     1      24.685   2.503  50.334  0.00  0.00    -0.312 N 
ATOM     26  H   UNL     1      25.025   2.040  49.534  0.00  0.00    +0.000 HD
BRANCH  25  29
ATOM     27  C   UNL     1      23.537   6.051  50.876  0.00  0.00    +0.140 A 
ATOM     28  C   UNL     1      23.561   4.643  50.863  0.00  0.00    +0.004 A 
ATOM     29  C   UNL     1      24.664   3.944  50.335  0.00  0.00    +0.053 A 
ATOM     30  C   UNL     1      25.758   4.674  49.830  0.00  0.00    +0.064 A 
ATOM     31 CL   UNL     1      27.161   3.870  49.135  0.00  0.00    -0.082 Cl
ATOM     32  C   UNL     1      25.734   6.071  49.845  0.00  0.00    -0.020 A 
ATOM     33  C   UNL     1      24.633   6.757  50.363  0.00  0.00    +0.084 A 
ATOM     34 CL   UNL     1      24.637   8.514  50.360  0.00  0.00    -0.080 Cl
BRANCH  27  36
ATOM     35  C   UNL     1      21.324   7.195  50.623  0.00  0.00    +0.079 C 
ATOM     36  O   UNL     1      22.448   6.773  51.390  0.00  0.00    -0.494 OA
ENDBRANCH  27  36
ENDBRANCH  25  29
ENDBRANCH   1  25
BRANCH   2  37
ATOM     37  C   UNL     1      26.482   1.856  52.502  0.00  0.00    +0.103 C 
ATOM     38  N   UNL     1      27.576   2.234  52.507  0.00  0.00    -0.191 NA
ENDBRANCH   2  37
TORSDOF 7
ENDMDL
MODEL 3
REMARK VINA RESULT:    -8.899      2.680      4.651
REMARK INTER + INTRA:         -13.409
REMARK INTER:                 -12.894
REMARK INTRA:                  -0.515
REMARK UNBOUND:                -0.869
REMARK  Name = 
REMARK  8 active torsions:
REMARK  status: ('A' for Active; 'I' for Inactive)
REMARK    1  A    between atoms: C_1  and  O_2
REMARK    2  A    between atoms: O_2  and  C_3
REMARK    3  A    between atoms: C_5  and  N_6
REMARK    4  A    between atoms: N_6  and  C_7
REMARK    5  A    between atoms: C_8  and  C_9
REMARK    6  A    between atoms: C_15  and  C_16
REMARK    7  A    between atoms: C_19  and  C_20
REMARK    8  A    between atoms: C_20  and  N_21
REMARK                            x       y       z     vdW  Elec       q    Type
REMARK                         _______ _______ _______ _____ _____    ______ ____
ROOT
ATOM      1  C   UNL     1      21.682   0.516  51.814  0.00  0.00    +0.060 A 
ATOM      2  C   UNL     1      22.011  -0.112  53.032  0.00  0.00    +0.091 A 
ATOM      3  C   UNL     1      23.241   0.163  53.638  0.00  0.00    +0.047 A 
ATOM      4  N   UNL     1      24.117   1.021  53.054  0.00  0.00    -0.254 NA
ATOM      5  C   UNL     1      23.841   1.640  51.877  0.00  0.00    +0.073 A 
ATOM      6  C   UNL     1      24.778   2.517  51.321  0.00  0.00    -0.028 A 
ATOM      7  C   UNL     1      24.507   3.180  50.111  0.00  0.00    -0.016 A 
ATOM      8  C   UNL     1      23.279   2.950  49.468  0.00  0.00    -0.053 A 
ATOM      9  C   UNL     1      22.339   2.073  50.017  0.00  0.00    -0.050 A 
ATOM     10  C   UNL     1      22.610   1.402  51.222  0.00  0.00    +0.023 A 
ENDROOT
BRANCH   7  11
ATOM     11  C   UNL     1      25.504   4.111  49.523  0.00  0.00    -0.018 A 
ATOM     12  C   UNL     1      26.833   3.699  49.319  0.00  0.00    -0.054 A 
ATOM     13  C   UNL     1      27.771   4.577  48.771  0.00  0.00    -0.057 A 
ATOM     14  C   UNL     1      27.399   5.880  48.413  0.00  0.00    -0.033 A 
ATOM     15  C   UNL     1      26.075   6.298  48.618  0.00  0.00    -0.057 A 
ATOM     16  C   UNL     1      25.135   5.421  49.166  0.00  0.00    -0.054 A 
BRANCH  14  17
ATOM     17  C   UNL     1      28.425   6.828  47.848  0.00  0.00    +0.024 C 
BRANCH  17  18
ATOM     18  N   UNL     1      29.695   6.722  48.595  0.00  0.00    -0.294 N 
ATOM     19  C   UNL     1      30.350   8.037  48.729  0.00  0.00    +0.023 C 
ATOM     20  C   UNL     1      31.664   7.897  49.528  0.00  0.00    +0.060 C 
ATOM     21  O   UNL     1      32.011   6.543  49.762  0.00  0.00    -0.377 OA
ATOM     22  C   UNL     1      32.020   5.835  48.538  0.00  0.00    +0.060 C 
ATOM     23  C   UNL     1      30.606   5.772  47.926  0.00  0.00    +0.023 C 
ATOM     24  H   UNL     1      29.476   6.377  49.530  0.00  0.00    +0.000 HD
ENDBRANCH  17  18
ENDBRANCH  14  17
ENDBRANCH   7  11
BRANCH   1  25
ATOM     25  N   UNL     1      20.429   0.233  51.164  0.00  0.00    -0.312 N 
ATOM     26  H   UNL     1      20.355  -0.592  50.631  0.00  0.00    +0.000 HD
BRANCH  25  29
ATOM     27  C   UNL     1      18.259   3.308  50.993  0.00  0.00    +0.140 A 
ATOM     28  C   UNL     1      19.380   2.460  50.916  0.00  0.00    +0.004 A 
ATOM     29  C   UNL     1      19.280   1.097  51.255  0.00  0.00    +0.053 A 
ATOM     30  C   UNL     1      18.032   0.584  51.661  0.00  0.00    +0.064 A 
ATOM     31 CL   UNL     1      17.835  -1.104  52.120  0.00  0.00    -0.082 Cl
ATOM     32  C   UNL     1      16.919   1.426  51.736  0.00  0.00    -0.020 A 
ATOM     33  C   UNL     1      17.029   2.779  51.406  0.00  0.00    +0.084 A 
ATOM     34 CL   UNL     1      15.609   3.808  51.517  0.00  0.00    -0.080 Cl
BRANCH  27  36
ATOM     35  C   UNL     1      18.466   5.182  49.345  0.00  0.00    +0.079 C 
ATOM     36  O   UNL     1      18.333   4.673  50.669  0.00  0.00    -0.494 OA
ENDBRANCH  27  36
ENDBRANCH  25  29
ENDBRANCH   1  25
BRANCH   2  37
ATOM     37  C   UNL     1      21.120  -1.060  53.654  0.00  0.00    +0.103 C 
ATOM     38  N   UNL     1      20.405  -1.823  54.152  0.00  0.00    -0.191 NA
ENDBRANCH   2  37
TORSDOF 7
ENDMDL
MODEL 4
REMARK VINA RESULT:    -8.853      2.538      4.188
REMARK INTER + INTRA:         -13.345
REMARK INTER:                 -13.245
REMARK INTRA:                  -0.100
REMARK UNBOUND:                -0.869
REMARK  Name = 
REMARK  8 active torsions:
REMARK  status: ('A' for Active; 'I' for Inactive)
REMARK    1  A    between atoms: C_1  and  O_2
REMARK    2  A    between atoms: O_2  and  C_3
REMARK    3  A    between atoms: C_5  and  N_6
REMARK    4  A    between atoms: N_6  and  C_7
REMARK    5  A    between atoms: C_8  and  C_9
REMARK    6  A    between atoms: C_15  and  C_16
REMARK    7  A    between atoms: C_19  and  C_20
REMARK    8  A    between atoms: C_20  and  N_21
REMARK                            x       y       z     vdW  Elec       q    Type
REMARK                         _______ _______ _______ _____ _____    ______ ____
ROOT
ATOM      1  C   UNL     1      22.364   1.358  52.767  0.00  0.00    +0.060 A 
ATOM      2  C   UNL     1      22.872   0.161  53.310  0.00  0.00    +0.091 A 
ATOM      3  C   UNL     1      24.214  -0.174  53.100  0.00  0.00    +0.047 A 
ATOM      4  N   UNL     1      25.019   0.642  52.374  0.00  0.00    -0.254 NA
ATOM      5  C   UNL     1      24.565   1.800  51.828  0.00  0.00    +0.073 A 
ATOM      6  C   UNL     1      25.439   2.606  51.090  0.00  0.00    -0.028 A 
ATOM      7  C   UNL     1      24.995   3.815  50.528  0.00  0.00    -0.016 A 
ATOM      8  C   UNL     1      23.659   4.205  50.721  0.00  0.00    -0.053 A 
ATOM      9  C   UNL     1      22.780   3.405  51.455  0.00  0.00    -0.050 A 
ATOM     10  C   UNL     1      23.219   2.190  52.011  0.00  0.00    +0.023 A 
ENDROOT
BRANCH   7  11
ATOM     11  C   UNL     1      25.925   4.669  49.745  0.00  0.00    -0.018 A 
ATOM     12  C   UNL     1      27.096   4.125  49.188  0.00  0.00    -0.054 A 
ATOM     13  C   UNL     1      27.973   4.929  48.456  0.00  0.00    -0.057 A 
ATOM     14  C   UNL     1      27.695   6.290  48.265  0.00  0.00    -0.033 A 
ATOM     15  C   UNL     1      26.530   6.839  48.822  0.00  0.00    -0.057 A 
ATOM     16  C   UNL     1      25.652   6.035  49.554  0.00  0.00    -0.054 A 
BRANCH  14  17
ATOM     17  C   UNL     1      28.661   7.155  47.497  0.00  0.00    +0.024 C 
BRANCH  17  18
ATOM     18  N   UNL     1      29.436   8.009  48.420  0.00  0.00    -0.294 N 
ATOM     19  C   UNL     1      29.657   9.352  47.851  0.00  0.00    +0.023 C 
ATOM     20  C   UNL     1      30.455  10.225  48.843  0.00  0.00    +0.060 C 
ATOM     21  O   UNL     1      30.939   9.481  49.947  0.00  0.00    -0.377 OA
ATOM     22  C   UNL     1      31.660   8.356  49.485  0.00  0.00    +0.060 C 
ATOM     23  C   UNL     1      30.734   7.377  48.735  0.00  0.00    +0.023 C 
ATOM     24  H   UNL     1      28.895   8.110  49.278  0.00  0.00    +0.000 HD
ENDBRANCH  17  18
ENDBRANCH  14  17
ENDBRANCH   7  11
BRANCH   1  25
ATOM     25  N   UNL     1      20.981   1.712  52.955  0.00  0.00    -0.312 N 
ATOM     26  H   UNL     1      20.765   2.431  53.591  0.00  0.00    +0.000 HD
BRANCH  25  29
ATOM     27  C   UNL     1      18.096  -0.594  52.206  0.00  0.00    +0.140 A 
ATOM     28  C   UNL     1      19.161   0.037  52.877  0.00  0.00    +0.004 A 
ATOM     29  C   UNL     1      19.899   1.064  52.258  0.00  0.00    +0.053 A 
ATOM     30  C   UNL     1      19.547   1.467  50.954  0.00  0.00    +0.064 A 
ATOM     31 CL   UNL     1      20.436   2.729  50.108  0.00  0.00    -0.082 Cl
ATOM     32  C   UNL     1      18.489   0.842  50.289  0.00  0.00    -0.020 A 
ATOM     33  C   UNL     1      17.768  -0.182  50.908  0.00  0.00    +0.084 A 
ATOM     34 CL   UNL     1      16.447  -0.948  50.038  0.00  0.00    -0.080 Cl
BRANCH  27  36
ATOM     35  C   UNL     1      17.894  -2.642  53.633  0.00  0.00    +0.079 C 
ATOM     36  O   UNL     1      17.349  -1.626  52.798  0.00  0.00    -0.494 OA
ENDBRANCH  27  36
ENDBRANCH  25  29
ENDBRANCH   1  25
BRANCH   2  37
ATOM     37  C   UNL     1      22.031  -0.747  54.049  0.00  0.00    +0.103 C 
ATOM     38  N   UNL     1      21.354  -1.477  54.641  0.00  0.00    -0.191 NA
ENDBRANCH   2  37
TORSDOF 7
ENDMDL
MODEL 5
REMARK VINA RESULT:    -8.755      1.612      2.026
REMARK INTER + INTRA:         -13.207
REMARK INTER:                 -13.010
REMARK INTRA:                  -0.198
REMARK UNBOUND:                -0.869
REMARK  Name = 
REMARK  8 active torsions:
REMARK  status: ('A' for Active; 'I' for Inactive)
REMARK    1  A    between atoms: C_1  and  O_2
REMARK    2  A    between atoms: O_2  and  C_3
REMARK    3  A    between atoms: C_5  and  N_6
REMARK    4  A    between atoms: N_6  and  C_7
REMARK    5  A    between atoms: C_8  and  C_9
REMARK    6  A    between atoms: C_15  and  C_16
REMARK    7  A    between atoms: C_19  and  C_20
REMARK    8  A    between atoms: C_20  and  N_21
REMARK                            x       y       z     vdW  Elec       q    Type
REMARK                         _______ _______ _______ _____ _____    ______ ____
ROOT
ATOM      1  C   UNL     1      20.376   2.430  50.642  0.00  0.00    +0.060 A 
ATOM      2  C   UNL     1      19.218   3.210  50.837  0.00  0.00    +0.091 A 
ATOM      3  C   UNL     1      19.276   4.592  50.628  0.00  0.00    +0.047 A 
ATOM      4  N   UNL     1      20.439   5.180  50.248  0.00  0.00    -0.254 NA
ATOM      5  C   UNL     1      21.578   4.465  50.057  0.00  0.00    +0.073 A 
ATOM      6  C   UNL     1      22.748   5.121  49.663  0.00  0.00    -0.028 A 
ATOM      7  C   UNL     1      23.935   4.399  49.445  0.00  0.00    -0.016 A 
ATOM      8  C   UNL     1      23.927   3.006  49.628  0.00  0.00    -0.053 A 
ATOM      9  C   UNL     1      22.762   2.344  50.024  0.00  0.00    -0.050 A 
ATOM     10  C   UNL     1      21.576   3.064  50.251  0.00  0.00    +0.023 A 
ENDROOT
BRANCH   7  11
ATOM     11  C   UNL     1      25.176   5.099  49.027  0.00  0.00    -0.018 A 
ATOM     12  C   UNL     1      25.125   6.418  48.544  0.00  0.00    -0.054 A 
ATOM     13  C   UNL     1      26.292   7.074  48.145  0.00  0.00    -0.057 A 
ATOM     14  C   UNL     1      27.533   6.425  48.225  0.00  0.00    -0.033 A 
ATOM     15  C   UNL     1      27.590   5.107  48.702  0.00  0.00    -0.057 A 
ATOM     16  C   UNL     1      26.423   4.450  49.101  0.00  0.00    -0.054 A 
BRANCH  14  17
ATOM     17  C   UNL     1      28.782   7.131  47.767  0.00  0.00    +0.024 C 
BRANCH  17  18
ATOM     18  N   UNL     1      29.946   6.692  48.564  0.00  0.00    -0.294 N 
ATOM     19  C   UNL     1      30.799   7.835  48.942  0.00  0.00    +0.023 C 
ATOM     20  C   UNL     1      31.996   7.348  49.787  0.00  0.00    +0.060 C 
ATOM     21  O   UNL     1      32.089   5.935  49.826  0.00  0.00    -0.377 OA
ATOM     22  C   UNL     1      32.085   5.420  48.509  0.00  0.00    +0.060 C 
ATOM     23  C   UNL     1      30.739   5.701  47.811  0.00  0.00    +0.023 C 
ATOM     24  H   UNL     1      29.592   6.261  49.418  0.00  0.00    +0.000 HD
ENDBRANCH  17  18
ENDBRANCH  14  17
ENDBRANCH   7  11
BRANCH   1  25
ATOM     25  N   UNL     1      20.343   1.010  50.870  0.00  0.00    -0.312 N 
ATOM     26  H   UNL     1      19.852   0.444  50.230  0.00  0.00    +0.000 HD
BRANCH  25  29
ATOM     27  C   UNL     1      23.015  -0.083  53.292  0.00  0.00    +0.140 A 
ATOM     28  C   UNL     1      22.376   0.527  52.196  0.00  0.00    +0.004 A 
ATOM     29  C   UNL     1      20.991   0.374  51.989  0.00  0.00    +0.053 A 
ATOM     30  C   UNL     1      20.244  -0.390  52.907  0.00  0.00    +0.064 A 
ATOM     31 CL   UNL     1      18.514  -0.643  52.703  0.00  0.00    -0.082 Cl
ATOM     32  C   UNL     1      20.878  -0.994  53.996  0.00  0.00    -0.020 A 
ATOM     33  C   UNL     1      22.254  -0.844  54.189  0.00  0.00    +0.084 A 
ATOM     34 CL   UNL     1      23.017  -1.622  55.567  0.00  0.00    -0.080 Cl
BRANCH  27  36
ATOM     35  C   UNL     1      25.233   0.999  52.869  0.00  0.00    +0.079 C 
ATOM     36  O   UNL     1      24.395   0.047  53.517  0.00  0.00    -0.494 OA
ENDBRANCH  27  36
ENDBRANCH  25  29
ENDBRANCH   1  25
BRANCH   2  37
ATOM     37  C   UNL     1      17.980   2.620  51.282  0.00  0.00    +0.103 C 
ATOM     38  N   UNL     1      16.985   2.147  51.640  0.00  0.00    -0.191 NA
ENDBRANCH   2  37
TORSDOF 7
ENDMDL
MODEL 6
REMARK VINA RESULT:    -8.528      4.924     11.840
REMARK INTER + INTRA:         -12.887
REMARK INTER:                 -12.271
REMARK INTRA:                  -0.616
REMARK UNBOUND:                -0.869
REMARK  Name = 
REMARK  8 active torsions:
REMARK  status: ('A' for Active; 'I' for Inactive)
REMARK    1  A    between atoms: C_1  and  O_2
REMARK    2  A    between atoms: O_2  and  C_3
REMARK    3  A    between atoms: C_5  and  N_6
REMARK    4  A    between atoms: N_6  and  C_7
REMARK    5  A    between atoms: C_8  and  C_9
REMARK    6  A    between atoms: C_15  and  C_16
REMARK    7  A    between atoms: C_19  and  C_20
REMARK    8  A    between atoms: C_20  and  N_21
REMARK                            x       y       z     vdW  Elec       q    Type
REMARK                         _______ _______ _______ _____ _____    ______ ____
ROOT
ATOM      1  C   UNL     1      24.414   2.121  52.981  0.00  0.00    +0.060 A 
ATOM      2  C   UNL     1      25.514   1.321  53.351  0.00  0.00    +0.091 A 
ATOM      3  C   UNL     1      25.320  -0.040  53.609  0.00  0.00    +0.047 A 
ATOM      4  N   UNL     1      24.081  -0.586  53.512  0.00  0.00    -0.254 NA
ATOM      5  C   UNL     1      22.995   0.152  53.166  0.00  0.00    +0.073 A 
ATOM      6  C   UNL     1      21.741  -0.462  53.078  0.00  0.00    -0.028 A 
ATOM      7  C   UNL     1      20.605   0.279  52.707  0.00  0.00    -0.016 A 
ATOM      8  C   UNL     1      20.748   1.647  52.424  0.00  0.00    -0.053 A 
ATOM      9  C   UNL     1      21.997   2.268  52.511  0.00  0.00    -0.050 A 
ATOM     10  C   UNL     1      23.133   1.532  52.890  0.00  0.00    +0.023 A 
ENDROOT
BRANCH   7  11
ATOM     11  C   UNL     1      19.276  -0.376  52.615  0.00  0.00    -0.018 A 
ATOM     12  C   UNL     1      18.918  -1.398  53.513  0.00  0.00    -0.054 A 
ATOM     13  C   UNL     1      17.669  -2.017  53.423  0.00  0.00    -0.057 A 
ATOM     14  C   UNL     1      16.754  -1.627  52.435  0.00  0.00    -0.033 A 
ATOM     15  C   UNL     1      17.106  -0.611  51.533  0.00  0.00    -0.057 A 
ATOM     16  C   UNL     1      18.355   0.010  51.623  0.00  0.00    -0.054 A 
BRANCH  14  17
ATOM     17  C   UNL     1      15.420  -2.319  52.329  0.00  0.00    +0.024 C 
BRANCH  17  18
ATOM     18  N   UNL     1      14.791  -2.033  51.023  0.00  0.00    -0.294 N 
ATOM     19  C   UNL     1      13.542  -1.264  51.186  0.00  0.00    +0.023 C 
ATOM     20  C   UNL     1      12.918  -0.965  49.806  0.00  0.00    +0.060 C 
ATOM     21  O   UNL     1      13.575  -1.654  48.757  0.00  0.00    -0.377 OA
ATOM     22  C   UNL     1      13.636  -3.034  49.058  0.00  0.00    +0.060 C 
ATOM     23  C   UNL     1      14.515  -3.290  50.299  0.00  0.00    +0.023 C 
ATOM     24  H   UNL     1      15.445  -1.469  50.481  0.00  0.00    +0.000 HD
ENDBRANCH  17  18
ENDBRANCH  14  17
ENDBRANCH   7  11
BRANCH   1  25
ATOM     25  N   UNL     1      24.589   3.527  52.729  0.00  0.00    -0.312 N 
ATOM     26  H   UNL     1      24.976   4.085  53.442  0.00  0.00    +0.000 HD
BRANCH  25  29
ATOM     27  C   UNL     1      22.719   5.600  50.198  0.00  0.00    +0.140 A 
ATOM     28  C   UNL     1      23.077   4.972  51.407  0.00  0.00    +0.004 A 
ATOM     29  C   UNL     1      24.224   4.159  51.487  0.00  0.00    +0.053 A 
ATOM     30  C   UNL     1      25.023   3.991  50.339  0.00  0.00    +0.064 A 
ATOM     31 CL   UNL     1      26.459   2.972  50.357  0.00  0.00    -0.082 Cl
ATOM     32  C   UNL     1      24.669   4.616  49.140  0.00  0.00    -0.020 A 
ATOM     33  C   UNL     1      23.525   5.414  49.067  0.00  0.00    +0.084 A 
ATOM     34 CL   UNL     1      23.109   6.180  47.541  0.00  0.00    -0.080 Cl
BRANCH  27  36
ATOM     35  C   UNL     1      21.560   7.817  50.311  0.00  0.00    +0.079 C 
ATOM     36  O   UNL     1      21.577   6.410  50.089  0.00  0.00    -0.494 OA
ENDBRANCH  27  36
ENDBRANCH  25  29
ENDBRANCH   1  25
BRANCH   2  37
ATOM     37  C   UNL     1      26.834   1.882  53.504  0.00  0.00    +0.103 C 
ATOM     38  N   UNL     1      27.894   2.332  53.628  0.00  0.00    -0.191 NA
ENDBRANCH   2  37
TORSDOF 7
ENDMDL
MODEL 7
REMARK VINA RESULT:    -8.417      6.573      8.865
REMARK INTER + INTRA:         -12.730
REMARK INTER:                 -11.318
REMARK INTRA:                  -1.412
REMARK UNBOUND:                -0.869
REMARK  Name = 
REMARK  8 active torsions:
REMARK  status: ('A' for Active; 'I' for Inactive)
REMARK    1  A    between atoms: C_1  and  O_2
REMARK    2  A    between atoms: O_2  and  C_3
REMARK    3  A    between atoms: C_5  and  N_6
REMARK    4  A    between atoms: N_6  and  C_7
REMARK    5  A    between atoms: C_8  and  C_9
REMARK    6  A    between atoms: C_15  and  C_16
REMARK    7  A    between atoms: C_19  and  C_20
REMARK    8  A    between atoms: C_20  and  N_21
REMARK                            x       y       z     vdW  Elec       q    Type
REMARK                         _______ _______ _______ _____ _____    ______ ____
ROOT
ATOM      1  C   UNL     1      16.869   2.369  50.607  0.00  0.00    +0.060 A 
ATOM      2  C   UNL     1      16.857   3.700  50.142  0.00  0.00    +0.091 A 
ATOM      3  C   UNL     1      18.011   4.482  50.263  0.00  0.00    +0.047 A 
ATOM      4  N   UNL     1      19.131   3.967  50.831  0.00  0.00    -0.254 NA
ATOM      5  C   UNL     1      19.181   2.692  51.298  0.00  0.00    +0.073 A 
ATOM      6  C   UNL     1      20.363   2.212  51.872  0.00  0.00    -0.028 A 
ATOM      7  C   UNL     1      20.442   0.892  52.348  0.00  0.00    -0.016 A 
ATOM      8  C   UNL     1      19.315   0.060  52.238  0.00  0.00    -0.053 A 
ATOM      9  C   UNL     1      18.130   0.534  51.667  0.00  0.00    -0.050 A 
ATOM     10  C   UNL     1      18.045   1.856  51.198  0.00  0.00    +0.023 A 
ENDROOT
BRANCH   7  11
ATOM     11  C   UNL     1      21.698   0.384  52.957  0.00  0.00    -0.018 A 
ATOM     12  C   UNL     1      21.656  -0.544  54.013  0.00  0.00    -0.054 A 
ATOM     13  C   UNL     1      22.838  -1.016  54.588  0.00  0.00    -0.057 A 
ATOM     14  C   UNL     1      24.083  -0.574  54.118  0.00  0.00    -0.033 A 
ATOM     15  C   UNL     1      24.130   0.355  53.067  0.00  0.00    -0.057 A 
ATOM     16  C   UNL     1      22.948   0.828  52.490  0.00  0.00    -0.054 A 
BRANCH  14  17
ATOM     17  C   UNL     1      25.351  -1.069  54.764  0.00  0.00    +0.024 C 
BRANCH  17  18
ATOM     18  N   UNL     1      26.529  -0.424  54.149  0.00  0.00    -0.294 N 
ATOM     19  C   UNL     1      27.391  -1.413  53.473  0.00  0.00    +0.023 C 
ATOM     20  C   UNL     1      28.603  -0.709  52.827  0.00  0.00    +0.060 C 
ATOM     21  O   UNL     1      28.696   0.655  53.201  0.00  0.00    -0.377 OA
ATOM     22  C   UNL     1      28.667   0.766  54.609  0.00  0.00    +0.060 C 
ATOM     23  C   UNL     1      27.308   0.303  55.172  0.00  0.00    +0.023 C 
ATOM     24  H   UNL     1      26.192   0.237  53.451  0.00  0.00    +0.000 HD
ENDBRANCH  17  18
ENDBRANCH  14  17
ENDBRANCH   7  11
BRANCH   1  25
ATOM     25  N   UNL     1      15.687   1.554  50.510  0.00  0.00    -0.312 N 
ATOM     26  H   UNL     1      15.473   1.143  49.641  0.00  0.00    +0.000 HD
BRANCH  25  29
ATOM     27  C   UNL     1      13.344   2.156  53.398  0.00  0.00    +0.140 A 
ATOM     28  C   UNL     1      14.217   2.385  52.318  0.00  0.00    +0.004 A 
ATOM     29  C   UNL     1      14.802   1.311  51.620  0.00  0.00    +0.053 A 
ATOM     30  C   UNL     1      14.489  -0.007  52.008  0.00  0.00    +0.064 A 
ATOM     31 CL   UNL     1      15.198  -1.399  51.197  0.00  0.00    -0.082 Cl
ATOM     32  C   UNL     1      13.621  -0.235  53.079  0.00  0.00    -0.020 A 
ATOM     33  C   UNL     1      13.052   0.837  53.772  0.00  0.00    +0.084 A 
ATOM     34 CL   UNL     1      11.968   0.511  55.116  0.00  0.00    -0.080 Cl
BRANCH  27  36
ATOM     35  C   UNL     1      12.534   4.516  53.598  0.00  0.00    +0.079 C 
ATOM     36  O   UNL     1      12.753   3.208  54.116  0.00  0.00    -0.494 OA
ENDBRANCH  27  36
ENDBRANCH  25  29
ENDBRANCH   1  25
BRANCH   2  37
ATOM     37  C   UNL     1      15.669   4.287  49.575  0.00  0.00    +0.103 C 
ATOM     38  N   UNL     1      14.714   4.757  49.118  0.00  0.00    -0.191 NA
ENDBRANCH   2  37
TORSDOF 7
ENDMDL
MODEL 8
REMARK VINA RESULT:    -8.313      4.736     10.166
REMARK INTER + INTRA:         -12.584
REMARK INTER:                 -11.551
REMARK INTRA:                  -1.033
REMARK UNBOUND:                -0.869
REMARK  Name = 
REMARK  8 active torsions:
REMARK  status: ('A' for Active; 'I' for Inactive)
REMARK    1  A    between atoms: C_1  and  O_2
REMARK    2  A    between atoms: O_2  and  C_3
REMARK    3  A    between atoms: C_5  and  N_6
REMARK    4  A    between atoms: N_6  and  C_7
REMARK    5  A    between atoms: C_8  and  C_9
REMARK    6  A    between atoms: C_15  and  C_16
REMARK    7  A    between atoms: C_19  and  C_20
REMARK    8  A    between atoms: C_20  and  N_21
REMARK                            x       y       z     vdW  Elec       q    Type
REMARK                         _______ _______ _______ _____ _____    ______ ____
ROOT
ATOM      1  C   UNL     1      25.079   8.574  47.966  0.00  0.00    +0.060 A 
ATOM      2  C   UNL     1      23.913   9.341  48.165  0.00  0.00    +0.091 A 
ATOM      3  C   UNL     1      22.909   8.860  49.012  0.00  0.00    +0.047 A 
ATOM      4  N   UNL     1      23.051   7.661  49.631  0.00  0.00    -0.254 NA
ATOM      5  C   UNL     1      24.155   6.888  49.459  0.00  0.00    +0.073 A 
ATOM      6  C   UNL     1      24.250   5.661  50.124  0.00  0.00    -0.028 A 
ATOM      7  C   UNL     1      25.390   4.852  49.972  0.00  0.00    -0.016 A 
ATOM      8  C   UNL     1      26.434   5.295  49.143  0.00  0.00    -0.053 A 
ATOM      9  C   UNL     1      26.345   6.519  48.475  0.00  0.00    -0.050 A 
ATOM     10  C   UNL     1      25.203   7.327  48.617  0.00  0.00    +0.023 A 
ENDROOT
BRANCH   7  11
ATOM     11  C   UNL     1      25.489   3.550  50.679  0.00  0.00    -0.018 A 
ATOM     12  C   UNL     1      26.622   2.733  50.517  0.00  0.00    -0.054 A 
ATOM     13  C   UNL     1      26.711   1.505  51.178  0.00  0.00    -0.057 A 
ATOM     14  C   UNL     1      25.673   1.073  52.015  0.00  0.00    -0.033 A 
ATOM     15  C   UNL     1      24.538   1.882  52.177  0.00  0.00    -0.057 A 
ATOM     16  C   UNL     1      24.447   3.110  51.517  0.00  0.00    -0.054 A 
BRANCH  14  17
ATOM     17  C   UNL     1      25.767  -0.265  52.702  0.00  0.00    +0.024 C 
BRANCH  17  18
ATOM     18  N   UNL     1      27.179  -0.674  52.846  0.00  0.00    -0.294 N 
ATOM     19  C   UNL     1      27.307  -2.142  52.921  0.00  0.00    +0.023 C 
ATOM     20  C   UNL     1      28.793  -2.540  53.054  0.00  0.00    +0.060 C 
ATOM     21  O   UNL     1      29.634  -1.419  53.266  0.00  0.00    -0.377 OA
ATOM     22  C   UNL     1      29.155  -0.664  54.361  0.00  0.00    +0.060 C 
ATOM     23  C   UNL     1      27.772  -0.057  54.050  0.00  0.00    +0.023 C 
ATOM     24  H   UNL     1      27.681  -0.350  52.020  0.00  0.00    +0.000 HD
ENDBRANCH  17  18
ENDBRANCH  14  17
ENDBRANCH   7  11
BRANCH   1  25
ATOM     25  N   UNL     1      26.115   9.042  47.084  0.00  0.00    -0.312 N 
ATOM     26  H   UNL     1      26.049   8.821  46.126  0.00  0.00    +0.000 HD
BRANCH  25  29
ATOM     27  C   UNL     1      28.165  11.882  48.472  0.00  0.00    +0.140 A 
ATOM     28  C   UNL     1      27.068  11.123  48.023  0.00  0.00    +0.004 A 
ATOM     29  C   UNL     1      27.245   9.815  47.533  0.00  0.00    +0.053 A 
ATOM     30  C   UNL     1      28.542   9.264  47.511  0.00  0.00    +0.064 A 
ATOM     31 CL   UNL     1      28.843   7.643  46.893  0.00  0.00    -0.082 Cl
ATOM     32  C   UNL     1      29.631  10.016  47.959  0.00  0.00    -0.020 A 
ATOM     33  C   UNL     1      29.447  11.317  48.436  0.00  0.00    +0.084 A 
ATOM     34 CL   UNL     1      30.841  12.234  48.986  0.00  0.00    -0.080 Cl
BRANCH  27  36
ATOM     35  C   UNL     1      27.205  14.191  48.354  0.00  0.00    +0.079 C 
ATOM     36  O   UNL     1      28.018  13.191  48.959  0.00  0.00    -0.494 OA
ENDBRANCH  27  36
ENDBRANCH  25  29
ENDBRANCH   1  25
BRANCH   2  37
ATOM     37  C   UNL     1      23.716  10.599  47.488  0.00  0.00    +0.103 C 
ATOM     38  N   UNL     1      23.559  11.609  46.943  0.00  0.00    -0.191 NA
ENDBRANCH   2  37
TORSDOF 7
ENDMDL
MODEL 9
REMARK VINA RESULT:    -8.305      4.920     11.841
REMARK INTER + INTRA:         -12.572
REMARK INTER:                 -11.330
REMARK INTRA:                  -1.242
REMARK UNBOUND:                -0.869
REMARK  Name = 
REMARK  8 active torsions:
REMARK  status: ('A' for Active; 'I' for Inactive)
REMARK    1  A    between atoms: C_1  and  O_2
REMARK    2  A    between atoms: O_2  and  C_3
REMARK    3  A    between atoms: C_5  and  N_6
REMARK    4  A    between atoms: N_6  and  C_7
REMARK    5  A    between atoms: C_8  and  C_9
REMARK    6  A    between atoms: C_15  and  C_16
REMARK    7  A    between atoms: C_19  and  C_20
REMARK    8  A    between atoms: C_20  and  N_21
REMARK                            x       y       z     vdW  Elec       q    Type
REMARK                         _______ _______ _______ _____ _____    ______ ____
ROOT
ATOM      1  C   UNL     1      24.147   2.105  52.989  0.00  0.00    +0.060 A 
ATOM      2  C   UNL     1      25.268   1.286  53.232  0.00  0.00    +0.091 A 
ATOM      3  C   UNL     1      25.096  -0.097  53.357  0.00  0.00    +0.047 A 
ATOM      4  N   UNL     1      23.860  -0.646  53.253  0.00  0.00    -0.254 NA
ATOM      5  C   UNL     1      22.753   0.109  53.026  0.00  0.00    +0.073 A 
ATOM      6  C   UNL     1      21.503  -0.509  52.924  0.00  0.00    -0.028 A 
ATOM      7  C   UNL     1      20.347   0.252  52.675  0.00  0.00    -0.016 A 
ATOM      8  C   UNL     1      20.467   1.644  52.528  0.00  0.00    -0.053 A 
ATOM      9  C   UNL     1      21.713   2.268  52.630  0.00  0.00    -0.050 A 
ATOM     10  C   UNL     1      22.869   1.512  52.888  0.00  0.00    +0.023 A 
ENDROOT
BRANCH   7  11
ATOM     11  C   UNL     1      19.020  -0.407  52.568  0.00  0.00    -0.018 A 
ATOM     12  C   UNL     1      18.685  -1.480  53.413  0.00  0.00    -0.054 A 
ATOM     13  C   UNL     1      17.439  -2.103  53.308  0.00  0.00    -0.057 A 
ATOM     14  C   UNL     1      16.504  -1.665  52.359  0.00  0.00    -0.033 A 
ATOM     15  C   UNL     1      16.835  -0.598  51.510  0.00  0.00    -0.057 A 
ATOM     16  C   UNL     1      18.081   0.027  51.615  0.00  0.00    -0.054 A 
BRANCH  14  17
ATOM     17  C   UNL     1      15.174  -2.361  52.235  0.00  0.00    +0.024 C 
BRANCH  17  18
ATOM     18  N   UNL     1      14.539  -2.037  50.941  0.00  0.00    -0.294 N 
ATOM     19  C   UNL     1      13.180  -1.495  51.131  0.00  0.00    +0.023 C 
ATOM     20  C   UNL     1      12.550  -1.151  49.764  0.00  0.00    +0.060 C 
ATOM     21  O   UNL     1      13.333  -1.612  48.678  0.00  0.00    -0.377 OA
ATOM     22  C   UNL     1      13.607  -2.990  48.838  0.00  0.00    +0.060 C 
ATOM     23  C   UNL     1      14.486  -3.237  50.081  0.00  0.00    +0.023 C 
ATOM     24  H   UNL     1      15.108  -1.323  50.487  0.00  0.00    +0.000 HD
ENDBRANCH  17  18
ENDBRANCH  14  17
ENDBRANCH   7  11
BRANCH   1  25
ATOM     25  N   UNL     1      24.299   3.532  52.876  0.00  0.00    -0.312 N 
ATOM     26  H   UNL     1      24.332   4.065  53.703  0.00  0.00    +0.000 HD
BRANCH  25  29
ATOM     27  C   UNL     1      25.605   4.640  49.520  0.00  0.00    +0.140 A 
ATOM     28  C   UNL     1      25.500   3.981  50.759  0.00  0.00    +0.004 A 
ATOM     29  C   UNL     1      24.405   4.218  51.613  0.00  0.00    +0.053 A 
ATOM     30  C   UNL     1      23.401   5.117  51.204  0.00  0.00    +0.064 A 
ATOM     31 CL   UNL     1      22.015   5.479  52.226  0.00  0.00    -0.082 Cl
ATOM     32  C   UNL     1      23.505   5.770  49.972  0.00  0.00    -0.020 A 
ATOM     33  C   UNL     1      24.599   5.536  49.135  0.00  0.00    +0.084 A 
ATOM     34 CL   UNL     1      24.697   6.379  47.596  0.00  0.00    -0.080 Cl
BRANCH  27  36
ATOM     35  C   UNL     1      27.885   5.203  48.650  0.00  0.00    +0.079 C 
ATOM     36  O   UNL     1      26.690   4.429  48.653  0.00  0.00    -0.494 OA
ENDBRANCH  27  36
ENDBRANCH  25  29
ENDBRANCH   1  25
BRANCH   2  37
ATOM     37  C   UNL     1      26.588   1.845  53.391  0.00  0.00    +0.103 C 
ATOM     38  N   UNL     1      27.648   2.293  53.519  0.00  0.00    -0.191 NA
ENDBRANCH   2  37
TORSDOF 7
ENDMDL
