MODEL 1
REMARK VINA RESULT:    -7.425      0.000      0.000
REMARK INTER + INTRA:          -9.411
REMARK INTER:                  -8.944
REMARK INTRA:                  -0.467
REMARK UNBOUND:                -0.467
REMARK  Name = 
REMARK  4 active torsions:
REMARK  status: ('A' for Active; 'I' for Inactive)
REMARK    1  A    between atoms: N_1  and  N_2
REMARK    2  A    between atoms: N_2  and  C_3
REMARK    3  A    between atoms: C_9  and  N_10
REMARK    4  A    between atoms: N_10  and  C_11
REMARK                            x       y       z     vdW  Elec       q    Type
REMARK                         _______ _______ _______ _____ _____    ______ ____
ROOT
ATOM      1  C   UNL     1      27.508  -0.855  53.176  0.00  0.00    +0.134 A 
ATOM      2  C   UNL     1      26.170  -1.231  53.342  0.00  0.00    +0.005 A 
ATOM      3  C   UNL     1      25.167  -0.264  53.241  0.00  0.00    +0.081 A 
ATOM      4  N   UNL     1      23.864  -0.622  53.384  0.00  0.00    -0.235 NA
ATOM      5  C   UNL     1      22.874   0.299  53.284  0.00  0.00    +0.119 A 
ATOM      6  N   UNL     1      23.174   1.601  53.047  0.00  0.00    -0.220 NA
ATOM      7  C   UNL     1      24.459   2.023  52.890  0.00  0.00    +0.135 A 
ATOM      8  C   UNL     1      25.505   1.081  52.985  0.00  0.00    +0.059 A 
ATOM      9  C   UNL     1      26.861   1.409  52.811  0.00  0.00    +0.042 A 
ATOM     10  N   UNL     1      27.815   0.445  52.912  0.00  0.00    -0.238 NA
ENDROOT
BRANCH   1  11
ATOM     11  N   UNL     1      28.550  -1.832  53.275  0.00  0.00    -0.267 N 
ATOM     12  H   UNL     1      29.442  -1.563  53.592  0.00  0.00    +0.000 HD
BRANCH  11  13
ATOM     13  N   UNL     1      28.313  -3.171  52.923  0.00  0.00    -0.255 NA
ATOM     14  H   UNL     1      27.765  -3.204  52.063  0.00  0.00    +0.000 HD
ATOM     15  H   UNL     1      27.797  -3.634  53.672  0.00  0.00    +0.000 HD
ENDBRANCH  11  13
ENDBRANCH   1  11
BRANCH   7  16
ATOM     16  N   UNL     1      24.723   3.423  52.692  0.00  0.00    -0.299 N 
ATOM     17  H   UNL     1      25.217   3.908  53.391  0.00  0.00    +0.000 HD
BRANCH  16  18
ATOM     18  C   UNL     1      24.302   4.149  51.524  0.00  0.00    +0.033 A 
ATOM     19  C   UNL     1      24.773   3.758  50.261  0.00  0.00    -0.040 A 
ATOM     20  C   UNL     1      24.361   4.437  49.110  0.00  0.00    -0.059 A 
ATOM     21  C   UNL     1      23.467   5.506  49.209  0.00  0.00    -0.048 A 
ATOM     22  C   UNL     1      22.975   5.892  50.460  0.00  0.00    +0.020 A 
ATOM     23 BR   UNL     1      21.735   7.339  50.593  0.00  0.00    -0.050 Br
ATOM     24  C   UNL     1      23.385   5.214  51.613  0.00  0.00    -0.027 A 
ENDBRANCH  16  18
ENDBRANCH   7  16
TORSDOF 4
ENDMDL
MODEL 2
REMARK VINA RESULT:    -7.288      4.381      6.574
REMARK INTER + INTRA:          -9.246
REMARK INTER:                  -9.101
REMARK INTRA:                  -0.145
REMARK UNBOUND:                -0.467
REMARK  Name = 
REMARK  4 active torsions:
REMARK  status: ('A' for Active; 'I' for Inactive)
REMARK    1  A    between atoms: N_1  and  N_2
REMARK    2  A    between atoms: N_2  and  C_3
REMARK    3  A    between atoms: C_9  and  N_10
REMARK    4  A    between atoms: N_10  and  C_11
REMARK                            x       y       z     vdW  Elec       q    Type
REMARK                         _______ _______ _______ _____ _____    ______ ____
ROOT
ATOM      1  C   UNL     1      19.954  -0.472  53.071  0.00  0.00    +0.134 A 
ATOM      2  C   UNL     1      20.550  -1.090  54.176  0.00  0.00    +0.005 A 
ATOM      3  C   UNL     1      21.933  -0.995  54.353  0.00  0.00    +0.081 A 
ATOM      4  N   UNL     1      22.519  -1.577  55.432  0.00  0.00    -0.235 NA
ATOM      5  C   UNL     1      23.858  -1.492  55.626  0.00  0.00    +0.119 A 
ATOM      6  N   UNL     1      24.637  -0.827  54.736  0.00  0.00    -0.220 NA
ATOM      7  C   UNL     1      24.110  -0.220  53.637  0.00  0.00    +0.135 A 
ATOM      8  C   UNL     1      22.718  -0.290  53.417  0.00  0.00    +0.059 A 
ATOM      9  C   UNL     1      22.074   0.327  52.331  0.00  0.00    +0.042 A 
ATOM     10  N   UNL     1      20.726   0.219  52.187  0.00  0.00    -0.238 NA
ENDROOT
BRANCH   1  11
ATOM     11  N   UNL     1      18.538  -0.557  52.873  0.00  0.00    -0.267 N 
ATOM     12  H   UNL     1      18.127  -0.116  52.095  0.00  0.00    +0.000 HD
BRANCH  11  13
ATOM     13  N   UNL     1      17.729  -1.264  53.777  0.00  0.00    -0.255 NA
ATOM     14  H   UNL     1      18.110  -2.202  53.913  0.00  0.00    +0.000 HD
ATOM     15  H   UNL     1      16.782  -1.333  53.406  0.00  0.00    +0.000 HD
ENDBRANCH  11  13
ENDBRANCH   1  11
BRANCH   7  16
ATOM     16  N   UNL     1      24.988   0.427  52.699  0.00  0.00    -0.299 N 
ATOM     17  H   UNL     1      24.624   0.693  51.825  0.00  0.00    +0.000 HD
BRANCH  16  18
ATOM     18  C   UNL     1      26.373   0.705  52.975  0.00  0.00    +0.033 A 
ATOM     19  C   UNL     1      26.783   2.031  53.182  0.00  0.00    -0.040 A 
ATOM     20  C   UNL     1      28.120   2.322  53.471  0.00  0.00    -0.059 A 
ATOM     21  C   UNL     1      29.056   1.290  53.567  0.00  0.00    -0.048 A 
ATOM     22  C   UNL     1      28.656  -0.037  53.382  0.00  0.00    +0.020 A 
ATOM     23 BR   UNL     1      29.933  -1.449  53.536  0.00  0.00    -0.050 Br
ATOM     24  C   UNL     1      27.319  -0.331  53.094  0.00  0.00    -0.027 A 
ENDBRANCH  16  18
ENDBRANCH   7  16
TORSDOF 4
ENDMDL
MODEL 3
REMARK VINA RESULT:    -7.245      3.904      6.625
REMARK INTER + INTRA:          -9.194
REMARK INTER:                  -9.121
REMARK INTRA:                  -0.073
REMARK UNBOUND:                -0.467
REMARK  Name = 
REMARK  4 active torsions:
REMARK  status: ('A' for Active; 'I' for Inactive)
REMARK    1  A    between atoms: N_1  and  N_2
REMARK    2  A    between atoms: N_2  and  C_3
REMARK    3  A    between atoms: C_9  and  N_10
REMARK    4  A    between atoms: N_10  and  C_11
REMARK                            x       y       z     vdW  Elec       q    Type
REMARK                         _______ _______ _______ _____ _____    ______ ____
ROOT
ATOM      1  C   UNL     1      19.663  -0.686  53.478  0.00  0.00    +0.134 A 
ATOM      2  C   UNL     1      20.029   0.091  52.372  0.00  0.00    +0.005 A 
ATOM      3  C   UNL     1      21.368   0.450  52.199  0.00  0.00    +0.081 A 
ATOM      4  N   UNL     1      21.737   1.189  51.121  0.00  0.00    -0.235 NA
ATOM      5  C   UNL     1      23.032   1.544  50.929  0.00  0.00    +0.119 A 
ATOM      6  N   UNL     1      23.982   1.168  51.823  0.00  0.00    -0.220 NA
ATOM      7  C   UNL     1      23.677   0.424  52.921  0.00  0.00    +0.135 A 
ATOM      8  C   UNL     1      22.337   0.039  53.138  0.00  0.00    +0.059 A 
ATOM      9  C   UNL     1      21.924  -0.752  54.224  0.00  0.00    +0.042 A 
ATOM     10  N   UNL     1      20.614  -1.087  54.365  0.00  0.00    -0.238 NA
ENDROOT
BRANCH   1  11
ATOM     11  N   UNL     1      18.295  -1.064  53.672  0.00  0.00    -0.267 N 
ATOM     12  H   UNL     1      17.581  -0.401  53.531  0.00  0.00    +0.000 HD
BRANCH  11  13
ATOM     13  N   UNL     1      17.961  -2.371  54.063  0.00  0.00    -0.255 NA
ATOM     14  H   UNL     1      17.725  -2.379  55.056  0.00  0.00    +0.000 HD
ATOM     15  H   UNL     1      18.756  -2.989  53.898  0.00  0.00    +0.000 HD
ENDBRANCH  11  13
ENDBRANCH   1  11
BRANCH   7  16
ATOM     16  N   UNL     1      24.715   0.099  53.863  0.00  0.00    -0.299 N 
ATOM     17  H   UNL     1      24.479  -0.446  54.648  0.00  0.00    +0.000 HD
BRANCH  16  18
ATOM     18  C   UNL     1      26.080   0.528  53.714  0.00  0.00    +0.033 A 
ATOM     19  C   UNL     1      26.371   1.900  53.666  0.00  0.00    -0.040 A 
ATOM     20  C   UNL     1      27.693   2.339  53.542  0.00  0.00    -0.059 A 
ATOM     21  C   UNL     1      28.736   1.413  53.477  0.00  0.00    -0.048 A 
ATOM     22  C   UNL     1      28.460   0.043  53.543  0.00  0.00    +0.020 A 
ATOM     23 BR   UNL     1      29.889  -1.223  53.476  0.00  0.00    -0.050 Br
ATOM     24  C   UNL     1      27.139  -0.399  53.668  0.00  0.00    -0.027 A 
ENDBRANCH  16  18
ENDBRANCH   7  16
TORSDOF 4
ENDMDL
MODEL 4
REMARK VINA RESULT:    -7.154      1.948      2.628
REMARK INTER + INTRA:          -9.085
REMARK INTER:                  -8.620
REMARK INTRA:                  -0.465
REMARK UNBOUND:                -0.467
REMARK  Name = 
REMARK  4 active torsions:
REMARK  status: ('A' for Active; 'I' for Inactive)
REMARK    1  A    between atoms: N_1  and  N_2
REMARK    2  A    between atoms: N_2  and  C_3
REMARK    3  A    between atoms: C_9  and  N_10
REMARK    4  A    between atoms: N_10  and  C_11
REMARK                            x       y       z     vdW  Elec       q    Type
REMARK                         _______ _______ _______ _____ _____    ______ ____
ROOT
ATOM      1  C   UNL     1      28.352   1.284  53.891  0.00  0.00    +0.134 A 
ATOM      2  C   UNL     1      27.451   0.413  54.516  0.00  0.00    +0.005 A 
ATOM      3  C   UNL     1      26.160   0.275  54.002  0.00  0.00    +0.081 A 
ATOM      4  N   UNL     1      25.284  -0.580  54.590  0.00  0.00    -0.235 NA
ATOM      5  C   UNL     1      24.027  -0.734  54.105  0.00  0.00    +0.119 A 
ATOM      6  N   UNL     1      23.622  -0.023  53.022  0.00  0.00    -0.220 NA
ATOM      7  C   UNL     1      24.453   0.848  52.385  0.00  0.00    +0.135 A 
ATOM      8  C   UNL     1      25.767   1.019  52.870  0.00  0.00    +0.059 A 
ATOM      9  C   UNL     1      26.709   1.871  52.268  0.00  0.00    +0.042 A 
ATOM     10  N   UNL     1      27.960   1.982  52.789  0.00  0.00    -0.238 NA
ENDROOT
BRANCH   1  11
ATOM     11  N   UNL     1      29.680   1.438  54.403  0.00  0.00    -0.267 N 
ATOM     12  H   UNL     1      30.342   0.722  54.264  0.00  0.00    +0.000 HD
BRANCH  11  13
ATOM     13  N   UNL     1      30.050   2.598  55.102  0.00  0.00    -0.255 NA
ATOM     14  H   UNL     1      30.591   3.208  54.487  0.00  0.00    +0.000 HD
ATOM     15  H   UNL     1      30.617   2.343  55.911  0.00  0.00    +0.000 HD
ENDBRANCH  11  13
ENDBRANCH   1  11
BRANCH   7  16
ATOM     16  N   UNL     1      23.955   1.613  51.274  0.00  0.00    -0.299 N 
ATOM     17  H   UNL     1      24.086   1.258  50.366  0.00  0.00    +0.000 HD
BRANCH  16  18
ATOM     18  C   UNL     1      23.273   2.872  51.423  0.00  0.00    +0.033 A 
ATOM     19  C   UNL     1      21.934   2.886  51.845  0.00  0.00    -0.040 A 
ATOM     20  C   UNL     1      21.259   4.098  52.016  0.00  0.00    -0.059 A 
ATOM     21  C   UNL     1      21.918   5.307  51.778  0.00  0.00    -0.048 A 
ATOM     22  C   UNL     1      23.257   5.306  51.377  0.00  0.00    +0.020 A 
ATOM     23 BR   UNL     1      24.164   6.959  51.073  0.00  0.00    -0.050 Br
ATOM     24  C   UNL     1      23.936   4.094  51.206  0.00  0.00    -0.027 A 
ENDBRANCH  16  18
ENDBRANCH   7  16
TORSDOF 4
ENDMDL
MODEL 5
REMARK VINA RESULT:    -7.150      3.142      4.515
REMARK INTER + INTRA:          -9.080
REMARK INTER:                  -8.628
REMARK INTRA:                  -0.452
REMARK UNBOUND:                -0.467
REMARK  Name = 
REMARK  4 active torsions:
REMARK  status: ('A' for Active; 'I' for Inactive)
REMARK    1  A    between atoms: N_1  and  N_2
REMARK    2  A    between atoms: N_2  and  C_3
REMARK    3  A    between atoms: C_9  and  N_10
REMARK    4  A    between atoms: N_10  and  C_11
REMARK                            x       y       z     vdW  Elec       q    Type
REMARK                         _______ _______ _______ _____ _____    ______ ____
ROOT
ATOM      1  C   UNL     1      27.727  -1.165  53.291  0.00  0.00    +0.134 A 
ATOM      2  C   UNL     1      27.673   0.161  53.737  0.00  0.00    +0.005 A 
ATOM      3  C   UNL     1      26.535   0.927  53.476  0.00  0.00    +0.081 A 
ATOM      4  N   UNL     1      26.465   2.209  53.919  0.00  0.00    -0.235 NA
ATOM      5  C   UNL     1      25.367   2.969  53.682  0.00  0.00    +0.119 A 
ATOM      6  N   UNL     1      24.319   2.457  52.988  0.00  0.00    -0.220 NA
ATOM      7  C   UNL     1      24.326   1.178  52.520  0.00  0.00    +0.135 A 
ATOM      8  C   UNL     1      25.456   0.368  52.759  0.00  0.00    +0.059 A 
ATOM      9  C   UNL     1      25.549  -0.972  52.344  0.00  0.00    +0.042 A 
ATOM     10  N   UNL     1      26.670  -1.694  52.615  0.00  0.00    -0.238 NA
ENDROOT
BRANCH   1  11
ATOM     11  N   UNL     1      28.886  -1.967  53.550  0.00  0.00    -0.267 N 
ATOM     12  H   UNL     1      29.719  -1.536  53.848  0.00  0.00    +0.000 HD
BRANCH  11  13
ATOM     13  N   UNL     1      28.846  -3.360  53.381  0.00  0.00    -0.255 NA
ATOM     14  H   UNL     1      28.073  -3.746  53.924  0.00  0.00    +0.000 HD
ATOM     15  H   UNL     1      29.724  -3.768  53.704  0.00  0.00    +0.000 HD
ENDBRANCH  11  13
ENDBRANCH   1  11
BRANCH   7  16
ATOM     16  N   UNL     1      23.210   0.705  51.745  0.00  0.00    -0.299 N 
ATOM     17  H   UNL     1      23.290   0.705  50.765  0.00  0.00    +0.000 HD
BRANCH  16  18
ATOM     18  C   UNL     1      21.985   0.230  52.332  0.00  0.00    +0.033 A 
ATOM     19  C   UNL     1      22.009  -0.339  53.614  0.00  0.00    -0.040 A 
ATOM     20  C   UNL     1      20.827  -0.789  54.211  0.00  0.00    -0.059 A 
ATOM     21  C   UNL     1      19.610  -0.663  53.537  0.00  0.00    -0.048 A 
ATOM     22  C   UNL     1      19.571  -0.080  52.267  0.00  0.00    +0.020 A 
ATOM     23 BR   UNL     1      17.904   0.112  51.354  0.00  0.00    -0.050 Br
ATOM     24  C   UNL     1      20.752   0.372  51.667  0.00  0.00    -0.027 A 
ENDBRANCH  16  18
ENDBRANCH   7  16
TORSDOF 4
ENDMDL
MODEL 6
REMARK VINA RESULT:    -7.127      1.973      3.665
REMARK INTER + INTRA:          -9.052
REMARK INTER:                  -8.885
REMARK INTRA:                  -0.168
REMARK UNBOUND:                -0.467
REMARK  Name = 
REMARK  4 active torsions:
REMARK  status: ('A' for Active; 'I' for Inactive)
REMARK    1  A    between atoms: N_1  and  N_2
REMARK    2  A    between atoms: N_2  and  C_3
REMARK    3  A    between atoms: C_9  and  N_10
REMARK    4  A    between atoms: N_10  and  C_11
REMARK                            x       y       z     vdW  Elec       q    Type
REMARK                         _______ _______ _______ _____ _____    ______ ____
ROOT
ATOM      1  C   UNL     1      23.139  -0.708  54.212  0.00  0.00    +0.134 A 
ATOM      2  C   UNL     1      24.526  -0.643  54.391  0.00  0.00    +0.005 A 
ATOM      3  C   UNL     1      25.286   0.192  53.570  0.00  0.00    +0.081 A 
ATOM      4  N   UNL     1      26.630   0.275  53.746  0.00  0.00    -0.235 NA
ATOM      5  C   UNL     1      27.387   1.084  52.964  0.00  0.00    +0.119 A 
ATOM      6  N   UNL     1      26.808   1.820  51.982  0.00  0.00    -0.220 NA
ATOM      7  C   UNL     1      25.466   1.784  51.756  0.00  0.00    +0.135 A 
ATOM      8  C   UNL     1      24.658   0.954  52.562  0.00  0.00    +0.059 A 
ATOM      9  C   UNL     1      23.261   0.867  52.429  0.00  0.00    +0.042 A 
ATOM     10  N   UNL     1      22.548   0.047  53.245  0.00  0.00    -0.238 NA
ENDROOT
BRANCH   1  11
ATOM     11  N   UNL     1      22.343  -1.558  55.046  0.00  0.00    -0.267 N 
ATOM     12  H   UNL     1      22.753  -2.003  55.822  0.00  0.00    +0.000 HD
BRANCH  11  13
ATOM     13  N   UNL     1      20.982  -1.764  54.767  0.00  0.00    -0.255 NA
ATOM     14  H   UNL     1      20.661  -1.062  54.100  0.00  0.00    +0.000 HD
ATOM     15  H   UNL     1      20.442  -1.685  55.629  0.00  0.00    +0.000 HD
ENDBRANCH  11  13
ENDBRANCH   1  11
BRANCH   7  16
ATOM     16  N   UNL     1      24.913   2.546  50.668  0.00  0.00    -0.299 N 
ATOM     17  H   UNL     1      24.069   2.240  50.267  0.00  0.00    +0.000 HD
BRANCH  16  18
ATOM     18  C   UNL     1      25.531   3.732  50.139  0.00  0.00    +0.033 A 
ATOM     19  C   UNL     1      26.667   3.614  49.324  0.00  0.00    -0.040 A 
ATOM     20  C   UNL     1      27.272   4.752  48.782  0.00  0.00    -0.059 A 
ATOM     21  C   UNL     1      26.740   6.018  49.041  0.00  0.00    -0.048 A 
ATOM     22  C   UNL     1      25.597   6.147  49.836  0.00  0.00    +0.020 A 
ATOM     23 BR   UNL     1      24.857   7.876  50.171  0.00  0.00    -0.050 Br
ATOM     24  C   UNL     1      24.989   5.009  50.378  0.00  0.00    -0.027 A 
ENDBRANCH  16  18
ENDBRANCH   7  16
TORSDOF 4
ENDMDL
MODEL 7
REMARK VINA RESULT:    -7.108      2.536      3.752
REMARK INTER + INTRA:          -9.029
REMARK INTER:                  -8.674
REMARK INTRA:                  -0.356
REMARK UNBOUND:                -0.467
REMARK  Name = 
REMARK  4 active torsions:
REMARK  status: ('A' for Active; 'I' for Inactive)
REMARK    1  A    between atoms: N_1  and  N_2
REMARK    2  A    between atoms: N_2  and  C_3
REMARK    3  A    between atoms: C_9  and  N_10
REMARK    4  A    between atoms: N_10  and  C_11
REMARK                            x       y       z     vdW  Elec       q    Type
REMARK                         _______ _______ _______ _____ _____    ______ ____
ROOT
ATOM      1  C   UNL     1      25.146  -0.736  54.881  0.00  0.00    +0.134 A 
ATOM      2  C   UNL     1      26.328  -0.041  55.165  0.00  0.00    +0.005 A 
ATOM      3  C   UNL     1      26.882   0.796  54.194  0.00  0.00    +0.081 A 
ATOM      4  N   UNL     1      28.019   1.488  54.464  0.00  0.00    -0.235 NA
ATOM      5  C   UNL     1      28.572   2.310  53.538  0.00  0.00    +0.119 A 
ATOM      6  N   UNL     1      27.996   2.447  52.317  0.00  0.00    -0.220 NA
ATOM      7  C   UNL     1      26.854   1.784  51.985  0.00  0.00    +0.135 A 
ATOM      8  C   UNL     1      26.259   0.927  52.935  0.00  0.00    +0.059 A 
ATOM      9  C   UNL     1      25.066   0.221  52.700  0.00  0.00    +0.042 A 
ATOM     10  N   UNL     1      24.549  -0.584  53.667  0.00  0.00    -0.238 NA
ENDROOT
BRANCH   1  11
ATOM     11  N   UNL     1      24.562  -1.598  55.865  0.00  0.00    -0.267 N 
ATOM     12  H   UNL     1      25.139  -2.043  56.527  0.00  0.00    +0.000 HD
BRANCH  11  13
ATOM     13  N   UNL     1      23.175  -1.815  55.896  0.00  0.00    -0.255 NA
ATOM     14  H   UNL     1      22.747  -1.392  55.071  0.00  0.00    +0.000 HD
ATOM     15  H   UNL     1      22.783  -1.391  56.737  0.00  0.00    +0.000 HD
ENDBRANCH  11  13
ENDBRANCH   1  11
BRANCH   7  16
ATOM     16  N   UNL     1      26.317   1.926  50.658  0.00  0.00    -0.299 N 
ATOM     17  H   UNL     1      26.194   1.115  50.115  0.00  0.00    +0.000 HD
BRANCH  16  18
ATOM     18  C   UNL     1      25.948   3.193  50.086  0.00  0.00    +0.033 A 
ATOM     19  C   UNL     1      24.612   3.618  50.153  0.00  0.00    -0.040 A 
ATOM     20  C   UNL     1      24.235   4.856  49.621  0.00  0.00    -0.059 A 
ATOM     21  C   UNL     1      25.191   5.684  49.028  0.00  0.00    -0.048 A 
ATOM     22  C   UNL     1      26.529   5.280  48.973  0.00  0.00    +0.020 A 
ATOM     23 BR   UNL     1      27.839   6.422  48.183  0.00  0.00    -0.050 Br
ATOM     24  C   UNL     1      26.909   4.043  49.505  0.00  0.00    -0.027 A 
ENDBRANCH  16  18
ENDBRANCH   7  16
TORSDOF 4
ENDMDL
MODEL 8
REMARK VINA RESULT:    -7.015      3.737      6.321
REMARK INTER + INTRA:          -8.917
REMARK INTER:                  -8.452
REMARK INTRA:                  -0.465
REMARK UNBOUND:                -0.467
REMARK  Name = 
REMARK  4 active torsions:
REMARK  status: ('A' for Active; 'I' for Inactive)
REMARK    1  A    between atoms: N_1  and  N_2
REMARK    2  A    between atoms: N_2  and  C_3
REMARK    3  A    between atoms: C_9  and  N_10
REMARK    4  A    between atoms: N_10  and  C_11
REMARK                            x       y       z     vdW  Elec       q    Type
REMARK                         _______ _______ _______ _____ _____    ______ ____
ROOT
ATOM      1  C   UNL     1      26.822   5.495  49.220  0.00  0.00    +0.134 A 
ATOM      2  C   UNL     1      25.765   6.220  49.783  0.00  0.00    +0.005 A 
ATOM      3  C   UNL     1      24.653   5.536  50.281  0.00  0.00    +0.081 A 
ATOM      4  N   UNL     1      23.629   6.228  50.845  0.00  0.00    -0.235 NA
ATOM      5  C   UNL     1      22.543   5.584  51.341  0.00  0.00    +0.119 A 
ATOM      6  N   UNL     1      22.461   4.232  51.272  0.00  0.00    -0.220 NA
ATOM      7  C   UNL     1      23.455   3.481  50.722  0.00  0.00    +0.135 A 
ATOM      8  C   UNL     1      24.597   4.129  50.205  0.00  0.00    +0.059 A 
ATOM      9  C   UNL     1      25.688   3.443  49.645  0.00  0.00    +0.042 A 
ATOM     10  N   UNL     1      26.758   4.136  49.170  0.00  0.00    -0.238 NA
ENDROOT
BRANCH   1  11
ATOM     11  N   UNL     1      27.971   6.179  48.705  0.00  0.00    -0.267 N 
ATOM     12  H   UNL     1      27.861   7.051  48.263  0.00  0.00    +0.000 HD
BRANCH  11  13
ATOM     13  N   UNL     1      29.252   5.617  48.823  0.00  0.00    -0.255 NA
ATOM     14  H   UNL     1      29.661   5.503  47.895  0.00  0.00    +0.000 HD
ATOM     15  H   UNL     1      29.184   4.706  49.278  0.00  0.00    +0.000 HD
ENDBRANCH  11  13
ENDBRANCH   1  11
BRANCH   7  16
ATOM     16  N   UNL     1      23.291   2.054  50.628  0.00  0.00    -0.299 N 
ATOM     17  H   UNL     1      23.013   1.673  49.765  0.00  0.00    +0.000 HD
BRANCH  16  18
ATOM     18  C   UNL     1      23.516   1.158  51.731  0.00  0.00    +0.033 A 
ATOM     19  C   UNL     1      24.815   1.004  52.242  0.00  0.00    -0.040 A 
ATOM     20  C   UNL     1      25.052   0.154  53.326  0.00  0.00    -0.059 A 
ATOM     21  C   UNL     1      23.994  -0.541  53.917  0.00  0.00    -0.048 A 
ATOM     22  C   UNL     1      22.693  -0.380  53.430  0.00  0.00    +0.020 A 
ATOM     23 BR   UNL     1      21.244  -1.312  54.253  0.00  0.00    -0.050 Br
ATOM     24  C   UNL     1      22.452   0.471  52.346  0.00  0.00    -0.027 A 
ENDBRANCH  16  18
ENDBRANCH   7  16
TORSDOF 4
ENDMDL
MODEL 9
REMARK VINA RESULT:    -6.961      3.150      4.520
REMARK INTER + INTRA:          -8.852
REMARK INTER:                  -8.727
REMARK INTRA:                  -0.125
REMARK UNBOUND:                -0.467
REMARK  Name = 
REMARK  4 active torsions:
REMARK  status: ('A' for Active; 'I' for Inactive)
REMARK    1  A    between atoms: N_1  and  N_2
REMARK    2  A    between atoms: N_2  and  C_3
REMARK    3  A    between atoms: C_9  and  N_10
REMARK    4  A    between atoms: N_10  and  C_11
REMARK                            x       y       z     vdW  Elec       q    Type
REMARK                         _______ _______ _______ _____ _____    ______ ____
ROOT
ATOM      1  C   UNL     1      26.858  -0.787  53.092  0.00  0.00    +0.134 A 
ATOM      2  C   UNL     1      26.894   0.331  52.250  0.00  0.00    +0.005 A 
ATOM      3  C   UNL     1      25.754   1.127  52.117  0.00  0.00    +0.081 A 
ATOM      4  N   UNL     1      25.783   2.224  51.316  0.00  0.00    -0.235 NA
ATOM      5  C   UNL     1      24.690   3.014  51.176  0.00  0.00    +0.119 A 
ATOM      6  N   UNL     1      23.541   2.713  51.833  0.00  0.00    -0.220 NA
ATOM      7  C   UNL     1      23.449   1.630  52.654  0.00  0.00    +0.135 A 
ATOM      8  C   UNL     1      24.575   0.797  52.818  0.00  0.00    +0.059 A 
ATOM      9  C   UNL     1      24.591  -0.327  53.663  0.00  0.00    +0.042 A 
ATOM     10  N   UNL     1      25.717  -1.081  53.774  0.00  0.00    -0.238 NA
ENDROOT
BRANCH   1  11
ATOM     11  N   UNL     1      28.017  -1.615  53.242  0.00  0.00    -0.267 N 
ATOM     12  H   UNL     1      28.849  -1.228  53.600  0.00  0.00    +0.000 HD
BRANCH  11  13
ATOM     13  N   UNL     1      27.980  -2.972  52.884  0.00  0.00    -0.255 NA
ATOM     14  H   UNL     1      28.000  -3.547  53.727  0.00  0.00    +0.000 HD
ATOM     15  H   UNL     1      28.789  -3.193  52.303  0.00  0.00    +0.000 HD
ENDBRANCH  11  13
ENDBRANCH   1  11
BRANCH   7  16
ATOM     16  N   UNL     1      22.191   1.329  53.284  0.00  0.00    -0.299 N 
ATOM     17  H   UNL     1      22.126   1.421  54.262  0.00  0.00    +0.000 HD
BRANCH  16  18
ATOM     18  C   UNL     1      21.025   0.901  52.558  0.00  0.00    +0.033 A 
ATOM     19  C   UNL     1      20.872   1.276  51.215  0.00  0.00    -0.040 A 
ATOM     20  C   UNL     1      19.756   0.855  50.485  0.00  0.00    -0.059 A 
ATOM     21  C   UNL     1      18.789   0.046  51.087  0.00  0.00    -0.048 A 
ATOM     22  C   UNL     1      18.941  -0.350  52.419  0.00  0.00    +0.020 A 
ATOM     23 BR   UNL     1      17.630  -1.475  53.236  0.00  0.00    -0.050 Br
ATOM     24  C   UNL     1      20.057   0.069  53.152  0.00  0.00    -0.027 A 
ENDBRANCH  16  18
ENDBRANCH   7  16
TORSDOF 4
ENDMDL
