MODEL 1
REMARK VINA RESULT:    -7.523      0.000      0.000
REMARK INTER + INTRA:         -11.476
REMARK INTER:                 -10.601
REMARK INTRA:                  -0.875
REMARK UNBOUND:                -0.875
REMARK  Name = 
REMARK  9 active torsions:
REMARK  status: ('A' for Active; 'I' for Inactive)
REMARK    1  A    between atoms: C_1  and  O_2
REMARK    2  A    between atoms: O_2  and  C_3
REMARK    3  A    between atoms: C_3  and  C_4
REMARK    4  A    between atoms: C_4  and  O_5
REMARK    5  A    between atoms: O_5  and  C_6
REMARK    6  A    between atoms: C_12  and  N_13
REMARK    7  A    between atoms: N_13  and  C_14
REMARK    8  A    between atoms: C_24  and  O_25
REMARK    9  A    between atoms: O_25  and  C_26
REMARK                            x       y       z     vdW  Elec       q    Type
REMARK                         _______ _______ _______ _____ _____    ______ ____
ROOT
ATOM      1  C   UNL     1      20.747   0.341  51.614  0.00  0.00    +0.164 A 
ATOM      2  C   UNL     1      21.269   1.116  50.562  0.00  0.00    +0.010 A 
ATOM      3  C   UNL     1      22.511   1.743  50.692  0.00  0.00    +0.080 A 
ATOM      4  N   UNL     1      22.991   2.503  49.674  0.00  0.00    -0.235 NA
ATOM      5  C   UNL     1      24.188   3.129  49.773  0.00  0.00    +0.119 A 
ATOM      6  N   UNL     1      24.936   2.995  50.896  0.00  0.00    -0.220 NA
ATOM      7  C   UNL     1      24.512   2.249  51.953  0.00  0.00    +0.134 A 
ATOM      8  C   UNL     1      23.262   1.594  51.877  0.00  0.00    +0.044 A 
ATOM      9  C   UNL     1      22.731   0.833  52.935  0.00  0.00    -0.004 A 
ATOM     10  C   UNL     1      21.478   0.203  52.804  0.00  0.00    +0.162 A 
ENDROOT
BRANCH   7  11
ATOM     11  N   UNL     1      25.374   2.098  53.095  0.00  0.00    -0.297 N 
ATOM     12  H   UNL     1      25.253   2.708  53.858  0.00  0.00    +0.000 HD
BRANCH  11  13
ATOM     13  C   UNL     1      26.406   1.097  53.177  0.00  0.00    +0.068 A 
ATOM     14  C   UNL     1      26.143  -0.246  52.845  0.00  0.00    -0.036 A 
ATOM     15  C   UNL     1      27.160  -1.202  52.908  0.00  0.00    -0.041 A 
ATOM     16  C   UNL     1      28.452  -0.828  53.294  0.00  0.00    +0.044 A 
ATOM     17 CL   UNL     1      29.727  -2.030  53.372  0.00  0.00    -0.083 Cl
ATOM     18  C   UNL     1      28.726   0.506  53.610  0.00  0.00    -0.006 A 
ATOM     19  C   UNL     1      27.712   1.467  53.546  0.00  0.00    +0.146 A 
ATOM     20  F   UNL     1      28.000   2.756  53.859  0.00  0.00    -0.203 F 
ENDBRANCH  11  13
ENDBRANCH   7  11
BRANCH  10  21
ATOM     21  O   UNL     1      20.921  -0.570  53.836  0.00  0.00    -0.491 OA
ATOM     22  C   UNL     1      21.542  -1.712  54.417  0.00  0.00    +0.079 C 
ENDBRANCH  10  21
BRANCH   1  23
ATOM     23  O   UNL     1      19.505  -0.305  51.518  0.00  0.00    -0.486 OA
BRANCH  23  24
ATOM     24  C   UNL     1      18.250   0.302  51.817  0.00  0.00    +0.113 C 
BRANCH  24  25
ATOM     25  C   UNL     1      17.297  -0.743  52.391  0.00  0.00    +0.081 C 
BRANCH  25  27
ATOM     26  C   UNL     1      17.846  -2.621  53.639  0.00  0.00    +0.037 C 
ATOM     27  O   UNL     1      17.768  -1.213  53.641  0.00  0.00    -0.380 OA
ENDBRANCH  25  27
ENDBRANCH  24  25
ENDBRANCH  23  24
ENDBRANCH   1  23
TORSDOF 7
ENDMDL
MODEL 2
REMARK VINA RESULT:    -7.243      1.543      2.087
REMARK INTER + INTRA:         -11.082
REMARK INTER:                 -10.206
REMARK INTRA:                  -0.876
REMARK UNBOUND:                -0.875
REMARK  Name = 
REMARK  9 active torsions:
REMARK  status: ('A' for Active; 'I' for Inactive)
REMARK    1  A    between atoms: C_1  and  O_2
REMARK    2  A    between atoms: O_2  and  C_3
REMARK    3  A    between atoms: C_3  and  C_4
REMARK    4  A    between atoms: C_4  and  O_5
REMARK    5  A    between atoms: O_5  and  C_6
REMARK    6  A    between atoms: C_12  and  N_13
REMARK    7  A    between atoms: N_13  and  C_14
REMARK    8  A    between atoms: C_24  and  O_25
REMARK    9  A    between atoms: O_25  and  C_26
REMARK                            x       y       z     vdW  Elec       q    Type
REMARK                         _______ _______ _______ _____ _____    ______ ____
ROOT
ATOM      1  C   UNL     1      21.365   1.001  51.116  0.00  0.00    +0.164 A 
ATOM      2  C   UNL     1      22.008   1.737  50.104  0.00  0.00    +0.010 A 
ATOM      3  C   UNL     1      23.271   2.292  50.326  0.00  0.00    +0.080 A 
ATOM      4  N   UNL     1      23.869   3.017  49.344  0.00  0.00    -0.235 NA
ATOM      5  C   UNL     1      25.090   3.573  49.531  0.00  0.00    +0.119 A 
ATOM      6  N   UNL     1      25.743   3.404  50.708  0.00  0.00    -0.220 NA
ATOM      7  C   UNL     1      25.199   2.691  51.731  0.00  0.00    +0.134 A 
ATOM      8  C   UNL     1      23.922   2.109  51.564  0.00  0.00    +0.044 A 
ATOM      9  C   UNL     1      23.270   1.387  52.581  0.00  0.00    -0.004 A 
ATOM     10  C   UNL     1      21.996   0.829  52.359  0.00  0.00    +0.162 A 
ENDROOT
BRANCH   7  11
ATOM     11  N   UNL     1      25.962   2.499  52.936  0.00  0.00    -0.297 N 
ATOM     12  H   UNL     1      25.843   3.139  53.674  0.00  0.00    +0.000 HD
BRANCH  11  13
ATOM     13  C   UNL     1      26.894   1.416  53.114  0.00  0.00    +0.068 A 
ATOM     14  C   UNL     1      26.512   0.083  52.871  0.00  0.00    -0.036 A 
ATOM     15  C   UNL     1      27.433  -0.956  53.028  0.00  0.00    -0.041 A 
ATOM     16  C   UNL     1      28.747  -0.677  53.417  0.00  0.00    +0.044 A 
ATOM     17 CL   UNL     1      29.902  -1.982  53.612  0.00  0.00    -0.083 Cl
ATOM     18  C   UNL     1      29.140   0.646  53.643  0.00  0.00    -0.006 A 
ATOM     19  C   UNL     1      28.222   1.689  53.487  0.00  0.00    +0.146 A 
ATOM     20  F   UNL     1      28.624   2.966  53.714  0.00  0.00    -0.203 F 
ENDBRANCH  11  13
ENDBRANCH   7  11
BRANCH  10  21
ATOM     21  O   UNL     1      21.320   0.097  53.348  0.00  0.00    -0.491 OA
ATOM     22  C   UNL     1      21.949  -0.541  54.455  0.00  0.00    +0.079 C 
ENDBRANCH  10  21
BRANCH   1  23
ATOM     23  O   UNL     1      20.098   0.427  50.929  0.00  0.00    -0.486 OA
BRANCH  23  24
ATOM     24  C   UNL     1      18.912   1.160  50.633  0.00  0.00    +0.113 C 
BRANCH  24  25
ATOM     25  C   UNL     1      18.648   2.180  51.737  0.00  0.00    +0.081 C 
BRANCH  25  27
ATOM     26  C   UNL     1      19.405   4.229  50.950  0.00  0.00    +0.037 C 
ATOM     27  O   UNL     1      18.268   3.426  51.183  0.00  0.00    -0.380 OA
ENDBRANCH  25  27
ENDBRANCH  24  25
ENDBRANCH  23  24
ENDBRANCH   1  23
TORSDOF 7
ENDMDL
MODEL 3
REMARK VINA RESULT:    -7.231      2.254      3.585
REMARK INTER + INTRA:         -11.065
REMARK INTER:                 -10.345
REMARK INTRA:                  -0.720
REMARK UNBOUND:                -0.875
REMARK  Name = 
REMARK  9 active torsions:
REMARK  status: ('A' for Active; 'I' for Inactive)
REMARK    1  A    between atoms: C_1  and  O_2
REMARK    2  A    between atoms: O_2  and  C_3
REMARK    3  A    between atoms: C_3  and  C_4
REMARK    4  A    between atoms: C_4  and  O_5
REMARK    5  A    between atoms: O_5  and  C_6
REMARK    6  A    between atoms: C_12  and  N_13
REMARK    7  A    between atoms: N_13  and  C_14
REMARK    8  A    between atoms: C_24  and  O_25
REMARK    9  A    between atoms: O_25  and  C_26
REMARK                            x       y       z     vdW  Elec       q    Type
REMARK                         _______ _______ _______ _____ _____    ______ ____
ROOT
ATOM      1  C   UNL     1      19.469   0.282  51.482  0.00  0.00    +0.164 A 
ATOM      2  C   UNL     1      19.671  -0.343  52.726  0.00  0.00    +0.010 A 
ATOM      3  C   UNL     1      20.954  -0.432  53.273  0.00  0.00    +0.080 A 
ATOM      4  N   UNL     1      21.134  -1.056  54.466  0.00  0.00    -0.235 NA
ATOM      5  C   UNL     1      22.366  -1.165  55.019  0.00  0.00    +0.119 A 
ATOM      6  N   UNL     1      23.445  -0.637  54.389  0.00  0.00    -0.220 NA
ATOM      7  C   UNL     1      23.332  -0.001  53.191  0.00  0.00    +0.134 A 
ATOM      8  C   UNL     1      22.059   0.116  52.589  0.00  0.00    +0.044 A 
ATOM      9  C   UNL     1      21.857   0.726  51.337  0.00  0.00    -0.004 A 
ATOM     10  C   UNL     1      20.564   0.814  50.784  0.00  0.00    +0.162 A 
ENDROOT
BRANCH   7  11
ATOM     11  N   UNL     1      24.503   0.588  52.597  0.00  0.00    -0.297 N 
ATOM     12  H   UNL     1      24.383   1.297  51.925  0.00  0.00    +0.000 HD
BRANCH  11  13
ATOM     13  C   UNL     1      25.844   0.189  52.936  0.00  0.00    +0.068 A 
ATOM     14  C   UNL     1      26.374  -1.035  52.482  0.00  0.00    -0.036 A 
ATOM     15  C   UNL     1      27.685  -1.399  52.801  0.00  0.00    -0.041 A 
ATOM     16  C   UNL     1      28.485  -0.545  53.566  0.00  0.00    +0.044 A 
ATOM     17 CL   UNL     1      30.130  -1.004  53.965  0.00  0.00    -0.083 Cl
ATOM     18  C   UNL     1      27.972   0.680  54.007  0.00  0.00    -0.006 A 
ATOM     19  C   UNL     1      26.662   1.050  53.690  0.00  0.00    +0.146 A 
ATOM     20  F   UNL     1      26.184   2.241  54.130  0.00  0.00    -0.203 F 
ENDBRANCH  11  13
ENDBRANCH   7  11
BRANCH  10  21
ATOM     21  O   UNL     1      20.325   1.421  49.541  0.00  0.00    -0.491 OA
ATOM     22  C   UNL     1      21.277   1.509  48.486  0.00  0.00    +0.079 C 
ENDBRANCH  10  21
BRANCH   1  23
ATOM     23  O   UNL     1      18.195   0.392  50.902  0.00  0.00    -0.486 OA
BRANCH  23  24
ATOM     24  C   UNL     1      17.036   0.873  51.578  0.00  0.00    +0.113 C 
BRANCH  24  25
ATOM     25  C   UNL     1      17.024   2.400  51.557  0.00  0.00    +0.081 C 
BRANCH  25  27
ATOM     26  C   UNL     1      15.747   4.138  52.414  0.00  0.00    +0.037 C 
ATOM     27  O   UNL     1      15.712   2.890  51.757  0.00  0.00    -0.380 OA
ENDBRANCH  25  27
ENDBRANCH  24  25
ENDBRANCH  23  24
ENDBRANCH   1  23
TORSDOF 7
ENDMDL
MODEL 4
REMARK VINA RESULT:    -7.161      4.542      8.026
REMARK INTER + INTRA:         -10.966
REMARK INTER:                 -10.043
REMARK INTRA:                  -0.924
REMARK UNBOUND:                -0.875
REMARK  Name = 
REMARK  9 active torsions:
REMARK  status: ('A' for Active; 'I' for Inactive)
REMARK    1  A    between atoms: C_1  and  O_2
REMARK    2  A    between atoms: O_2  and  C_3
REMARK    3  A    between atoms: C_3  and  C_4
REMARK    4  A    between atoms: C_4  and  O_5
REMARK    5  A    between atoms: O_5  and  C_6
REMARK    6  A    between atoms: C_12  and  N_13
REMARK    7  A    between atoms: N_13  and  C_14
REMARK    8  A    between atoms: C_24  and  O_25
REMARK    9  A    between atoms: O_25  and  C_26
REMARK                            x       y       z     vdW  Elec       q    Type
REMARK                         _______ _______ _______ _____ _____    ______ ____
ROOT
ATOM      1  C   UNL     1      26.517   0.429  53.569  0.00  0.00    +0.164 A 
ATOM      2  C   UNL     1      25.751  -0.269  54.522  0.00  0.00    +0.010 A 
ATOM      3  C   UNL     1      24.395  -0.518  54.296  0.00  0.00    +0.080 A 
ATOM      4  N   UNL     1      23.667  -1.176  55.235  0.00  0.00    -0.235 NA
ATOM      5  C   UNL     1      22.349  -1.427  55.048  0.00  0.00    +0.119 A 
ATOM      6  N   UNL     1      21.735  -1.031  53.906  0.00  0.00    -0.220 NA
ATOM      7  C   UNL     1      22.408  -0.366  52.926  0.00  0.00    +0.134 A 
ATOM      8  C   UNL     1      23.781  -0.084  53.102  0.00  0.00    +0.044 A 
ATOM      9  C   UNL     1      24.544   0.627  52.158  0.00  0.00    -0.004 A 
ATOM     10  C   UNL     1      25.911   0.881  52.387  0.00  0.00    +0.162 A 
ENDROOT
BRANCH   7  11
ATOM     11  N   UNL     1      21.717  -0.021  51.712  0.00  0.00    -0.297 N 
ATOM     12  H   UNL     1      22.031  -0.414  50.865  0.00  0.00    +0.000 HD
BRANCH  11  13
ATOM     13  C   UNL     1      20.590   0.874  51.674  0.00  0.00    +0.068 A 
ATOM     14  C   UNL     1      19.309   0.412  51.314  0.00  0.00    -0.036 A 
ATOM     15  C   UNL     1      18.220   1.287  51.302  0.00  0.00    -0.041 A 
ATOM     16  C   UNL     1      18.393   2.628  51.658  0.00  0.00    +0.044 A 
ATOM     17 CL   UNL     1      17.024   3.725  51.643  0.00  0.00    -0.083 Cl
ATOM     18  C   UNL     1      19.658   3.092  52.033  0.00  0.00    -0.006 A 
ATOM     19  C   UNL     1      20.751   2.220  52.048  0.00  0.00    +0.146 A 
ATOM     20  F   UNL     1      21.970   2.692  52.412  0.00  0.00    -0.203 F 
ENDBRANCH  11  13
ENDBRANCH   7  11
BRANCH  10  21
ATOM     21  O   UNL     1      26.703   1.582  51.464  0.00  0.00    -0.491 OA
ATOM     22  C   UNL     1      26.461   2.919  51.040  0.00  0.00    +0.079 C 
ENDBRANCH  10  21
BRANCH   1  23
ATOM     23  O   UNL     1      27.881   0.695  53.761  0.00  0.00    -0.486 OA
BRANCH  23  24
ATOM     24  C   UNL     1      28.761  -0.105  54.547  0.00  0.00    +0.113 C 
BRANCH  24  25
ATOM     25  C   UNL     1      29.840  -0.713  53.655  0.00  0.00    +0.081 C 
BRANCH  25  27
ATOM     26  C   UNL     1      28.648  -2.603  53.029  0.00  0.00    +0.037 C 
ATOM     27  O   UNL     1      29.790  -2.126  53.706  0.00  0.00    -0.380 OA
ENDBRANCH  25  27
ENDBRANCH  24  25
ENDBRANCH  23  24
ENDBRANCH   1  23
TORSDOF 7
ENDMDL
MODEL 5
REMARK VINA RESULT:    -6.973      4.169      7.708
REMARK INTER + INTRA:         -10.701
REMARK INTER:                  -9.651
REMARK INTRA:                  -1.051
REMARK UNBOUND:                -0.875
REMARK  Name = 
REMARK  9 active torsions:
REMARK  status: ('A' for Active; 'I' for Inactive)
REMARK    1  A    between atoms: C_1  and  O_2
REMARK    2  A    between atoms: O_2  and  C_3
REMARK    3  A    between atoms: C_3  and  C_4
REMARK    4  A    between atoms: C_4  and  O_5
REMARK    5  A    between atoms: O_5  and  C_6
REMARK    6  A    between atoms: C_12  and  N_13
REMARK    7  A    between atoms: N_13  and  C_14
REMARK    8  A    between atoms: C_24  and  O_25
REMARK    9  A    between atoms: O_25  and  C_26
REMARK                            x       y       z     vdW  Elec       q    Type
REMARK                         _______ _______ _______ _____ _____    ______ ____
ROOT
ATOM      1  C   UNL     1      25.938   1.387  53.719  0.00  0.00    +0.164 A 
ATOM      2  C   UNL     1      25.298   2.631  53.567  0.00  0.00    +0.010 A 
ATOM      3  C   UNL     1      24.081   2.723  52.887  0.00  0.00    +0.080 A 
ATOM      4  N   UNL     1      23.488   3.936  52.733  0.00  0.00    -0.235 NA
ATOM      5  C   UNL     1      22.311   4.059  52.073  0.00  0.00    +0.119 A 
ATOM      6  N   UNL     1      21.699   2.963  51.561  0.00  0.00    -0.220 NA
ATOM      7  C   UNL     1      22.241   1.720  51.680  0.00  0.00    +0.134 A 
ATOM      8  C   UNL     1      23.473   1.567  52.356  0.00  0.00    +0.044 A 
ATOM      9  C   UNL     1      24.122   0.326  52.494  0.00  0.00    -0.004 A 
ATOM     10  C   UNL     1      25.350   0.232  53.178  0.00  0.00    +0.162 A 
ENDROOT
BRANCH   7  11
ATOM     11  N   UNL     1      21.518   0.587  51.166  0.00  0.00    -0.297 N 
ATOM     12  H   UNL     1      21.966   0.001  50.513  0.00  0.00    +0.000 HD
BRANCH  11  13
ATOM     13  C   UNL     1      20.171   0.268  51.559  0.00  0.00    +0.068 A 
ATOM     14  C   UNL     1      19.083   0.537  50.706  0.00  0.00    -0.036 A 
ATOM     15  C   UNL     1      17.782   0.202  51.091  0.00  0.00    -0.041 A 
ATOM     16  C   UNL     1      17.552  -0.414  52.325  0.00  0.00    +0.044 A 
ATOM     17 CL   UNL     1      15.919  -0.834  52.806  0.00  0.00    -0.083 Cl
ATOM     18  C   UNL     1      18.628  -0.700  53.172  0.00  0.00    -0.006 A 
ATOM     19  C   UNL     1      19.932  -0.368  52.790  0.00  0.00    +0.146 A 
ATOM     20  F   UNL     1      20.960  -0.653  53.628  0.00  0.00    -0.203 F 
ENDBRANCH  11  13
ENDBRANCH   7  11
BRANCH  10  21
ATOM     21  O   UNL     1      26.022  -0.990  53.340  0.00  0.00    -0.491 OA
ATOM     22  C   UNL     1      26.675  -1.700  52.293  0.00  0.00    +0.079 C 
ENDBRANCH  10  21
BRANCH   1  23
ATOM     23  O   UNL     1      27.159   1.255  54.398  0.00  0.00    -0.486 OA
BRANCH  23  24
ATOM     24  C   UNL     1      28.359   1.941  54.049  0.00  0.00    +0.113 C 
BRANCH  24  25
ATOM     25  C   UNL     1      29.483   0.933  53.827  0.00  0.00    +0.081 C 
BRANCH  25  27
ATOM     26  C   UNL     1      29.894  -1.352  53.834  0.00  0.00    +0.037 C 
ATOM     27  O   UNL     1      29.169  -0.304  54.440  0.00  0.00    -0.380 OA
ENDBRANCH  25  27
ENDBRANCH  24  25
ENDBRANCH  23  24
ENDBRANCH   1  23
TORSDOF 7
ENDMDL
MODEL 6
REMARK VINA RESULT:    -6.883      3.948      7.353
REMARK INTER + INTRA:         -10.575
REMARK INTER:                  -9.531
REMARK INTRA:                  -1.044
REMARK UNBOUND:                -0.875
REMARK  Name = 
REMARK  9 active torsions:
REMARK  status: ('A' for Active; 'I' for Inactive)
REMARK    1  A    between atoms: C_1  and  O_2
REMARK    2  A    between atoms: O_2  and  C_3
REMARK    3  A    between atoms: C_3  and  C_4
REMARK    4  A    between atoms: C_4  and  O_5
REMARK    5  A    between atoms: O_5  and  C_6
REMARK    6  A    between atoms: C_12  and  N_13
REMARK    7  A    between atoms: N_13  and  C_14
REMARK    8  A    between atoms: C_24  and  O_25
REMARK    9  A    between atoms: O_25  and  C_26
REMARK                            x       y       z     vdW  Elec       q    Type
REMARK                         _______ _______ _______ _____ _____    ______ ____
ROOT
ATOM      1  C   UNL     1      25.540   0.048  53.138  0.00  0.00    +0.164 A 
ATOM      2  C   UNL     1      25.835   0.990  52.135  0.00  0.00    +0.010 A 
ATOM      3  C   UNL     1      24.838   1.837  51.643  0.00  0.00    +0.080 A 
ATOM      4  N   UNL     1      25.136   2.726  50.661  0.00  0.00    -0.235 NA
ATOM      5  C   UNL     1      24.190   3.556  50.159  0.00  0.00    +0.119 A 
ATOM      6  N   UNL     1      22.923   3.516  50.642  0.00  0.00    -0.220 NA
ATOM      7  C   UNL     1      22.559   2.647  51.624  0.00  0.00    +0.134 A 
ATOM      8  C   UNL     1      23.526   1.765  52.157  0.00  0.00    +0.044 A 
ATOM      9  C   UNL     1      23.229   0.812  53.149  0.00  0.00    -0.004 A 
ATOM     10  C   UNL     1      24.233  -0.044  53.643  0.00  0.00    +0.162 A 
ENDROOT
BRANCH   7  11
ATOM     11  N   UNL     1      21.215   2.690  52.135  0.00  0.00    -0.297 N 
ATOM     12  H   UNL     1      21.027   3.260  52.916  0.00  0.00    +0.000 HD
BRANCH  11  13
ATOM     13  C   UNL     1      20.130   1.937  51.562  0.00  0.00    +0.068 A 
ATOM     14  C   UNL     1      19.626   2.248  50.284  0.00  0.00    -0.036 A 
ATOM     15  C   UNL     1      18.587   1.496  49.732  0.00  0.00    -0.041 A 
ATOM     16  C   UNL     1      18.045   0.420  50.441  0.00  0.00    +0.044 A 
ATOM     17 CL   UNL     1      16.741  -0.524  49.745  0.00  0.00    -0.083 Cl
ATOM     18  C   UNL     1      18.550   0.093  51.704  0.00  0.00    -0.006 A 
ATOM     19  C   UNL     1      19.591   0.842  52.261  0.00  0.00    +0.146 A 
ATOM     20  F   UNL     1      20.064   0.509  53.488  0.00  0.00    -0.203 F 
ENDBRANCH  11  13
ENDBRANCH   7  11
BRANCH  10  21
ATOM     21  O   UNL     1      23.974  -1.002  54.636  0.00  0.00    -0.491 OA
ATOM     22  C   UNL     1      22.681  -1.310  55.146  0.00  0.00    +0.079 C 
ENDBRANCH  10  21
BRANCH   1  23
ATOM     23  O   UNL     1      26.515  -0.817  53.658  0.00  0.00    -0.486 OA
BRANCH  23  24
ATOM     24  C   UNL     1      27.668  -1.259  52.946  0.00  0.00    +0.113 C 
BRANCH  24  25
ATOM     25  C   UNL     1      28.930  -0.767  53.652  0.00  0.00    +0.081 C 
BRANCH  25  27
ATOM     26  C   UNL     1      29.142   1.425  54.383  0.00  0.00    +0.037 C 
ATOM     27  O   UNL     1      29.226   0.563  53.270  0.00  0.00    -0.380 OA
ENDBRANCH  25  27
ENDBRANCH  24  25
ENDBRANCH  23  24
ENDBRANCH   1  23
TORSDOF 7
ENDMDL
MODEL 7
REMARK VINA RESULT:    -6.877      4.128      7.263
REMARK INTER + INTRA:         -10.566
REMARK INTER:                  -9.655
REMARK INTRA:                  -0.911
REMARK UNBOUND:                -0.875
REMARK  Name = 
REMARK  9 active torsions:
REMARK  status: ('A' for Active; 'I' for Inactive)
REMARK    1  A    between atoms: C_1  and  O_2
REMARK    2  A    between atoms: O_2  and  C_3
REMARK    3  A    between atoms: C_3  and  C_4
REMARK    4  A    between atoms: C_4  and  O_5
REMARK    5  A    between atoms: O_5  and  C_6
REMARK    6  A    between atoms: C_12  and  N_13
REMARK    7  A    between atoms: N_13  and  C_14
REMARK    8  A    between atoms: C_24  and  O_25
REMARK    9  A    between atoms: O_25  and  C_26
REMARK                            x       y       z     vdW  Elec       q    Type
REMARK                         _______ _______ _______ _____ _____    ______ ____
ROOT
ATOM      1  C   UNL     1      24.904  -0.151  53.510  0.00  0.00    +0.164 A 
ATOM      2  C   UNL     1      23.631  -0.518  53.986  0.00  0.00    +0.010 A 
ATOM      3  C   UNL     1      22.477  -0.035  53.365  0.00  0.00    +0.080 A 
ATOM      4  N   UNL     1      21.257  -0.384  53.849  0.00  0.00    -0.235 NA
ATOM      5  C   UNL     1      20.119   0.073  53.274  0.00  0.00    +0.119 A 
ATOM      6  N   UNL     1      20.183   0.885  52.189  0.00  0.00    -0.220 NA
ATOM      7  C   UNL     1      21.374   1.273  51.655  0.00  0.00    +0.134 A 
ATOM      8  C   UNL     1      22.574   0.817  52.245  0.00  0.00    +0.044 A 
ATOM      9  C   UNL     1      23.847   1.197  51.780  0.00  0.00    -0.004 A 
ATOM     10  C   UNL     1      25.012   0.712  52.408  0.00  0.00    +0.162 A 
ENDROOT
BRANCH   7  11
ATOM     11  N   UNL     1      21.378   2.090  50.471  0.00  0.00    -0.297 N 
ATOM     12  H   UNL     1      21.079   1.689  49.623  0.00  0.00    +0.000 HD
BRANCH  11  13
ATOM     13  C   UNL     1      21.801   3.466  50.464  0.00  0.00    +0.068 A 
ATOM     14  C   UNL     1      21.268   4.394  51.379  0.00  0.00    -0.036 A 
ATOM     15  C   UNL     1      21.703   5.722  51.375  0.00  0.00    -0.041 A 
ATOM     16  C   UNL     1      22.682   6.136  50.467  0.00  0.00    +0.044 A 
ATOM     17 CL   UNL     1      23.228   7.803  50.464  0.00  0.00    -0.083 Cl
ATOM     18  C   UNL     1      23.230   5.218  49.565  0.00  0.00    -0.006 A 
ATOM     19  C   UNL     1      22.799   3.888  49.566  0.00  0.00    +0.146 A 
ATOM     20  F   UNL     1      23.342   3.014  48.681  0.00  0.00    -0.203 F 
ENDBRANCH  11  13
ENDBRANCH   7  11
BRANCH  10  21
ATOM     21  O   UNL     1      26.298   1.064  51.968  0.00  0.00    -0.491 OA
ATOM     22  C   UNL     1      26.731   2.397  51.720  0.00  0.00    +0.079 C 
ENDBRANCH  10  21
BRANCH   1  23
ATOM     23  O   UNL     1      26.085  -0.618  54.107  0.00  0.00    -0.486 OA
BRANCH  23  24
ATOM     24  C   UNL     1      26.802   0.066  55.131  0.00  0.00    +0.113 C 
BRANCH  24  25
ATOM     25  C   UNL     1      28.280   0.147  54.759  0.00  0.00    +0.081 C 
BRANCH  25  27
ATOM     26  C   UNL     1      29.901  -1.081  53.639  0.00  0.00    +0.037 C 
ATOM     27  O   UNL     1      28.553  -0.663  53.630  0.00  0.00    -0.380 OA
ENDBRANCH  25  27
ENDBRANCH  24  25
ENDBRANCH  23  24
ENDBRANCH   1  23
TORSDOF 7
ENDMDL
MODEL 8
REMARK VINA RESULT:    -6.829      4.903      8.489
REMARK INTER + INTRA:         -10.498
REMARK INTER:                  -9.701
REMARK INTRA:                  -0.797
REMARK UNBOUND:                -0.875
REMARK  Name = 
REMARK  9 active torsions:
REMARK  status: ('A' for Active; 'I' for Inactive)
REMARK    1  A    between atoms: C_1  and  O_2
REMARK    2  A    between atoms: O_2  and  C_3
REMARK    3  A    between atoms: C_3  and  C_4
REMARK    4  A    between atoms: C_4  and  O_5
REMARK    5  A    between atoms: O_5  and  C_6
REMARK    6  A    between atoms: C_12  and  N_13
REMARK    7  A    between atoms: N_13  and  C_14
REMARK    8  A    between atoms: C_24  and  O_25
REMARK    9  A    between atoms: O_25  and  C_26
REMARK                            x       y       z     vdW  Elec       q    Type
REMARK                         _______ _______ _______ _____ _____    ______ ____
ROOT
ATOM      1  C   UNL     1      25.314   0.522  53.189  0.00  0.00    +0.164 A 
ATOM      2  C   UNL     1      24.523  -0.280  54.031  0.00  0.00    +0.010 A 
ATOM      3  C   UNL     1      23.158  -0.441  53.779  0.00  0.00    +0.080 A 
ATOM      4  N   UNL     1      22.405  -1.203  54.614  0.00  0.00    -0.235 NA
ATOM      5  C   UNL     1      21.078  -1.373  54.400  0.00  0.00    +0.119 A 
ATOM      6  N   UNL     1      20.480  -0.786  53.334  0.00  0.00    -0.220 NA
ATOM      7  C   UNL     1      21.177  -0.008  52.461  0.00  0.00    +0.134 A 
ATOM      8  C   UNL     1      22.561   0.191  52.668  0.00  0.00    +0.044 A 
ATOM      9  C   UNL     1      23.350   1.006  51.836  0.00  0.00    -0.004 A 
ATOM     10  C   UNL     1      24.726   1.170  52.091  0.00  0.00    +0.162 A 
ENDROOT
BRANCH   7  11
ATOM     11  N   UNL     1      20.500   0.542  51.317  0.00  0.00    -0.297 N 
ATOM     12  H   UNL     1      20.819   0.295  50.419  0.00  0.00    +0.000 HD
BRANCH  11  13
ATOM     13  C   UNL     1      19.377   1.438  51.421  0.00  0.00    +0.068 A 
ATOM     14  C   UNL     1      19.567   2.829  51.537  0.00  0.00    -0.036 A 
ATOM     15  C   UNL     1      18.468   3.688  51.616  0.00  0.00    -0.041 A 
ATOM     16  C   UNL     1      17.169   3.173  51.569  0.00  0.00    +0.044 A 
ATOM     17 CL   UNL     1      15.792   4.253  51.667  0.00  0.00    -0.083 Cl
ATOM     18  C   UNL     1      16.971   1.794  51.438  0.00  0.00    -0.006 A 
ATOM     19  C   UNL     1      18.067   0.930  51.357  0.00  0.00    +0.146 A 
ATOM     20  F   UNL     1      17.852  -0.404  51.233  0.00  0.00    -0.203 F 
ENDBRANCH  11  13
ENDBRANCH   7  11
BRANCH  10  21
ATOM     21  O   UNL     1      25.544   1.971  51.279  0.00  0.00    -0.491 OA
ATOM     22  C   UNL     1      25.265   3.323  50.931  0.00  0.00    +0.079 C 
ENDBRANCH  10  21
BRANCH   1  23
ATOM     23  O   UNL     1      26.689   0.704  53.409  0.00  0.00    -0.486 OA
BRANCH  23  24
ATOM     24  C   UNL     1      27.481  -0.090  54.289  0.00  0.00    +0.113 C 
BRANCH  24  25
ATOM     25  C   UNL     1      28.742   0.676  54.679  0.00  0.00    +0.081 C 
BRANCH  25  27
ATOM     26  C   UNL     1      29.816  -1.086  53.617  0.00  0.00    +0.037 C 
ATOM     27  O   UNL     1      29.826   0.305  53.848  0.00  0.00    -0.380 OA
ENDBRANCH  25  27
ENDBRANCH  24  25
ENDBRANCH  23  24
ENDBRANCH   1  23
TORSDOF 7
ENDMDL
MODEL 9
REMARK VINA RESULT:    -6.806      3.084      4.684
REMARK INTER + INTRA:         -10.465
REMARK INTER:                  -9.421
REMARK INTRA:                  -1.045
REMARK UNBOUND:                -0.875
REMARK  Name = 
REMARK  9 active torsions:
REMARK  status: ('A' for Active; 'I' for Inactive)
REMARK    1  A    between atoms: C_1  and  O_2
REMARK    2  A    between atoms: O_2  and  C_3
REMARK    3  A    between atoms: C_3  and  C_4
REMARK    4  A    between atoms: C_4  and  O_5
REMARK    5  A    between atoms: O_5  and  C_6
REMARK    6  A    between atoms: C_12  and  N_13
REMARK    7  A    between atoms: N_13  and  C_14
REMARK    8  A    between atoms: C_24  and  O_25
REMARK    9  A    between atoms: O_25  and  C_26
REMARK                            x       y       z     vdW  Elec       q    Type
REMARK                         _______ _______ _______ _____ _____    ______ ____
ROOT
ATOM      1  C   UNL     1      20.654   2.327  51.071  0.00  0.00    +0.164 A 
ATOM      2  C   UNL     1      20.204   1.872  52.325  0.00  0.00    +0.010 A 
ATOM      3  C   UNL     1      20.966   0.964  53.064  0.00  0.00    +0.080 A 
ATOM      4  N   UNL     1      20.506   0.521  54.263  0.00  0.00    -0.235 NA
ATOM      5  C   UNL     1      21.219  -0.364  55.001  0.00  0.00    +0.119 A 
ATOM      6  N   UNL     1      22.416  -0.817  54.553  0.00  0.00    -0.220 NA
ATOM      7  C   UNL     1      22.931  -0.413  53.359  0.00  0.00    +0.134 A 
ATOM      8  C   UNL     1      22.202   0.503  52.567  0.00  0.00    +0.044 A 
ATOM      9  C   UNL     1      22.643   0.945  51.306  0.00  0.00    -0.004 A 
ATOM     10  C   UNL     1      21.874   1.859  50.559  0.00  0.00    +0.162 A 
ENDROOT
BRANCH   7  11
ATOM     11  N   UNL     1      24.231  -0.884  52.962  0.00  0.00    -0.297 N 
ATOM     12  H   UNL     1      24.292  -1.735  52.469  0.00  0.00    +0.000 HD
BRANCH  11  13
ATOM     13  C   UNL     1      25.449  -0.172  53.249  0.00  0.00    +0.068 A 
ATOM     14  C   UNL     1      26.100   0.584  52.255  0.00  0.00    -0.036 A 
ATOM     15  C   UNL     1      27.270   1.287  52.554  0.00  0.00    -0.041 A 
ATOM     16  C   UNL     1      27.798   1.253  53.848  0.00  0.00    +0.044 A 
ATOM     17 CL   UNL     1      29.266   2.137  54.221  0.00  0.00    -0.083 Cl
ATOM     18  C   UNL     1      27.149   0.518  54.846  0.00  0.00    -0.006 A 
ATOM     19  C   UNL     1      25.978  -0.186  54.552  0.00  0.00    +0.146 A 
ATOM     20  F   UNL     1      25.367  -0.894  55.535  0.00  0.00    -0.203 F 
ENDBRANCH  11  13
ENDBRANCH   7  11
BRANCH  10  21
ATOM     21  O   UNL     1      22.286   2.327  49.301  0.00  0.00    -0.491 OA
ATOM     22  C   UNL     1      22.030   1.663  48.068  0.00  0.00    +0.079 C 
ENDBRANCH  10  21
BRANCH   1  23
ATOM     23  O   UNL     1      19.917   3.241  50.302  0.00  0.00    -0.486 OA
BRANCH  23  24
ATOM     24  C   UNL     1      19.691   4.603  50.657  0.00  0.00    +0.113 C 
BRANCH  24  25
ATOM     25  C   UNL     1      20.980   5.401  50.484  0.00  0.00    +0.081 C 
BRANCH  25  27
ATOM     26  C   UNL     1      23.089   5.567  51.440  0.00  0.00    +0.037 C 
ATOM     27  O   UNL     1      21.707   5.439  51.698  0.00  0.00    -0.380 OA
ENDBRANCH  25  27
ENDBRANCH  24  25
ENDBRANCH  23  24
ENDBRANCH   1  23
TORSDOF 7
ENDMDL
