MODEL 1
REMARK VINA RESULT:   -11.471      0.000      0.000
REMARK INTER + INTRA:         -13.080
REMARK INTER:                 -12.812
REMARK INTRA:                  -0.268
REMARK UNBOUND:                -0.268
REMARK  Name = 
REMARK  6 active torsions:
REMARK  status: ('A' for Active; 'I' for Inactive)
REMARK    1  A    between atoms: C_1  and  O_2
REMARK    2  A    between atoms: O_2  and  C_3
REMARK    3  A    between atoms: C_4  and  N_5
REMARK    4  A    between atoms: N_5  and  C_6
REMARK    5  A    between atoms: C_7  and  C_8
REMARK    6  A    between atoms: C_13  and  C_14
REMARK                            x       y       z     vdW  Elec       q    Type
REMARK                         _______ _______ _______ _____ _____    ______ ____
ROOT
ATOM      1  C   UNL     1      22.406   4.085  49.142  0.00  0.00    +0.125 C 
ATOM      2  C   UNL     1      23.595   4.923  49.673  0.00  0.00    +0.060 C 
ATOM      3  C   UNL     1      24.242   4.216  50.855  0.00  0.00    +0.014 C 
ATOM      4  C   UNL     1      24.819   2.879  50.367  0.00  0.00    +0.140 C 
ATOM      5  O   UNL     1      24.139   2.293  49.269  0.00  0.00    -0.328 OA
ATOM      6  C   UNL     1      22.734   2.530  49.191  0.00  0.00    +0.174 C 
ATOM      7  C   UNL     1      22.357   1.889  47.832  0.00  0.00    -0.014 C 
ATOM      8  N   UNL     1      22.000   1.813  50.290  0.00  0.00    -0.307 N 
ATOM      9  C   UNL     1      20.665   1.487  50.343  0.00  0.00    +0.053 A 
ATOM     10  C   UNL     1      19.627   1.885  49.481  0.00  0.00    -0.037 A 
ATOM     11  C   UNL     1      18.323   1.423  49.723  0.00  0.00    -0.060 A 
ATOM     12  C   UNL     1      18.055   0.574  50.809  0.00  0.00    -0.061 A 
ATOM     13  C   UNL     1      19.086   0.185  51.674  0.00  0.00    -0.052 A 
ATOM     14  C   UNL     1      20.375   0.659  51.416  0.00  0.00    +0.008 A 
ATOM     15  C   UNL     1      21.554   0.457  52.082  0.00  0.00    +0.015 A 
ATOM     16  C   UNL     1      21.870  -0.282  53.236  0.00  0.00    -0.008 A 
ATOM     17  C   UNL     1      23.178  -0.281  53.716  0.00  0.00    +0.052 A 
ATOM     18  C   UNL     1      24.164   0.481  53.056  0.00  0.00    +0.022 A 
ATOM     19  C   UNL     1      25.488   0.811  53.331  0.00  0.00    +0.008 A 
ATOM     20  C   UNL     1      26.351   0.477  54.379  0.00  0.00    -0.052 A 
ATOM     21  C   UNL     1      27.634   1.048  54.393  0.00  0.00    -0.061 A 
ATOM     22  C   UNL     1      28.030   1.949  53.386  0.00  0.00    -0.060 A 
ATOM     23  C   UNL     1      27.147   2.289  52.350  0.00  0.00    -0.037 A 
ATOM     24  C   UNL     1      25.878   1.699  52.340  0.00  0.00    +0.052 A 
ATOM     25  N   UNL     1      24.873   1.921  51.458  0.00  0.00    -0.311 N 
ATOM     26  C   UNL     1      23.834   1.190  51.897  0.00  0.00    +0.077 A 
ATOM     27  C   UNL     1      22.521   1.178  51.389  0.00  0.00    +0.077 A 
ATOM     28  C   UNL     1      23.176  -1.132  54.892  0.00  0.00    +0.245 C 
ATOM     29  O   UNL     1      24.169  -1.457  55.587  0.00  0.00    -0.270 OA
ATOM     30  N   UNL     1      21.866  -1.626  55.132  0.00  0.00    -0.307 N 
ATOM     31  C   UNL     1      20.970  -1.118  54.099  0.00  0.00    +0.039 C 
ATOM     32  H   UNL     1      21.607  -2.217  55.875  0.00  0.00    +0.000 HD
ENDROOT
BRANCH   2  33
ATOM     33  N   UNL     1      23.242   6.334  49.968  0.00  0.00    -0.299 N 
ATOM     34  C   UNL     1      23.088   6.733  51.375  0.00  0.00    +0.004 C 
ATOM     35  C   UNL     1      23.012   7.326  48.934  0.00  0.00    +0.213 C 
ATOM     36  C   UNL     1      22.298   8.611  49.233  0.00  0.00    +0.012 C 
ATOM     37  O   UNL     1      23.439   7.144  47.763  0.00  0.00    -0.276 OA
ENDBRANCH   2  33
BRANCH   1  39
ATOM     38  C   UNL     1      20.274   5.060  49.114  0.00  0.00    +0.037 C 
ATOM     39  O   UNL     1      21.231   4.364  49.891  0.00  0.00    -0.373 OA
ENDBRANCH   1  39
TORSDOF 2
ENDMDL
MODEL 2
REMARK VINA RESULT:   -10.131      3.795      6.348
REMARK INTER + INTRA:         -11.583
REMARK INTER:                 -11.324
REMARK INTRA:                  -0.259
REMARK UNBOUND:                -0.268
REMARK  Name = 
REMARK  6 active torsions:
REMARK  status: ('A' for Active; 'I' for Inactive)
REMARK    1  A    between atoms: C_1  and  O_2
REMARK    2  A    between atoms: O_2  and  C_3
REMARK    3  A    between atoms: C_4  and  N_5
REMARK    4  A    between atoms: N_5  and  C_6
REMARK    5  A    between atoms: C_7  and  C_8
REMARK    6  A    between atoms: C_13  and  C_14
REMARK                            x       y       z     vdW  Elec       q    Type
REMARK                         _______ _______ _______ _____ _____    ______ ____
ROOT
ATOM      1  C   UNL     1      15.409   1.789  51.302  0.00  0.00    +0.125 C 
ATOM      2  C   UNL     1      15.618   3.319  51.420  0.00  0.00    +0.060 C 
ATOM      3  C   UNL     1      17.064   3.618  51.790  0.00  0.00    +0.014 C 
ATOM      4  C   UNL     1      17.971   3.130  50.651  0.00  0.00    +0.140 C 
ATOM      5  O   UNL     1      17.472   2.025  49.915  0.00  0.00    -0.328 OA
ATOM      6  C   UNL     1      16.673   1.089  50.637  0.00  0.00    +0.174 C 
ATOM      7  C   UNL     1      16.190   0.124  49.525  0.00  0.00    -0.014 C 
ATOM      8  N   UNL     1      17.501   0.317  51.627  0.00  0.00    -0.307 N 
ATOM      9  C   UNL     1      17.202  -0.886  52.223  0.00  0.00    +0.053 A 
ATOM     10  C   UNL     1      15.995  -1.607  52.196  0.00  0.00    -0.037 A 
ATOM     11  C   UNL     1      15.914  -2.832  52.878  0.00  0.00    -0.060 A 
ATOM     12  C   UNL     1      17.023  -3.334  53.580  0.00  0.00    -0.061 A 
ATOM     13  C   UNL     1      18.222  -2.612  53.616  0.00  0.00    -0.052 A 
ATOM     14  C   UNL     1      18.279  -1.395  52.932  0.00  0.00    +0.008 A 
ATOM     15  C   UNL     1      19.296  -0.487  52.802  0.00  0.00    +0.015 A 
ATOM     16  C   UNL     1      20.609  -0.464  53.303  0.00  0.00    -0.008 A 
ATOM     17  C   UNL     1      21.430   0.628  53.032  0.00  0.00    +0.052 A 
ATOM     18  C   UNL     1      20.926   1.711  52.280  0.00  0.00    +0.022 A 
ATOM     19  C   UNL     1      21.404   2.976  51.951  0.00  0.00    +0.008 A 
ATOM     20  C   UNL     1      22.600   3.642  52.236  0.00  0.00    -0.052 A 
ATOM     21  C   UNL     1      22.741   4.971  51.804  0.00  0.00    -0.061 A 
ATOM     22  C   UNL     1      21.695   5.618  51.120  0.00  0.00    -0.060 A 
ATOM     23  C   UNL     1      20.493   4.944  50.857  0.00  0.00    -0.037 A 
ATOM     24  C   UNL     1      20.374   3.614  51.278  0.00  0.00    +0.052 A 
ATOM     25  N   UNL     1      19.293   2.806  51.157  0.00  0.00    -0.311 N 
ATOM     26  C   UNL     1      19.625   1.657  51.770  0.00  0.00    +0.077 A 
ATOM     27  C   UNL     1      18.795   0.548  52.019  0.00  0.00    +0.077 A 
ATOM     28  C   UNL     1      22.701   0.346  53.671  0.00  0.00    +0.245 C 
ATOM     29  O   UNL     1      23.744   1.043  53.613  0.00  0.00    -0.270 OA
ATOM     30  N   UNL     1      22.641  -0.903  54.344  0.00  0.00    -0.307 N 
ATOM     31  C   UNL     1      21.316  -1.484  54.148  0.00  0.00    +0.039 C 
ATOM     32  H   UNL     1      23.374  -1.311  54.858  0.00  0.00    +0.000 HD
ENDROOT
BRANCH   2  33
ATOM     33  N   UNL     1      14.644   3.983  52.320  0.00  0.00    -0.299 N 
ATOM     34  C   UNL     1      15.109   4.430  53.642  0.00  0.00    +0.004 C 
ATOM     35  C   UNL     1      13.250   4.183  51.969  0.00  0.00    +0.213 C 
ATOM     36  C   UNL     1      12.221   4.498  53.015  0.00  0.00    +0.012 C 
ATOM     37  O   UNL     1      12.876   4.130  50.768  0.00  0.00    -0.276 OA
ENDBRANCH   2  33
BRANCH   1  39
ATOM     38  C   UNL     1      13.812   0.775  52.686  0.00  0.00    +0.037 C 
ATOM     39  O   UNL     1      15.149   1.225  52.580  0.00  0.00    -0.373 OA
ENDBRANCH   1  39
TORSDOF 2
ENDMDL
MODEL 3
REMARK VINA RESULT:    -9.837      2.206      3.470
REMARK INTER + INTRA:         -11.256
REMARK INTER:                 -10.993
REMARK INTRA:                  -0.263
REMARK UNBOUND:                -0.268
REMARK  Name = 
REMARK  6 active torsions:
REMARK  status: ('A' for Active; 'I' for Inactive)
REMARK    1  A    between atoms: C_1  and  O_2
REMARK    2  A    between atoms: O_2  and  C_3
REMARK    3  A    between atoms: C_4  and  N_5
REMARK    4  A    between atoms: N_5  and  C_6
REMARK    5  A    between atoms: C_7  and  C_8
REMARK    6  A    between atoms: C_13  and  C_14
REMARK                            x       y       z     vdW  Elec       q    Type
REMARK                         _______ _______ _______ _____ _____    ______ ____
ROOT
ATOM      1  C   UNL     1      22.576   3.968  49.323  0.00  0.00    +0.125 C 
ATOM      2  C   UNL     1      23.534   4.064  50.535  0.00  0.00    +0.060 C 
ATOM      3  C   UNL     1      23.115   3.069  51.608  0.00  0.00    +0.014 C 
ATOM      4  C   UNL     1      23.254   1.649  51.038  0.00  0.00    +0.140 C 
ATOM      5  O   UNL     1      23.076   1.543  49.636  0.00  0.00    -0.328 OA
ATOM      6  C   UNL     1      22.160   2.460  49.039  0.00  0.00    +0.174 C 
ATOM      7  C   UNL     1      22.322   2.166  47.526  0.00  0.00    -0.014 C 
ATOM      8  N   UNL     1      20.745   2.158  49.446  0.00  0.00    -0.307 N 
ATOM      9  C   UNL     1      19.584   2.549  48.822  0.00  0.00    +0.053 A 
ATOM     10  C   UNL     1      19.417   3.459  47.763  0.00  0.00    -0.037 A 
ATOM     11  C   UNL     1      18.124   3.708  47.272  0.00  0.00    -0.060 A 
ATOM     12  C   UNL     1      17.010   3.058  47.829  0.00  0.00    -0.061 A 
ATOM     13  C   UNL     1      17.175   2.159  48.890  0.00  0.00    -0.052 A 
ATOM     14  C   UNL     1      18.469   1.929  49.364  0.00  0.00    +0.008 A 
ATOM     15  C   UNL     1      18.923   1.127  50.376  0.00  0.00    +0.015 A 
ATOM     16  C   UNL     1      18.257   0.273  51.274  0.00  0.00    -0.008 A 
ATOM     17  C   UNL     1      18.988  -0.410  52.243  0.00  0.00    +0.052 A 
ATOM     18  C   UNL     1      20.383  -0.219  52.332  0.00  0.00    +0.022 A 
ATOM     19  C   UNL     1      21.367  -0.617  53.231  0.00  0.00    +0.008 A 
ATOM     20  C   UNL     1      21.331  -1.393  54.394  0.00  0.00    -0.052 A 
ATOM     21  C   UNL     1      22.520  -1.549  55.127  0.00  0.00    -0.061 A 
ATOM     22  C   UNL     1      23.709  -0.923  54.707  0.00  0.00    -0.060 A 
ATOM     23  C   UNL     1      23.726  -0.133  53.548  0.00  0.00    -0.037 A 
ATOM     24  C   UNL     1      22.538   0.000  52.819  0.00  0.00    +0.052 A 
ATOM     25  N   UNL     1      22.335   0.742  51.705  0.00  0.00    -0.311 N 
ATOM     26  C   UNL     1      21.028   0.616  51.414  0.00  0.00    +0.077 A 
ATOM     27  C   UNL     1      20.303   1.294  50.416  0.00  0.00    +0.077 A 
ATOM     28  C   UNL     1      18.026  -1.200  52.989  0.00  0.00    +0.245 C 
ATOM     29  O   UNL     1      18.276  -2.017  53.910  0.00  0.00    -0.270 OA
ATOM     30  N   UNL     1      16.717  -0.977  52.486  0.00  0.00    -0.307 N 
ATOM     31  C   UNL     1      16.791  -0.035  51.374  0.00  0.00    +0.039 C 
ATOM     32  H   UNL     1      15.894  -1.392  52.831  0.00  0.00    +0.000 HD
ENDROOT
BRANCH   2  33
ATOM     33  N   UNL     1      23.694   5.443  51.059  0.00  0.00    -0.299 N 
ATOM     34  C   UNL     1      23.011   5.795  52.313  0.00  0.00    +0.004 C 
ATOM     35  C   UNL     1      24.465   6.465  50.376  0.00  0.00    +0.213 C 
ATOM     36  C   UNL     1      24.300   7.918  50.710  0.00  0.00    +0.012 C 
ATOM     37  O   UNL     1      25.319   6.151  49.505  0.00  0.00    -0.276 OA
ENDBRANCH   2  33
BRANCH   1  39
ATOM     38  C   UNL     1      21.397   5.891  48.685  0.00  0.00    +0.037 C 
ATOM     39  O   UNL     1      21.420   4.765  49.541  0.00  0.00    -0.373 OA
ENDBRANCH   1  39
TORSDOF 2
ENDMDL
