MODEL 1
REMARK VINA RESULT:    -7.966      0.000      0.000
REMARK INTER + INTRA:         -13.740
REMARK INTER:                 -12.157
REMARK INTRA:                  -1.583
REMARK UNBOUND:                -1.583
REMARK  Name = 
REMARK  13 active torsions:
REMARK  status: ('A' for Active; 'I' for Inactive)
REMARK    1  A    between atoms: C_1  and  O_2
REMARK    2  A    between atoms: O_2  and  C_3
REMARK    3  A    between atoms: C_3  and  C_5
REMARK    4  A    between atoms: C_5  and  C_6
REMARK    5  A    between atoms: C_7  and  S_8
REMARK    6  A    between atoms: S_8  and  S_9
REMARK    7  A    between atoms: S_9  and  C_10
REMARK    8  A    between atoms: C_11  and  C_12
REMARK    9  A    between atoms: C_12  and  C_13
REMARK   10  A    between atoms: C_13  and  O_15
REMARK   11  A    between atoms: O_15  and  C_16
REMARK   12  A    between atoms: N_23  and  C_24
REMARK   13  A    between atoms: N_25  and  C_26
REMARK                            x       y       z     vdW  Elec       q    Type
REMARK                         _______ _______ _______ _____ _____    ______ ____
ROOT
ATOM      1  S   UNL     1      23.602   4.043  51.846  0.00  0.00    -0.032 S 
ENDROOT
BRANCH   1   3
ATOM      2  C   UNL     1      23.634   1.341  52.682  0.00  0.00    +0.003 A 
ATOM      3  C   UNL     1      22.902   2.502  52.442  0.00  0.00    +0.091 A 
ATOM      4  N   UNL     1      21.587   2.303  52.715  0.00  0.00    -0.337 N 
ATOM      5  C   UNL     1      20.501   3.266  52.572  0.00  0.00    +0.013 C 
ATOM      6  C   UNL     1      21.475   1.007  53.078  0.00  0.00    +0.050 A 
ATOM      7  C   UNL     1      20.314   0.303  53.412  0.00  0.00    -0.038 A 
ATOM      8  C   UNL     1      20.442  -1.051  53.771  0.00  0.00    -0.060 A 
ATOM      9  C   UNL     1      21.707  -1.673  53.776  0.00  0.00    -0.061 A 
ATOM     10  C   UNL     1      22.857  -0.950  53.415  0.00  0.00    -0.052 A 
ATOM     11  C   UNL     1      22.705   0.392  53.073  0.00  0.00    +0.005 A 
BRANCH   2  12
ATOM     12  C   UNL     1      25.110   1.144  52.500  0.00  0.00    +0.073 C 
BRANCH  12  13
ATOM     13  C   UNL     1      25.843   1.436  53.769  0.00  0.00    +0.311 C 
ATOM     14  O   UNL     1      26.063   2.632  54.106  0.00  0.00    -0.250 OA
BRANCH  13  16
ATOM     15  C   UNL     1      27.655   0.093  54.789  0.00  0.00    +0.082 C 
ATOM     16  O   UNL     1      26.279   0.375  54.571  0.00  0.00    -0.468 OA
ENDBRANCH  13  16
ENDBRANCH  12  13
ENDBRANCH   2  12
ENDBRANCH   1   3
BRANCH   1  17
ATOM     17  S   UNL     1      23.389   3.471  49.803  0.00  0.00    -0.032 S 
BRANCH  17  18
ATOM     18  C   UNL     1      24.743   4.527  49.271  0.00  0.00    +0.091 A 
ATOM     19  C   UNL     1      24.586   5.836  48.817  0.00  0.00    +0.003 A 
ATOM     20  C   UNL     1      25.859   6.260  48.476  0.00  0.00    +0.005 A 
ATOM     21  C   UNL     1      26.306   7.466  47.937  0.00  0.00    -0.052 A 
ATOM     22  C   UNL     1      27.680   7.605  47.688  0.00  0.00    -0.061 A 
ATOM     23  C   UNL     1      28.569   6.549  47.978  0.00  0.00    -0.060 A 
ATOM     24  C   UNL     1      28.091   5.341  48.518  0.00  0.00    -0.038 A 
ATOM     25  C   UNL     1      26.719   5.227  48.760  0.00  0.00    +0.050 A 
ATOM     26  N   UNL     1      26.049   4.170  49.264  0.00  0.00    -0.337 N 
ATOM     27  C   UNL     1      26.608   2.871  49.630  0.00  0.00    +0.013 C 
BRANCH  19  28
ATOM     28  C   UNL     1      23.304   6.609  48.686  0.00  0.00    +0.073 C 
BRANCH  28  29
ATOM     29  C   UNL     1      22.957   7.305  49.965  0.00  0.00    +0.311 C 
ATOM     30  O   UNL     1      23.815   8.025  50.543  0.00  0.00    -0.250 OA
BRANCH  29  31
ATOM     31  O   UNL     1      21.697   7.099  50.530  0.00  0.00    -0.468 OA
ATOM     32  C   UNL     1      20.753   6.190  49.988  0.00  0.00    +0.082 C 
ENDBRANCH  29  31
ENDBRANCH  28  29
ENDBRANCH  19  28
ENDBRANCH  17  18
ENDBRANCH   1  17
TORSDOF 9
ENDMDL
MODEL 2
REMARK VINA RESULT:    -7.895      0.279      8.478
REMARK INTER + INTRA:         -13.632
REMARK INTER:                 -12.085
REMARK INTRA:                  -1.547
REMARK UNBOUND:                -1.583
REMARK  Name = 
REMARK  13 active torsions:
REMARK  status: ('A' for Active; 'I' for Inactive)
REMARK    1  A    between atoms: C_1  and  O_2
REMARK    2  A    between atoms: O_2  and  C_3
REMARK    3  A    between atoms: C_3  and  C_5
REMARK    4  A    between atoms: C_5  and  C_6
REMARK    5  A    between atoms: C_7  and  S_8
REMARK    6  A    between atoms: S_8  and  S_9
REMARK    7  A    between atoms: S_9  and  C_10
REMARK    8  A    between atoms: C_11  and  C_12
REMARK    9  A    between atoms: C_12  and  C_13
REMARK   10  A    between atoms: C_13  and  O_15
REMARK   11  A    between atoms: O_15  and  C_16
REMARK   12  A    between atoms: N_23  and  C_24
REMARK   13  A    between atoms: N_25  and  C_26
REMARK                            x       y       z     vdW  Elec       q    Type
REMARK                         _______ _______ _______ _____ _____    ______ ____
ROOT
ATOM      1  S   UNL     1      23.548   3.656  49.779  0.00  0.00    -0.032 S 
ENDROOT
BRANCH   1   3
ATOM      2  C   UNL     1      24.863   5.973  48.828  0.00  0.00    +0.003 A 
ATOM      3  C   UNL     1      24.948   4.651  49.261  0.00  0.00    +0.091 A 
ATOM      4  N   UNL     1      26.235   4.221  49.229  0.00  0.00    -0.337 N 
ATOM      5  C   UNL     1      26.730   2.895  49.585  0.00  0.00    +0.013 C 
ATOM      6  C   UNL     1      26.958   5.246  48.730  0.00  0.00    +0.050 A 
ATOM      7  C   UNL     1      28.330   5.282  48.460  0.00  0.00    -0.038 A 
ATOM      8  C   UNL     1      28.871   6.475  47.947  0.00  0.00    -0.060 A 
ATOM      9  C   UNL     1      28.044   7.589  47.703  0.00  0.00    -0.061 A 
ATOM     10  C   UNL     1      26.664   7.521  47.962  0.00  0.00    -0.052 A 
ATOM     11  C   UNL     1      26.153   6.332  48.479  0.00  0.00    +0.005 A 
BRANCH   2  12
ATOM     12  C   UNL     1      23.625   6.811  48.711  0.00  0.00    +0.073 C 
BRANCH  12  13
ATOM     13  C   UNL     1      23.310   7.475  50.013  0.00  0.00    +0.311 C 
ATOM     14  O   UNL     1      24.241   7.970  50.706  0.00  0.00    -0.250 OA
BRANCH  13  16
ATOM     15  C   UNL     1      21.059   6.475  50.254  0.00  0.00    +0.082 C 
ATOM     16  O   UNL     1      21.983   7.537  50.451  0.00  0.00    -0.468 OA
ENDBRANCH  13  16
ENDBRANCH  12  13
ENDBRANCH   2  12
ENDBRANCH   1   3
BRANCH   1  17
ATOM     17  S   UNL     1      23.834   4.135  51.837  0.00  0.00    -0.032 S 
BRANCH  17  18
ATOM     18  C   UNL     1      23.084   2.599  52.393  0.00  0.00    +0.091 A 
ATOM     19  C   UNL     1      23.791   1.421  52.630  0.00  0.00    +0.003 A 
ATOM     20  C   UNL     1      22.835   0.489  52.997  0.00  0.00    +0.005 A 
ATOM     21  C   UNL     1      22.954  -0.863  53.318  0.00  0.00    -0.052 A 
ATOM     22  C   UNL     1      21.785  -1.564  53.650  0.00  0.00    -0.061 A 
ATOM     23  C   UNL     1      20.536  -0.909  53.655  0.00  0.00    -0.060 A 
ATOM     24  C   UNL     1      20.443   0.454  53.324  0.00  0.00    -0.038 A 
ATOM     25  C   UNL     1      21.622   1.133  52.999  0.00  0.00    +0.050 A 
ATOM     26  N   UNL     1      21.765   2.428  52.649  0.00  0.00    -0.337 N 
ATOM     27  C   UNL     1      20.701   3.415  52.482  0.00  0.00    +0.013 C 
BRANCH  19  28
ATOM     28  C   UNL     1      25.269   1.197  52.479  0.00  0.00    +0.073 C 
BRANCH  28  29
ATOM     29  C   UNL     1      25.990   1.445  53.768  0.00  0.00    +0.311 C 
ATOM     30  O   UNL     1      26.293   2.621  54.105  0.00  0.00    -0.250 OA
BRANCH  29  31
ATOM     31  O   UNL     1      26.367   0.354  54.555  0.00  0.00    -0.468 OA
ATOM     32  C   UNL     1      27.722   0.001  54.774  0.00  0.00    +0.082 C 
ENDBRANCH  29  31
ENDBRANCH  28  29
ENDBRANCH  19  28
ENDBRANCH  17  18
ENDBRANCH   1  17
TORSDOF 9
ENDMDL
MODEL 3
REMARK VINA RESULT:    -7.542      2.026      3.289
REMARK INTER + INTRA:         -13.093
REMARK INTER:                 -11.564
REMARK INTRA:                  -1.528
REMARK UNBOUND:                -1.583
REMARK  Name = 
REMARK  13 active torsions:
REMARK  status: ('A' for Active; 'I' for Inactive)
REMARK    1  A    between atoms: C_1  and  O_2
REMARK    2  A    between atoms: O_2  and  C_3
REMARK    3  A    between atoms: C_3  and  C_5
REMARK    4  A    between atoms: C_5  and  C_6
REMARK    5  A    between atoms: C_7  and  S_8
REMARK    6  A    between atoms: S_8  and  S_9
REMARK    7  A    between atoms: S_9  and  C_10
REMARK    8  A    between atoms: C_11  and  C_12
REMARK    9  A    between atoms: C_12  and  C_13
REMARK   10  A    between atoms: C_13  and  O_15
REMARK   11  A    between atoms: O_15  and  C_16
REMARK   12  A    between atoms: N_23  and  C_24
REMARK   13  A    between atoms: N_25  and  C_26
REMARK                            x       y       z     vdW  Elec       q    Type
REMARK                         _______ _______ _______ _____ _____    ______ ____
ROOT
ATOM      1  S   UNL     1      23.663   4.328  51.862  0.00  0.00    -0.032 S 
ENDROOT
BRANCH   1   3
ATOM      2  C   UNL     1      21.691   2.446  52.615  0.00  0.00    +0.003 A 
ATOM      3  C   UNL     1      23.040   2.754  52.457  0.00  0.00    +0.091 A 
ATOM      4  N   UNL     1      23.816   1.702  52.822  0.00  0.00    -0.337 N 
ATOM      5  C   UNL     1      25.273   1.638  52.820  0.00  0.00    +0.013 C 
ATOM      6  C   UNL     1      22.966   0.747  53.259  0.00  0.00    +0.050 A 
ATOM      7  C   UNL     1      23.280  -0.510  53.785  0.00  0.00    -0.038 A 
ATOM      8  C   UNL     1      22.218  -1.349  54.170  0.00  0.00    -0.060 A 
ATOM      9  C   UNL     1      20.882  -0.919  54.036  0.00  0.00    -0.061 A 
ATOM     10  C   UNL     1      20.593   0.358  53.525  0.00  0.00    -0.052 A 
ATOM     11  C   UNL     1      21.662   1.166  53.142  0.00  0.00    +0.005 A 
BRANCH   2  12
ATOM     12  C   UNL     1      20.517   3.335  52.329  0.00  0.00    +0.073 C 
BRANCH  12  13
ATOM     13  C   UNL     1      19.648   2.739  51.269  0.00  0.00    +0.311 C 
ATOM     14  O   UNL     1      18.472   2.379  51.550  0.00  0.00    -0.250 OA
BRANCH  13  16
ATOM     15  C   UNL     1      20.388   1.311  49.386  0.00  0.00    +0.082 C 
ATOM     16  O   UNL     1      20.152   2.585  49.972  0.00  0.00    -0.468 OA
ENDBRANCH  13  16
ENDBRANCH  12  13
ENDBRANCH   2  12
ENDBRANCH   1   3
BRANCH   1  17
ATOM     17  S   UNL     1      23.374   3.790  49.820  0.00  0.00    -0.032 S 
BRANCH  17  18
ATOM     18  C   UNL     1      24.787   4.754  49.269  0.00  0.00    +0.091 A 
ATOM     19  C   UNL     1      24.706   6.060  48.787  0.00  0.00    +0.003 A 
ATOM     20  C   UNL     1      26.002   6.402  48.441  0.00  0.00    +0.005 A 
ATOM     21  C   UNL     1      26.518   7.569  47.878  0.00  0.00    -0.052 A 
ATOM     22  C   UNL     1      27.899   7.623  47.630  0.00  0.00    -0.061 A 
ATOM     23  C   UNL     1      28.725   6.524  47.945  0.00  0.00    -0.060 A 
ATOM     24  C   UNL     1      28.178   5.358  48.509  0.00  0.00    -0.038 A 
ATOM     25  C   UNL     1      26.801   5.328  48.749  0.00  0.00    +0.050 A 
ATOM     26  N   UNL     1      26.070   4.322  49.274  0.00  0.00    -0.337 N 
ATOM     27  C   UNL     1      26.553   3.001  49.669  0.00  0.00    +0.013 C 
BRANCH  19  28
ATOM     28  C   UNL     1      23.471   6.902  48.635  0.00  0.00    +0.073 C 
BRANCH  28  29
ATOM     29  C   UNL     1      23.108   7.569  49.926  0.00  0.00    +0.311 C 
ATOM     30  O   UNL     1      24.014   7.976  50.702  0.00  0.00    -0.250 OA
BRANCH  29  31
ATOM     31  O   UNL     1      21.761   7.680  50.277  0.00  0.00    -0.468 OA
ATOM     32  C   UNL     1      20.876   6.572  50.279  0.00  0.00    +0.082 C 
ENDBRANCH  29  31
ENDBRANCH  28  29
ENDBRANCH  19  28
ENDBRANCH  17  18
ENDBRANCH   1  17
TORSDOF 9
ENDMDL
MODEL 4
REMARK VINA RESULT:    -7.526      2.076      8.011
REMARK INTER + INTRA:         -13.069
REMARK INTER:                 -11.518
REMARK INTRA:                  -1.551
REMARK UNBOUND:                -1.583
REMARK  Name = 
REMARK  13 active torsions:
REMARK  status: ('A' for Active; 'I' for Inactive)
REMARK    1  A    between atoms: C_1  and  O_2
REMARK    2  A    between atoms: O_2  and  C_3
REMARK    3  A    between atoms: C_3  and  C_5
REMARK    4  A    between atoms: C_5  and  C_6
REMARK    5  A    between atoms: C_7  and  S_8
REMARK    6  A    between atoms: S_8  and  S_9
REMARK    7  A    between atoms: S_9  and  C_10
REMARK    8  A    between atoms: C_11  and  C_12
REMARK    9  A    between atoms: C_12  and  C_13
REMARK   10  A    between atoms: C_13  and  O_15
REMARK   11  A    between atoms: O_15  and  C_16
REMARK   12  A    between atoms: N_23  and  C_24
REMARK   13  A    between atoms: N_25  and  C_26
REMARK                            x       y       z     vdW  Elec       q    Type
REMARK                         _______ _______ _______ _____ _____    ______ ____
ROOT
ATOM      1  S   UNL     1      23.451   3.713  49.773  0.00  0.00    -0.032 S 
ENDROOT
BRANCH   1   3
ATOM      2  C   UNL     1      24.819   6.001  48.827  0.00  0.00    +0.003 A 
ATOM      3  C   UNL     1      24.875   4.682  49.272  0.00  0.00    +0.091 A 
ATOM      4  N   UNL     1      26.155   4.231  49.266  0.00  0.00    -0.337 N 
ATOM      5  C   UNL     1      26.623   2.901  49.642  0.00  0.00    +0.013 C 
ATOM      6  C   UNL     1      26.903   5.241  48.771  0.00  0.00    +0.050 A 
ATOM      7  C   UNL     1      28.280   5.252  48.525  0.00  0.00    -0.038 A 
ATOM      8  C   UNL     1      28.849   6.432  48.011  0.00  0.00    -0.060 A 
ATOM      9  C   UNL     1      28.043   7.557  47.743  0.00  0.00    -0.061 A 
ATOM     10  C   UNL     1      26.659   7.513  47.979  0.00  0.00    -0.052 A 
ATOM     11  C   UNL     1      26.120   6.337  48.497  0.00  0.00    +0.005 A 
BRANCH   2  12
ATOM     12  C   UNL     1      23.596   6.858  48.681  0.00  0.00    +0.073 C 
BRANCH  12  13
ATOM     13  C   UNL     1      23.286   7.560  49.964  0.00  0.00    +0.311 C 
ATOM     14  O   UNL     1      24.142   8.330  50.480  0.00  0.00    -0.250 OA
BRANCH  13  16
ATOM     15  C   UNL     1      20.851   7.972  50.129  0.00  0.00    +0.082 C 
ATOM     16  O   UNL     1      22.047   7.352  50.580  0.00  0.00    -0.468 OA
ENDBRANCH  13  16
ENDBRANCH  12  13
ENDBRANCH   2  12
ENDBRANCH   1   3
BRANCH   1  17
ATOM     17  S   UNL     1      23.618   4.326  51.808  0.00  0.00    -0.032 S 
BRANCH  17  18
ATOM     18  C   UNL     1      22.991   2.760  52.428  0.00  0.00    +0.091 A 
ATOM     19  C   UNL     1      21.637   2.459  52.575  0.00  0.00    +0.003 A 
ATOM     20  C   UNL     1      21.603   1.185  53.114  0.00  0.00    +0.005 A 
ATOM     21  C   UNL     1      20.527   0.386  53.502  0.00  0.00    -0.052 A 
ATOM     22  C   UNL     1      20.808  -0.883  54.032  0.00  0.00    -0.061 A 
ATOM     23  C   UNL     1      22.142  -1.323  54.161  0.00  0.00    -0.060 A 
ATOM     24  C   UNL     1      23.209  -0.497  53.766  0.00  0.00    -0.038 A 
ATOM     25  C   UNL     1      22.904   0.762  53.239  0.00  0.00    +0.050 A 
ATOM     26  N   UNL     1      23.760   1.711  52.805  0.00  0.00    -0.337 N 
ATOM     27  C   UNL     1      25.220   1.654  52.832  0.00  0.00    +0.013 C 
BRANCH  19  28
ATOM     28  C   UNL     1      20.466   3.345  52.258  0.00  0.00    +0.073 C 
BRANCH  28  29
ATOM     29  C   UNL     1      20.027   3.173  50.837  0.00  0.00    +0.311 C 
ATOM     30  O   UNL     1      19.822   4.185  50.113  0.00  0.00    -0.250 OA
BRANCH  29  31
ATOM     31  O   UNL     1      19.794   1.885  50.349  0.00  0.00    -0.468 OA
ATOM     32  C   UNL     1      20.463   1.364  49.213  0.00  0.00    +0.082 C 
ENDBRANCH  29  31
ENDBRANCH  28  29
ENDBRANCH  19  28
ENDBRANCH  17  18
ENDBRANCH   1  17
TORSDOF 9
ENDMDL
MODEL 5
REMARK VINA RESULT:    -7.335      2.571      4.589
REMARK INTER + INTRA:         -12.777
REMARK INTER:                 -11.289
REMARK INTRA:                  -1.488
REMARK UNBOUND:                -1.583
REMARK  Name = 
REMARK  13 active torsions:
REMARK  status: ('A' for Active; 'I' for Inactive)
REMARK    1  A    between atoms: C_1  and  O_2
REMARK    2  A    between atoms: O_2  and  C_3
REMARK    3  A    between atoms: C_3  and  C_5
REMARK    4  A    between atoms: C_5  and  C_6
REMARK    5  A    between atoms: C_7  and  S_8
REMARK    6  A    between atoms: S_8  and  S_9
REMARK    7  A    between atoms: S_9  and  C_10
REMARK    8  A    between atoms: C_11  and  C_12
REMARK    9  A    between atoms: C_12  and  C_13
REMARK   10  A    between atoms: C_13  and  O_15
REMARK   11  A    between atoms: O_15  and  C_16
REMARK   12  A    between atoms: N_23  and  C_24
REMARK   13  A    between atoms: N_25  and  C_26
REMARK                            x       y       z     vdW  Elec       q    Type
REMARK                         _______ _______ _______ _____ _____    ______ ____
ROOT
ATOM      1  S   UNL     1      20.628   2.869  49.750  0.00  0.00    -0.032 S 
ENDROOT
BRANCH   1   3
ATOM      2  C   UNL     1      19.853   0.658  51.335  0.00  0.00    +0.003 A 
ATOM      3  C   UNL     1      19.493   1.829  50.672  0.00  0.00    +0.091 A 
ATOM      4  N   UNL     1      18.164   2.068  50.814  0.00  0.00    -0.337 N 
ATOM      5  C   UNL     1      17.404   3.180  50.253  0.00  0.00    +0.013 C 
ATOM      6  C   UNL     1      17.672   1.028  51.521  0.00  0.00    +0.050 A 
ATOM      7  C   UNL     1      16.345   0.788  51.889  0.00  0.00    -0.038 A 
ATOM      8  C   UNL     1      16.067  -0.368  52.641  0.00  0.00    -0.060 A 
ATOM      9  C   UNL     1      17.101  -1.257  52.995  0.00  0.00    -0.061 A 
ATOM     10  C   UNL     1      18.424  -1.005  52.595  0.00  0.00    -0.052 A 
ATOM     11  C   UNL     1      18.676   0.152  51.859  0.00  0.00    +0.005 A 
BRANCH   2  12
ATOM     12  C   UNL     1      21.219   0.044  51.416  0.00  0.00    +0.073 C 
BRANCH  12  13
ATOM     13  C   UNL     1      21.655  -0.091  52.839  0.00  0.00    +0.311 C 
ATOM     14  O   UNL     1      21.649   0.919  53.596  0.00  0.00    -0.250 OA
BRANCH  13  16
ATOM     15  C   UNL     1      21.814  -1.776  54.646  0.00  0.00    +0.082 C 
ATOM     16  O   UNL     1      22.068  -1.340  53.317  0.00  0.00    -0.468 OA
ENDBRANCH  13  16
ENDBRANCH  12  13
ENDBRANCH   2  12
ENDBRANCH   1   3
BRANCH   1  17
ATOM     17  S   UNL     1      21.449   3.724  51.522  0.00  0.00    -0.032 S 
BRANCH  17  18
ATOM     18  C   UNL     1      23.012   4.108  50.723  0.00  0.00    +0.091 A 
ATOM     19  C   UNL     1      24.119   3.260  50.715  0.00  0.00    +0.003 A 
ATOM     20  C   UNL     1      25.106   3.954  50.036  0.00  0.00    +0.005 A 
ATOM     21  C   UNL     1      26.428   3.615  49.750  0.00  0.00    -0.052 A 
ATOM     22  C   UNL     1      27.204   4.542  49.038  0.00  0.00    -0.061 A 
ATOM     23  C   UNL     1      26.651   5.773  48.630  0.00  0.00    -0.060 A 
ATOM     24  C   UNL     1      25.316   6.092  48.934  0.00  0.00    -0.038 A 
ATOM     25  C   UNL     1      24.561   5.152  49.643  0.00  0.00    +0.050 A 
ATOM     26  N   UNL     1      23.275   5.248  50.041  0.00  0.00    -0.337 N 
ATOM     27  C   UNL     1      22.385   6.392  49.862  0.00  0.00    +0.013 C 
BRANCH  19  28
ATOM     28  C   UNL     1      24.231   1.900  51.344  0.00  0.00    +0.073 C 
BRANCH  28  29
ATOM     29  C   UNL     1      24.878   1.979  52.692  0.00  0.00    +0.311 C 
ATOM     30  O   UNL     1      24.634   2.955  53.453  0.00  0.00    -0.250 OA
BRANCH  29  31
ATOM     31  O   UNL     1      25.792   0.991  53.066  0.00  0.00    -0.468 OA
ATOM     32  C   UNL     1      25.411  -0.173  53.781  0.00  0.00    +0.082 C 
ENDBRANCH  29  31
ENDBRANCH  28  29
ENDBRANCH  19  28
ENDBRANCH  17  18
ENDBRANCH   1  17
TORSDOF 9
ENDMDL
MODEL 6
REMARK VINA RESULT:    -7.275      2.374      7.966
REMARK INTER + INTRA:         -12.685
REMARK INTER:                 -11.256
REMARK INTRA:                  -1.429
REMARK UNBOUND:                -1.583
REMARK  Name = 
REMARK  13 active torsions:
REMARK  status: ('A' for Active; 'I' for Inactive)
REMARK    1  A    between atoms: C_1  and  O_2
REMARK    2  A    between atoms: O_2  and  C_3
REMARK    3  A    between atoms: C_3  and  C_5
REMARK    4  A    between atoms: C_5  and  C_6
REMARK    5  A    between atoms: C_7  and  S_8
REMARK    6  A    between atoms: S_8  and  S_9
REMARK    7  A    between atoms: S_9  and  C_10
REMARK    8  A    between atoms: C_11  and  C_12
REMARK    9  A    between atoms: C_12  and  C_13
REMARK   10  A    between atoms: C_13  and  O_15
REMARK   11  A    between atoms: O_15  and  C_16
REMARK   12  A    between atoms: N_23  and  C_24
REMARK   13  A    between atoms: N_25  and  C_26
REMARK                            x       y       z     vdW  Elec       q    Type
REMARK                         _______ _______ _______ _____ _____    ______ ____
ROOT
ATOM      1  S   UNL     1      22.537   2.961  51.679  0.00  0.00    -0.032 S 
ENDROOT
BRANCH   1   3
ATOM      2  C   UNL     1      25.122   3.207  50.555  0.00  0.00    +0.003 A 
ATOM      3  C   UNL     1      23.843   3.734  50.722  0.00  0.00    +0.091 A 
ATOM      4  N   UNL     1      23.726   4.917  50.065  0.00  0.00    -0.337 N 
ATOM      5  C   UNL     1      22.554   5.784  50.014  0.00  0.00    +0.013 C 
ATOM      6  C   UNL     1      24.939   5.165  49.526  0.00  0.00    +0.050 A 
ATOM      7  C   UNL     1      25.342   6.285  48.792  0.00  0.00    -0.038 A 
ATOM      8  C   UNL     1      26.667   6.322  48.319  0.00  0.00    -0.060 A 
ATOM      9  C   UNL     1      27.555   5.263  48.594  0.00  0.00    -0.061 A 
ATOM     10  C   UNL     1      27.132   4.159  49.353  0.00  0.00    -0.052 A 
ATOM     11  C   UNL     1      25.813   4.140  49.802  0.00  0.00    +0.005 A 
BRANCH   2  12
ATOM     12  C   UNL     1      25.655   1.924  51.122  0.00  0.00    +0.073 C 
BRANCH  12  13
ATOM     13  C   UNL     1      26.342   2.168  52.427  0.00  0.00    +0.311 C 
ATOM     14  O   UNL     1      25.691   2.635  53.402  0.00  0.00    -0.250 OA
BRANCH  13  16
ATOM     15  C   UNL     1      28.508   2.397  53.604  0.00  0.00    +0.082 C 
ATOM     16  O   UNL     1      27.705   1.878  52.552  0.00  0.00    -0.468 OA
ENDBRANCH  13  16
ENDBRANCH  12  13
ENDBRANCH   2  12
ENDBRANCH   1   3
BRANCH   1  17
ATOM     17  S   UNL     1      22.226   1.438  50.219  0.00  0.00    -0.032 S 
BRANCH  17  18
ATOM     18  C   UNL     1      20.678   0.912  50.965  0.00  0.00    +0.091 A 
ATOM     19  C   UNL     1      20.571  -0.092  51.928  0.00  0.00    +0.003 A 
ATOM     20  C   UNL     1      19.217  -0.202  52.192  0.00  0.00    +0.005 A 
ATOM     21  C   UNL     1      18.519  -1.060  53.042  0.00  0.00    -0.052 A 
ATOM     22  C   UNL     1      17.122  -0.939  53.095  0.00  0.00    -0.061 A 
ATOM     23  C   UNL     1      16.458   0.024  52.307  0.00  0.00    -0.060 A 
ATOM     24  C   UNL     1      17.185   0.873  51.455  0.00  0.00    -0.038 A 
ATOM     25  C   UNL     1      18.576   0.737  51.421  0.00  0.00    +0.050 A 
ATOM     26  N   UNL     1      19.462   1.436  50.681  0.00  0.00    -0.337 N 
ATOM     27  C   UNL     1      19.159   2.475  49.700  0.00  0.00    +0.013 C 
BRANCH  19  28
ATOM     28  C   UNL     1      21.684  -0.908  52.522  0.00  0.00    +0.073 C 
BRANCH  28  29
ATOM     29  C   UNL     1      22.267  -0.235  53.725  0.00  0.00    +0.311 C 
ATOM     30  O   UNL     1      21.535   0.030  54.717  0.00  0.00    -0.250 OA
BRANCH  29  31
ATOM     31  O   UNL     1      23.611   0.143  53.707  0.00  0.00    -0.468 OA
ATOM     32  C   UNL     1      24.630  -0.617  54.336  0.00  0.00    +0.082 C 
ENDBRANCH  29  31
ENDBRANCH  28  29
ENDBRANCH  19  28
ENDBRANCH  17  18
ENDBRANCH   1  17
TORSDOF 9
ENDMDL
MODEL 7
REMARK VINA RESULT:    -7.200      2.633      7.405
REMARK INTER + INTRA:         -12.571
REMARK INTER:                 -11.218
REMARK INTRA:                  -1.353
REMARK UNBOUND:                -1.583
REMARK  Name = 
REMARK  13 active torsions:
REMARK  status: ('A' for Active; 'I' for Inactive)
REMARK    1  A    between atoms: C_1  and  O_2
REMARK    2  A    between atoms: O_2  and  C_3
REMARK    3  A    between atoms: C_3  and  C_5
REMARK    4  A    between atoms: C_5  and  C_6
REMARK    5  A    between atoms: C_7  and  S_8
REMARK    6  A    between atoms: S_8  and  S_9
REMARK    7  A    between atoms: S_9  and  C_10
REMARK    8  A    between atoms: C_11  and  C_12
REMARK    9  A    between atoms: C_12  and  C_13
REMARK   10  A    between atoms: C_13  and  O_15
REMARK   11  A    between atoms: O_15  and  C_16
REMARK   12  A    between atoms: N_23  and  C_24
REMARK   13  A    between atoms: N_25  and  C_26
REMARK                            x       y       z     vdW  Elec       q    Type
REMARK                         _______ _______ _______ _____ _____    ______ ____
ROOT
ATOM      1  S   UNL     1      25.472   2.654  50.855  0.00  0.00    -0.032 S 
ENDROOT
BRANCH   1   3
ATOM      2  C   UNL     1      23.117   4.182  51.202  0.00  0.00    +0.003 A 
ATOM      3  C   UNL     1      24.444   4.123  50.781  0.00  0.00    +0.091 A 
ATOM      4  N   UNL     1      24.847   5.328  50.304  0.00  0.00    -0.337 N 
ATOM      5  C   UNL     1      26.155   5.665  49.754  0.00  0.00    +0.013 C 
ATOM      6  C   UNL     1      23.766   6.135  50.372  0.00  0.00    +0.050 A 
ATOM      7  C   UNL     1      23.658   7.465  49.955  0.00  0.00    -0.038 A 
ATOM      8  C   UNL     1      22.423   8.115  50.136  0.00  0.00    -0.060 A 
ATOM      9  C   UNL     1      21.332   7.432  50.709  0.00  0.00    -0.061 A 
ATOM     10  C   UNL     1      21.460   6.088  51.100  0.00  0.00    -0.052 A 
ATOM     11  C   UNL     1      22.696   5.469  50.919  0.00  0.00    +0.005 A 
BRANCH   2  12
ATOM     12  C   UNL     1      22.299   3.067  51.785  0.00  0.00    +0.073 C 
BRANCH  12  13
ATOM     13  C   UNL     1      21.536   2.356  50.715  0.00  0.00    +0.311 C 
ATOM     14  O   UNL     1      20.275   2.396  50.712  0.00  0.00    -0.250 OA
BRANCH  13  16
ATOM     15  C   UNL     1      22.116   1.950  48.343  0.00  0.00    +0.082 C 
ATOM     16  O   UNL     1      22.231   1.649  49.727  0.00  0.00    -0.468 OA
ENDBRANCH  13  16
ENDBRANCH  12  13
ENDBRANCH   2  12
ENDBRANCH   1   3
BRANCH   1  17
ATOM     17  S   UNL     1      25.562   2.695  52.984  0.00  0.00    -0.032 S 
BRANCH  17  18
ATOM     18  C   UNL     1      26.642   1.260  53.058  0.00  0.00    +0.091 A 
ATOM     19  C   UNL     1      26.211  -0.056  52.898  0.00  0.00    +0.003 A 
ATOM     20  C   UNL     1      27.343  -0.834  53.069  0.00  0.00    +0.005 A 
ATOM     21  C   UNL     1      27.510  -2.219  53.051  0.00  0.00    -0.052 A 
ATOM     22  C   UNL     1      28.800  -2.728  53.266  0.00  0.00    -0.061 A 
ATOM     23  C   UNL     1      29.884  -1.853  53.491  0.00  0.00    -0.060 A 
ATOM     24  C   UNL     1      29.688  -0.462  53.507  0.00  0.00    -0.038 A 
ATOM     25  C   UNL     1      28.394   0.022  53.288  0.00  0.00    +0.050 A 
ATOM     26  N   UNL     1      27.980   1.306  53.265  0.00  0.00    -0.337 N 
ATOM     27  C   UNL     1      28.792   2.494  53.515  0.00  0.00    +0.013 C 
BRANCH  19  28
ATOM     28  C   UNL     1      24.810  -0.532  52.638  0.00  0.00    +0.073 C 
BRANCH  28  29
ATOM     29  C   UNL     1      23.997  -0.537  53.896  0.00  0.00    +0.311 C 
ATOM     30  O   UNL     1      24.475  -1.031  54.953  0.00  0.00    -0.250 OA
BRANCH  29  31
ATOM     31  O   UNL     1      22.692  -0.043  53.862  0.00  0.00    -0.468 OA
ATOM     32  C   UNL     1      21.702  -0.552  52.984  0.00  0.00    +0.082 C 
ENDBRANCH  29  31
ENDBRANCH  28  29
ENDBRANCH  19  28
ENDBRANCH  17  18
ENDBRANCH   1  17
TORSDOF 9
ENDMDL
MODEL 8
REMARK VINA RESULT:    -7.045      1.730      8.671
REMARK INTER + INTRA:         -12.334
REMARK INTER:                 -10.819
REMARK INTRA:                  -1.515
REMARK UNBOUND:                -1.583
REMARK  Name = 
REMARK  13 active torsions:
REMARK  status: ('A' for Active; 'I' for Inactive)
REMARK    1  A    between atoms: C_1  and  O_2
REMARK    2  A    between atoms: O_2  and  C_3
REMARK    3  A    between atoms: C_3  and  C_5
REMARK    4  A    between atoms: C_5  and  C_6
REMARK    5  A    between atoms: C_7  and  S_8
REMARK    6  A    between atoms: S_8  and  S_9
REMARK    7  A    between atoms: S_9  and  C_10
REMARK    8  A    between atoms: C_11  and  C_12
REMARK    9  A    between atoms: C_12  and  C_13
REMARK   10  A    between atoms: C_13  and  O_15
REMARK   11  A    between atoms: O_15  and  C_16
REMARK   12  A    between atoms: N_23  and  C_24
REMARK   13  A    between atoms: N_25  and  C_26
REMARK                            x       y       z     vdW  Elec       q    Type
REMARK                         _______ _______ _______ _____ _____    ______ ____
ROOT
ATOM      1  S   UNL     1      24.202   3.121  49.964  0.00  0.00    -0.032 S 
ENDROOT
BRANCH   1   3
ATOM      2  C   UNL     1      23.890   5.769  49.021  0.00  0.00    +0.003 A 
ATOM      3  C   UNL     1      24.739   4.702  49.308  0.00  0.00    +0.091 A 
ATOM      4  N   UNL     1      26.025   5.024  49.016  0.00  0.00    -0.337 N 
ATOM      5  C   UNL     1      27.200   4.171  49.157  0.00  0.00    +0.013 C 
ATOM      6  C   UNL     1      25.988   6.270  48.497  0.00  0.00    +0.050 A 
ATOM      7  C   UNL     1      27.053   7.028  48.000  0.00  0.00    -0.038 A 
ATOM      8  C   UNL     1      26.775   8.319  47.514  0.00  0.00    -0.060 A 
ATOM      9  C   UNL     1      25.457   8.817  47.520  0.00  0.00    -0.061 A 
ATOM     10  C   UNL     1      24.400   8.028  48.005  0.00  0.00    -0.052 A 
ATOM     11  C   UNL     1      24.702   6.757  48.490  0.00  0.00    +0.005 A 
BRANCH   2  12
ATOM     12  C   UNL     1      22.401   5.817  49.196  0.00  0.00    +0.073 C 
BRANCH  12  13
ATOM     13  C   UNL     1      21.709   5.283  47.984  0.00  0.00    +0.311 C 
ATOM     14  O   UNL     1      21.611   5.999  46.950  0.00  0.00    -0.250 OA
BRANCH  13  16
ATOM     15  C   UNL     1      21.650   2.943  47.176  0.00  0.00    +0.082 C 
ATOM     16  O   UNL     1      21.173   3.990  48.011  0.00  0.00    -0.468 OA
ENDBRANCH  13  16
ENDBRANCH  12  13
ENDBRANCH   2  12
ENDBRANCH   1   3
BRANCH   1  17
ATOM     17  S   UNL     1      24.217   3.831  51.974  0.00  0.00    -0.032 S 
BRANCH  17  18
ATOM     18  C   UNL     1      23.279   2.421  52.576  0.00  0.00    +0.091 A 
ATOM     19  C   UNL     1      23.839   1.335  53.247  0.00  0.00    +0.003 A 
ATOM     20  C   UNL     1      22.783   0.472  53.489  0.00  0.00    +0.005 A 
ATOM     21  C   UNL     1      22.751  -0.784  54.096  0.00  0.00    -0.052 A 
ATOM     22  C   UNL     1      21.512  -1.434  54.195  0.00  0.00    -0.061 A 
ATOM     23  C   UNL     1      20.344  -0.825  53.690  0.00  0.00    -0.060 A 
ATOM     24  C   UNL     1      20.404   0.440  53.079  0.00  0.00    -0.038 A 
ATOM     25  C   UNL     1      21.650   1.070  52.995  0.00  0.00    +0.050 A 
ATOM     26  N   UNL     1      21.939   2.270  52.451  0.00  0.00    -0.337 N 
ATOM     27  C   UNL     1      21.010   3.174  51.776  0.00  0.00    +0.013 C 
BRANCH  19  28
ATOM     28  C   UNL     1      25.285   1.124  53.597  0.00  0.00    +0.073 C 
BRANCH  28  29
ATOM     29  C   UNL     1      25.981   0.306  52.554  0.00  0.00    +0.311 C 
ATOM     30  O   UNL     1      26.587   0.875  51.606  0.00  0.00    -0.250 OA
BRANCH  29  31
ATOM     31  O   UNL     1      25.898  -1.087  52.617  0.00  0.00    -0.468 OA
ATOM     32  C   UNL     1      27.044  -1.922  52.628  0.00  0.00    +0.082 C 
ENDBRANCH  29  31
ENDBRANCH  28  29
ENDBRANCH  19  28
ENDBRANCH  17  18
ENDBRANCH   1  17
TORSDOF 9
ENDMDL
MODEL 9
REMARK VINA RESULT:    -6.988      1.956      7.994
REMARK INTER + INTRA:         -12.248
REMARK INTER:                 -11.114
REMARK INTRA:                  -1.134
REMARK UNBOUND:                -1.583
REMARK  Name = 
REMARK  13 active torsions:
REMARK  status: ('A' for Active; 'I' for Inactive)
REMARK    1  A    between atoms: C_1  and  O_2
REMARK    2  A    between atoms: O_2  and  C_3
REMARK    3  A    between atoms: C_3  and  C_5
REMARK    4  A    between atoms: C_5  and  C_6
REMARK    5  A    between atoms: C_7  and  S_8
REMARK    6  A    between atoms: S_8  and  S_9
REMARK    7  A    between atoms: S_9  and  C_10
REMARK    8  A    between atoms: C_11  and  C_12
REMARK    9  A    between atoms: C_12  and  C_13
REMARK   10  A    between atoms: C_13  and  O_15
REMARK   11  A    between atoms: O_15  and  C_16
REMARK   12  A    between atoms: N_23  and  C_24
REMARK   13  A    between atoms: N_25  and  C_26
REMARK                            x       y       z     vdW  Elec       q    Type
REMARK                         _______ _______ _______ _____ _____    ______ ____
ROOT
ATOM      1  S   UNL     1      23.735   4.374  52.313  0.00  0.00    -0.032 S 
ENDROOT
BRANCH   1   3
ATOM      2  C   UNL     1      23.631   6.634  50.616  0.00  0.00    +0.003 A 
ATOM      3  C   UNL     1      22.962   5.578  51.231  0.00  0.00    +0.091 A 
ATOM      4  N   UNL     1      21.645   5.591  50.901  0.00  0.00    -0.337 N 
ATOM      5  C   UNL     1      20.614   4.666  51.357  0.00  0.00    +0.013 C 
ATOM      6  C   UNL     1      21.468   6.681  50.123  0.00  0.00    +0.050 A 
ATOM      7  C   UNL     1      20.276   7.157  49.568  0.00  0.00    -0.038 A 
ATOM      8  C   UNL     1      20.335   8.318  48.775  0.00  0.00    -0.060 A 
ATOM      9  C   UNL     1      21.561   8.979  48.565  0.00  0.00    -0.061 A 
ATOM     10  C   UNL     1      22.741   8.493  49.152  0.00  0.00    -0.052 A 
ATOM     11  C   UNL     1      22.659   7.337  49.925  0.00  0.00    +0.005 A 
BRANCH   2  12
ATOM     12  C   UNL     1      25.089   6.972  50.727  0.00  0.00    +0.073 C 
BRANCH  12  13
ATOM     13  C   UNL     1      25.809   6.625  49.464  0.00  0.00    +0.311 C 
ATOM     14  O   UNL     1      26.420   7.524  48.822  0.00  0.00    -0.250 OA
BRANCH  13  16
ATOM     15  C   UNL     1      26.880   4.407  49.211  0.00  0.00    +0.082 C 
ATOM     16  O   UNL     1      25.796   5.303  49.005  0.00  0.00    -0.468 OA
ENDBRANCH  13  16
ENDBRANCH  12  13
ENDBRANCH   2  12
ENDBRANCH   1   3
BRANCH   1  17
ATOM     17  S   UNL     1      23.757   2.871  50.800  0.00  0.00    -0.032 S 
BRANCH  17  18
ATOM     18  C   UNL     1      23.203   1.591  51.934  0.00  0.00    +0.091 A 
ATOM     19  C   UNL     1      23.966   1.095  52.991  0.00  0.00    +0.003 A 
ATOM     20  C   UNL     1      23.187   0.109  53.571  0.00  0.00    +0.005 A 
ATOM     21  C   UNL     1      23.446  -0.747  54.642  0.00  0.00    -0.052 A 
ATOM     22  C   UNL     1      22.449  -1.665  55.005  0.00  0.00    -0.061 A 
ATOM     23  C   UNL     1      21.227  -1.709  54.300  0.00  0.00    -0.060 A 
ATOM     24  C   UNL     1      20.993  -0.838  53.222  0.00  0.00    -0.038 A 
ATOM     25  C   UNL     1      22.001   0.070  52.880  0.00  0.00    +0.050 A 
ATOM     26  N   UNL     1      21.993   0.985  51.889  0.00  0.00    -0.337 N 
ATOM     27  C   UNL     1      20.935   1.205  50.906  0.00  0.00    +0.013 C 
BRANCH  19  28
ATOM     28  C   UNL     1      25.354   1.511  53.389  0.00  0.00    +0.073 C 
BRANCH  28  29
ATOM     29  C   UNL     1      26.372   0.516  52.926  0.00  0.00    +0.311 C 
ATOM     30  O   UNL     1      26.620   0.393  51.696  0.00  0.00    -0.250 OA
BRANCH  29  31
ATOM     31  O   UNL     1      26.994  -0.307  53.867  0.00  0.00    -0.468 OA
ATOM     32  C   UNL     1      28.281  -0.031  54.394  0.00  0.00    +0.082 C 
ENDBRANCH  29  31
ENDBRANCH  28  29
ENDBRANCH  19  28
ENDBRANCH  17  18
ENDBRANCH   1  17
TORSDOF 9
ENDMDL
