MODEL 1
REMARK VINA RESULT:   -10.935      0.000      0.000
REMARK INTER + INTRA:         -13.182
REMARK INTER:                 -12.853
REMARK INTRA:                  -0.330
REMARK UNBOUND:                -0.330
REMARK  Name = 
REMARK  7 active torsions:
REMARK  status: ('A' for Active; 'I' for Inactive)
REMARK    1  A    between atoms: C_1  and  O_2
REMARK    2  A    between atoms: O_2  and  C_3
REMARK    3  A    between atoms: N_5  and  C_6
REMARK    4  A    between atoms: N_5  and  C_7
REMARK    5  A    between atoms: C_11  and  C_12
REMARK    6  A    between atoms: C_13  and  O_14
REMARK    7  A    between atoms: O_14  and  C_15
REMARK                            x       y       z     vdW  Elec       q    Type
REMARK                         _______ _______ _______ _____ _____    ______ ____
ROOT
ATOM      1  C   UNL     1      23.536   4.934  49.658  0.00  0.00    +0.064 C 
ATOM      2  C   UNL     1      24.194   4.226  50.834  0.00  0.00    +0.014 C 
ATOM      3  C   UNL     1      24.822   2.915  50.335  0.00  0.00    +0.140 C 
ATOM      4  O   UNL     1      24.157   2.308  49.238  0.00  0.00    -0.328 OA
ATOM      5  C   UNL     1      22.748   2.511  49.159  0.00  0.00    +0.174 C 
ATOM      6  C   UNL     1      22.376   1.827  47.821  0.00  0.00    -0.014 C 
ATOM      7  C   UNL     1      22.401   4.059  49.064  0.00  0.00    +0.125 C 
ATOM      8  N   UNL     1      22.028   1.812  50.281  0.00  0.00    -0.307 N 
ATOM      9  C   UNL     1      20.696   1.471  50.347  0.00  0.00    +0.053 A 
ATOM     10  C   UNL     1      19.649   1.829  49.478  0.00  0.00    -0.037 A 
ATOM     11  C   UNL     1      18.353   1.353  49.736  0.00  0.00    -0.060 A 
ATOM     12  C   UNL     1      18.101   0.528  50.844  0.00  0.00    -0.061 A 
ATOM     13  C   UNL     1      19.142   0.174  51.712  0.00  0.00    -0.052 A 
ATOM     14  C   UNL     1      20.422   0.660  51.438  0.00  0.00    +0.008 A 
ATOM     15  C   UNL     1      21.608   0.478  52.096  0.00  0.00    +0.015 A 
ATOM     16  C   UNL     1      21.942  -0.250  53.252  0.00  0.00    -0.008 A 
ATOM     17  C   UNL     1      23.256  -0.240  53.715  0.00  0.00    +0.052 A 
ATOM     18  C   UNL     1      24.231   0.523  53.036  0.00  0.00    +0.022 A 
ATOM     19  C   UNL     1      25.552   0.869  53.298  0.00  0.00    +0.008 A 
ATOM     20  C   UNL     1      26.425   0.561  54.346  0.00  0.00    -0.052 A 
ATOM     21  C   UNL     1      27.700   1.150  54.347  0.00  0.00    -0.061 A 
ATOM     22  C   UNL     1      28.078   2.042  53.326  0.00  0.00    -0.060 A 
ATOM     23  C   UNL     1      27.185   2.360  52.292  0.00  0.00    -0.037 A 
ATOM     24  C   UNL     1      25.924   1.751  52.294  0.00  0.00    +0.052 A 
ATOM     25  N   UNL     1      24.909   1.955  51.421  0.00  0.00    -0.311 N 
ATOM     26  C   UNL     1      23.882   1.217  51.875  0.00  0.00    +0.077 A 
ATOM     27  C   UNL     1      22.562   1.195  51.383  0.00  0.00    +0.077 A 
ATOM     28  C   UNL     1      23.278  -1.089  54.891  0.00  0.00    +0.245 C 
ATOM     29  O   UNL     1      24.286  -1.419  55.563  0.00  0.00    -0.270 OA
ATOM     30  N   UNL     1      21.974  -1.589  55.152  0.00  0.00    -0.307 N 
ATOM     31  C   UNL     1      21.059  -1.090  54.130  0.00  0.00    +0.039 C 
ATOM     32  H   UNL     1      21.728  -2.177  55.903  0.00  0.00    +0.000 HD
ENDROOT
BRANCH   1  35
ATOM     33  C   UNL     1      23.003   7.373  49.009  0.00  0.00    +0.403 C 
ATOM     34  O   UNL     1      22.503   8.485  49.339  0.00  0.00    -0.226 OA
ATOM     35  N   UNL     1      23.116   6.316  49.993  0.00  0.00    -0.265 N 
ATOM     36  C   UNL     1      22.749   6.634  51.380  0.00  0.00    +0.007 C 
BRANCH  33  38
ATOM     37  C   UNL     1      24.763   7.570  47.277  0.00  0.00    +0.083 C 
ATOM     38  O   UNL     1      23.463   7.187  47.702  0.00  0.00    -0.454 OA
ENDBRANCH  33  38
ENDBRANCH   1  35
BRANCH   7  39
ATOM     39  O   UNL     1      21.169   4.330  49.714  0.00  0.00    -0.373 OA
ATOM     40  C   UNL     1      20.266   4.996  48.851  0.00  0.00    +0.037 C 
ENDBRANCH   7  39
TORSDOF 3
ENDMDL
MODEL 2
REMARK VINA RESULT:   -10.095      2.082      5.423
REMARK INTER + INTRA:         -12.195
REMARK INTER:                 -12.262
REMARK INTRA:                   0.067
REMARK UNBOUND:                -0.330
REMARK  Name = 
REMARK  7 active torsions:
REMARK  status: ('A' for Active; 'I' for Inactive)
REMARK    1  A    between atoms: C_1  and  O_2
REMARK    2  A    between atoms: O_2  and  C_3
REMARK    3  A    between atoms: N_5  and  C_6
REMARK    4  A    between atoms: N_5  and  C_7
REMARK    5  A    between atoms: C_11  and  C_12
REMARK    6  A    between atoms: C_13  and  O_14
REMARK    7  A    between atoms: O_14  and  C_15
REMARK                            x       y       z     vdW  Elec       q    Type
REMARK                         _______ _______ _______ _____ _____    ______ ____
ROOT
ATOM      1  C   UNL     1      19.950   3.818  49.850  0.00  0.00    +0.064 C 
ATOM      2  C   UNL     1      20.402   2.571  50.596  0.00  0.00    +0.014 C 
ATOM      3  C   UNL     1      20.779   2.964  52.034  0.00  0.00    +0.140 C 
ATOM      4  O   UNL     1      21.287   4.279  52.186  0.00  0.00    -0.328 OA
ATOM      5  C   UNL     1      22.010   4.813  51.078  0.00  0.00    +0.174 C 
ATOM      6  C   UNL     1      22.312   6.262  51.530  0.00  0.00    -0.014 C 
ATOM      7  C   UNL     1      21.103   4.854  49.775  0.00  0.00    +0.125 C 
ATOM      8  N   UNL     1      23.311   4.085  50.870  0.00  0.00    -0.307 N 
ATOM      9  C   UNL     1      24.416   4.513  50.170  0.00  0.00    +0.053 A 
ATOM     10  C   UNL     1      24.554   5.644  49.344  0.00  0.00    -0.037 A 
ATOM     11  C   UNL     1      25.791   5.896  48.729  0.00  0.00    -0.060 A 
ATOM     12  C   UNL     1      26.881   5.035  48.936  0.00  0.00    -0.061 A 
ATOM     13  C   UNL     1      26.745   3.907  49.756  0.00  0.00    -0.052 A 
ATOM     14  C   UNL     1      25.505   3.675  50.355  0.00  0.00    +0.008 A 
ATOM     15  C   UNL     1      25.089   2.675  51.192  0.00  0.00    +0.015 A 
ATOM     16  C   UNL     1      25.754   1.559  51.731  0.00  0.00    -0.008 A 
ATOM     17  C   UNL     1      25.060   0.678  52.557  0.00  0.00    +0.052 A 
ATOM     18  C   UNL     1      23.691   0.898  52.821  0.00  0.00    +0.022 A 
ATOM     19  C   UNL     1      22.691   0.166  53.452  0.00  0.00    +0.008 A 
ATOM     20  C   UNL     1      22.685  -1.078  54.091  0.00  0.00    -0.052 A 
ATOM     21  C   UNL     1      21.461  -1.576  54.567  0.00  0.00    -0.061 A 
ATOM     22  C   UNL     1      20.271  -0.847  54.385  0.00  0.00    -0.060 A 
ATOM     23  C   UNL     1      20.288   0.389  53.724  0.00  0.00    -0.037 A 
ATOM     24  C   UNL     1      21.518   0.882  53.270  0.00  0.00    +0.052 A 
ATOM     25  N   UNL     1      21.743   2.022  52.575  0.00  0.00    -0.311 N 
ATOM     26  C   UNL     1      23.057   2.027  52.296  0.00  0.00    +0.077 A 
ATOM     27  C   UNL     1      23.754   2.939  51.480  0.00  0.00    +0.077 A 
ATOM     28  C   UNL     1      26.015  -0.337  52.959  0.00  0.00    +0.245 C 
ATOM     29  O   UNL     1      25.821  -1.274  53.773  0.00  0.00    -0.270 OA
ATOM     30  N   UNL     1      27.276  -0.083  52.356  0.00  0.00    -0.307 N 
ATOM     31  C   UNL     1      27.182   1.129  51.549  0.00  0.00    +0.039 C 
ATOM     32  H   UNL     1      28.083  -0.638  52.464  0.00  0.00    +0.000 HD
ENDROOT
BRANCH   1  35
ATOM     33  C   UNL     1      18.093   4.076  48.079  0.00  0.00    +0.403 C 
ATOM     34  O   UNL     1      17.706   3.874  46.893  0.00  0.00    -0.226 OA
ATOM     35  N   UNL     1      19.340   3.502  48.535  0.00  0.00    -0.265 N 
ATOM     36  C   UNL     1      20.049   2.595  47.621  0.00  0.00    +0.007 C 
BRANCH  33  38
ATOM     37  C   UNL     1      16.247   4.275  49.720  0.00  0.00    +0.083 C 
ATOM     38  O   UNL     1      17.295   4.835  48.941  0.00  0.00    -0.454 OA
ENDBRANCH  33  38
ENDBRANCH   1  35
BRANCH   7  39
ATOM     39  O   UNL     1      21.893   4.638  48.615  0.00  0.00    -0.373 OA
ATOM     40  C   UNL     1      21.770   5.710  47.700  0.00  0.00    +0.037 C 
ENDBRANCH   7  39
TORSDOF 3
ENDMDL
MODEL 3
REMARK VINA RESULT:    -9.830      4.037      6.614
REMARK INTER + INTRA:         -11.884
REMARK INTER:                 -11.540
REMARK INTRA:                  -0.344
REMARK UNBOUND:                -0.330
REMARK  Name = 
REMARK  7 active torsions:
REMARK  status: ('A' for Active; 'I' for Inactive)
REMARK    1  A    between atoms: C_1  and  O_2
REMARK    2  A    between atoms: O_2  and  C_3
REMARK    3  A    between atoms: N_5  and  C_6
REMARK    4  A    between atoms: N_5  and  C_7
REMARK    5  A    between atoms: C_11  and  C_12
REMARK    6  A    between atoms: C_13  and  O_14
REMARK    7  A    between atoms: O_14  and  C_15
REMARK                            x       y       z     vdW  Elec       q    Type
REMARK                         _______ _______ _______ _____ _____    ______ ____
ROOT
ATOM      1  C   UNL     1      15.535   3.278  51.302  0.00  0.00    +0.064 C 
ATOM      2  C   UNL     1      16.976   3.567  51.695  0.00  0.00    +0.014 C 
ATOM      3  C   UNL     1      17.902   3.106  50.558  0.00  0.00    +0.140 C 
ATOM      4  O   UNL     1      17.428   2.000  49.806  0.00  0.00    -0.328 OA
ATOM      5  C   UNL     1      16.619   1.057  50.506  0.00  0.00    +0.174 C 
ATOM      6  C   UNL     1      16.196   0.071  49.390  0.00  0.00    -0.014 C 
ATOM      7  C   UNL     1      15.322   1.754  51.103  0.00  0.00    +0.125 C 
ATOM      8  N   UNL     1      17.417   0.309  51.541  0.00  0.00    -0.307 N 
ATOM      9  C   UNL     1      17.106  -0.888  52.144  0.00  0.00    +0.053 A 
ATOM     10  C   UNL     1      15.909  -1.626  52.078  0.00  0.00    -0.037 A 
ATOM     11  C   UNL     1      15.815  -2.842  52.774  0.00  0.00    -0.060 A 
ATOM     12  C   UNL     1      16.901  -3.321  53.526  0.00  0.00    -0.061 A 
ATOM     13  C   UNL     1      18.092  -2.587  53.595  0.00  0.00    -0.052 A 
ATOM     14  C   UNL     1      18.162  -1.379  52.897  0.00  0.00    +0.008 A 
ATOM     15  C   UNL     1      19.179  -0.471  52.781  0.00  0.00    +0.015 A 
ATOM     16  C   UNL     1      20.481  -0.441  53.312  0.00  0.00    -0.008 A 
ATOM     17  C   UNL     1      21.310   0.644  53.037  0.00  0.00    +0.052 A 
ATOM     18  C   UNL     1      20.826   1.714  52.253  0.00  0.00    +0.022 A 
ATOM     19  C   UNL     1      21.310   2.974  51.922  0.00  0.00    +0.008 A 
ATOM     20  C   UNL     1      22.494   3.650  52.235  0.00  0.00    -0.052 A 
ATOM     21  C   UNL     1      22.642   4.975  51.794  0.00  0.00    -0.061 A 
ATOM     22  C   UNL     1      21.613   5.610  51.073  0.00  0.00    -0.060 A 
ATOM     23  C   UNL     1      20.422   4.928  50.784  0.00  0.00    -0.037 A 
ATOM     24  C   UNL     1      20.296   3.602  51.215  0.00  0.00    +0.052 A 
ATOM     25  N   UNL     1      19.220   2.791  51.079  0.00  0.00    -0.311 N 
ATOM     26  C   UNL     1      19.538   1.651  51.715  0.00  0.00    +0.077 A 
ATOM     27  C   UNL     1      18.699   0.548  51.965  0.00  0.00    +0.077 A 
ATOM     28  C   UNL     1      22.571   0.368  53.699  0.00  0.00    +0.245 C 
ATOM     29  O   UNL     1      23.622   1.053  53.635  0.00  0.00    -0.270 OA
ATOM     30  N   UNL     1      22.493  -0.869  54.394  0.00  0.00    -0.307 N 
ATOM     31  C   UNL     1      21.170  -1.449  54.185  0.00  0.00    +0.039 C 
ATOM     32  H   UNL     1      23.216  -1.269  54.931  0.00  0.00    +0.000 HD
ENDROOT
BRANCH   1  35
ATOM     33  C   UNL     1      13.182   4.170  51.870  0.00  0.00    +0.403 C 
ATOM     34  O   UNL     1      12.372   4.572  52.752  0.00  0.00    -0.226 OA
ATOM     35  N   UNL     1      14.559   3.904  52.228  0.00  0.00    -0.265 N 
ATOM     36  C   UNL     1      14.986   4.237  53.594  0.00  0.00    +0.007 C 
BRANCH  33  38
ATOM     37  C   UNL     1      12.627   5.089  49.637  0.00  0.00    +0.083 C 
ATOM     38  O   UNL     1      12.739   4.009  50.553  0.00  0.00    -0.454 OA
ENDBRANCH  33  38
ENDBRANCH   1  35
BRANCH   7  39
ATOM     39  O   UNL     1      14.947   1.138  52.325  0.00  0.00    -0.373 OA
ATOM     40  C   UNL     1      13.606   0.686  52.285  0.00  0.00    +0.037 C 
ENDBRANCH   7  39
TORSDOF 3
ENDMDL
MODEL 4
REMARK VINA RESULT:    -9.482      2.292      3.565
REMARK INTER + INTRA:         -11.475
REMARK INTER:                 -11.184
REMARK INTRA:                  -0.291
REMARK UNBOUND:                -0.330
REMARK  Name = 
REMARK  7 active torsions:
REMARK  status: ('A' for Active; 'I' for Inactive)
REMARK    1  A    between atoms: C_1  and  O_2
REMARK    2  A    between atoms: O_2  and  C_3
REMARK    3  A    between atoms: N_5  and  C_6
REMARK    4  A    between atoms: N_5  and  C_7
REMARK    5  A    between atoms: C_11  and  C_12
REMARK    6  A    between atoms: C_13  and  O_14
REMARK    7  A    between atoms: O_14  and  C_15
REMARK                            x       y       z     vdW  Elec       q    Type
REMARK                         _______ _______ _______ _____ _____    ______ ____
ROOT
ATOM      1  C   UNL     1      23.212   4.055  50.659  0.00  0.00    +0.064 C 
ATOM      2  C   UNL     1      22.817   3.034  51.716  0.00  0.00    +0.014 C 
ATOM      3  C   UNL     1      23.025   1.623  51.142  0.00  0.00    +0.140 C 
ATOM      4  O   UNL     1      22.848   1.510  49.739  0.00  0.00    -0.328 OA
ATOM      5  C   UNL     1      21.905   2.400  49.145  0.00  0.00    +0.174 C 
ATOM      6  C   UNL     1      22.043   2.090  47.635  0.00  0.00    -0.014 C 
ATOM      7  C   UNL     1      22.312   3.914  49.403  0.00  0.00    +0.125 C 
ATOM      8  N   UNL     1      20.500   2.083  49.582  0.00  0.00    -0.307 N 
ATOM      9  C   UNL     1      19.322   2.455  48.975  0.00  0.00    +0.053 A 
ATOM     10  C   UNL     1      19.124   3.350  47.907  0.00  0.00    -0.037 A 
ATOM     11  C   UNL     1      17.821   3.576  47.435  0.00  0.00    -0.060 A 
ATOM     12  C   UNL     1      16.726   2.915  48.017  0.00  0.00    -0.061 A 
ATOM     13  C   UNL     1      16.921   2.027  49.081  0.00  0.00    -0.052 A 
ATOM     14  C   UNL     1      18.225   1.820  49.536  0.00  0.00    +0.008 A 
ATOM     15  C   UNL     1      18.708   1.020  50.537  0.00  0.00    +0.015 A 
ATOM     16  C   UNL     1      18.070   0.146  51.435  0.00  0.00    -0.008 A 
ATOM     17  C   UNL     1      18.828  -0.539  52.382  0.00  0.00    +0.052 A 
ATOM     18  C   UNL     1      20.222  -0.326  52.450  0.00  0.00    +0.022 A 
ATOM     19  C   UNL     1      21.223  -0.710  53.334  0.00  0.00    +0.008 A 
ATOM     20  C   UNL     1      21.217  -1.487  54.497  0.00  0.00    -0.052 A 
ATOM     21  C   UNL     1      22.416  -1.622  55.216  0.00  0.00    -0.061 A 
ATOM     22  C   UNL     1      23.588  -0.973  54.783  0.00  0.00    -0.060 A 
ATOM     23  C   UNL     1      23.575  -0.180  53.626  0.00  0.00    -0.037 A 
ATOM     24  C   UNL     1      22.377  -0.069  52.910  0.00  0.00    +0.052 A 
ATOM     25  N   UNL     1      22.144   0.678  51.805  0.00  0.00    -0.311 N 
ATOM     26  C   UNL     1      20.838   0.528  51.531  0.00  0.00    +0.077 A 
ATOM     27  C   UNL     1      20.086   1.206  50.552  0.00  0.00    +0.077 A 
ATOM     28  C   UNL     1      17.895  -1.362  53.128  0.00  0.00    +0.245 C 
ATOM     29  O   UNL     1      18.177  -2.199  54.021  0.00  0.00    -0.270 OA
ATOM     30  N   UNL     1      16.574  -1.154  52.649  0.00  0.00    -0.307 N 
ATOM     31  C   UNL     1      16.612  -0.193  51.551  0.00  0.00    +0.039 C 
ATOM     32  H   UNL     1      15.764  -1.588  53.002  0.00  0.00    +0.000 HD
ENDROOT
BRANCH   1  35
ATOM     33  C   UNL     1      23.942   6.526  50.522  0.00  0.00    +0.403 C 
ATOM     34  O   UNL     1      23.833   7.702  50.969  0.00  0.00    -0.226 OA
ATOM     35  N   UNL     1      23.275   5.435  51.200  0.00  0.00    -0.265 N 
ATOM     36  C   UNL     1      22.592   5.735  52.467  0.00  0.00    +0.007 C 
BRANCH  33  38
ATOM     37  C   UNL     1      26.108   5.968  49.456  0.00  0.00    +0.083 C 
ATOM     38  O   UNL     1      24.726   6.292  49.388  0.00  0.00    -0.454 OA
ENDBRANCH  33  38
ENDBRANCH   1  35
BRANCH   7  39
ATOM     39  O   UNL     1      21.152   4.724  49.527  0.00  0.00    -0.373 OA
ATOM     40  C   UNL     1      21.156   5.777  48.582  0.00  0.00    +0.037 C 
ENDBRANCH   7  39
TORSDOF 3
ENDMDL
