MODEL 1
REMARK VINA RESULT:    -9.637      0.000      0.000
REMARK INTER + INTRA:         -11.584
REMARK INTER:                 -11.327
REMARK INTRA:                  -0.258
REMARK UNBOUND:                -0.258
REMARK  Name = 
REMARK  5 active torsions:
REMARK  status: ('A' for Active; 'I' for Inactive)
REMARK    1  A    between atoms: C_1  and  O_2
REMARK    2  A    between atoms: O_2  and  C_3
REMARK    3  A    between atoms: C_7  and  N_8
REMARK    4  A    between atoms: C_14  and  C_15
REMARK    5  A    between atoms: N_25  and  C_26
REMARK                            x       y       z     vdW  Elec       q    Type
REMARK                         _______ _______ _______ _____ _____    ______ ____
ROOT
ATOM      1  N   UNL     1      19.530  -0.551  53.625  0.00  0.00    -0.283 N 
ATOM      2  C   UNL     1      20.959  -0.592  53.753  0.00  0.00    +0.221 A 
ATOM      3  N   UNL     1      21.521  -1.291  54.774  0.00  0.00    -0.222 NA
ATOM      4  C   UNL     1      22.868  -1.332  54.941  0.00  0.00    +0.042 A 
ATOM      5  C   UNL     1      23.700  -0.639  54.056  0.00  0.00    +0.037 A 
ATOM      6  C   UNL     1      25.088  -0.666  54.184  0.00  0.00    -0.037 A 
ATOM      7  C   UNL     1      25.881   0.023  53.266  0.00  0.00    +0.050 A 
ATOM      8  C   UNL     1      25.266   0.744  52.224  0.00  0.00    +0.260 A 
ATOM      9  O   UNL     1      25.991   1.337  51.376  0.00  0.00    -0.267 OA
ATOM     10  N   UNL     1      23.896   0.795  52.125  0.00  0.00    -0.295 N 
ATOM     11  C   UNL     1      23.261   1.534  51.018  0.00  0.00    +0.017 C 
ATOM     12  C   UNL     1      23.111   0.097  53.011  0.00  0.00    +0.148 A 
ATOM     13  N   UNL     1      21.755   0.100  52.894  0.00  0.00    -0.196 NA
ATOM     14  H   UNL     1      18.990  -0.920  54.360  0.00  0.00    +0.000 HD
ENDROOT
BRANCH   7  15
ATOM     15  C   UNL     1      27.355  -0.024  53.397  0.00  0.00    +0.024 A 
ATOM     16  C   UNL     1      28.069   1.113  53.830  0.00  0.00    +0.050 A 
ATOM     17 CL   UNL     1      27.245   2.613  54.250  0.00  0.00    -0.083 Cl
ATOM     18  C   UNL     1      29.462   1.060  53.953  0.00  0.00    -0.043 A 
ATOM     19  C   UNL     1      30.151  -0.116  53.651  0.00  0.00    -0.059 A 
ATOM     20  C   UNL     1      29.453  -1.246  53.224  0.00  0.00    -0.043 A 
ATOM     21  C   UNL     1      28.060  -1.209  53.096  0.00  0.00    +0.050 A 
ATOM     22 CL   UNL     1      27.229  -2.656  52.532  0.00  0.00    -0.083 Cl
ENDBRANCH   7  15
BRANCH   1  27
ATOM     23  C   UNL     1      18.468   1.871  50.967  0.00  0.00    +0.122 A 
ATOM     24  C   UNL     1      17.480   1.129  50.310  0.00  0.00    -0.020 A 
ATOM     25  C   UNL     1      17.157  -0.159  50.742  0.00  0.00    -0.057 A 
ATOM     26  C   UNL     1      17.826  -0.721  51.832  0.00  0.00    -0.040 A 
ATOM     27  C   UNL     1      18.839  -0.002  52.489  0.00  0.00    +0.037 A 
ATOM     28  C   UNL     1      19.141   1.302  52.065  0.00  0.00    +0.001 A 
BRANCH  23  30
ATOM     29  C   UNL     1      19.765   4.009  51.031  0.00  0.00    +0.079 C 
ATOM     30  O   UNL     1      18.748   3.165  50.499  0.00  0.00    -0.495 OA
ENDBRANCH  23  30
ENDBRANCH   1  27
TORSDOF 3
ENDMDL
MODEL 2
REMARK VINA RESULT:    -9.635      0.037      1.712
REMARK INTER + INTRA:         -11.583
REMARK INTER:                 -11.297
REMARK INTRA:                  -0.286
REMARK UNBOUND:                -0.258
REMARK  Name = 
REMARK  5 active torsions:
REMARK  status: ('A' for Active; 'I' for Inactive)
REMARK    1  A    between atoms: C_1  and  O_2
REMARK    2  A    between atoms: O_2  and  C_3
REMARK    3  A    between atoms: C_7  and  N_8
REMARK    4  A    between atoms: C_14  and  C_15
REMARK    5  A    between atoms: N_25  and  C_26
REMARK                            x       y       z     vdW  Elec       q    Type
REMARK                         _______ _______ _______ _____ _____    ______ ____
ROOT
ATOM      1  N   UNL     1      19.519  -0.527  53.588  0.00  0.00    -0.283 N 
ATOM      2  C   UNL     1      20.947  -0.571  53.727  0.00  0.00    +0.221 A 
ATOM      3  N   UNL     1      21.499  -1.266  54.756  0.00  0.00    -0.222 NA
ATOM      4  C   UNL     1      22.844  -1.309  54.934  0.00  0.00    +0.042 A 
ATOM      5  C   UNL     1      23.685  -0.623  54.051  0.00  0.00    +0.037 A 
ATOM      6  C   UNL     1      25.072  -0.654  54.190  0.00  0.00    -0.037 A 
ATOM      7  C   UNL     1      25.874   0.028  53.274  0.00  0.00    +0.050 A 
ATOM      8  C   UNL     1      25.269   0.746  52.224  0.00  0.00    +0.260 A 
ATOM      9  O   UNL     1      26.001   1.333  51.379  0.00  0.00    -0.267 OA
ATOM     10  N   UNL     1      23.899   0.800  52.114  0.00  0.00    -0.295 N 
ATOM     11  C   UNL     1      23.275   1.535  50.999  0.00  0.00    +0.017 C 
ATOM     12  C   UNL     1      23.106   0.108  52.998  0.00  0.00    +0.148 A 
ATOM     13  N   UNL     1      21.751   0.115  52.870  0.00  0.00    -0.196 NA
ATOM     14  H   UNL     1      18.972  -0.891  54.321  0.00  0.00    +0.000 HD
ENDROOT
BRANCH   7  15
ATOM     15  C   UNL     1      27.346  -0.021  53.417  0.00  0.00    +0.024 A 
ATOM     16  C   UNL     1      28.053  -1.203  53.109  0.00  0.00    +0.050 A 
ATOM     17 CL   UNL     1      27.226  -2.646  52.527  0.00  0.00    -0.083 Cl
ATOM     18  C   UNL     1      29.445  -1.241  53.244  0.00  0.00    -0.043 A 
ATOM     19  C   UNL     1      30.141  -0.113  53.682  0.00  0.00    -0.059 A 
ATOM     20  C   UNL     1      29.451   1.061  53.986  0.00  0.00    -0.043 A 
ATOM     21  C   UNL     1      28.058   1.115  53.856  0.00  0.00    +0.050 A 
ATOM     22 CL   UNL     1      27.233   2.614  54.274  0.00  0.00    -0.083 Cl
ENDBRANCH   7  15
BRANCH   1  27
ATOM     23  C   UNL     1      18.473   1.889  50.917  0.00  0.00    +0.122 A 
ATOM     24  C   UNL     1      17.498   1.141  50.249  0.00  0.00    -0.020 A 
ATOM     25  C   UNL     1      17.177  -0.149  50.677  0.00  0.00    -0.057 A 
ATOM     26  C   UNL     1      17.836  -0.707  51.775  0.00  0.00    -0.040 A 
ATOM     27  C   UNL     1      18.838   0.018  52.444  0.00  0.00    +0.037 A 
ATOM     28  C   UNL     1      19.137   1.324  52.023  0.00  0.00    +0.001 A 
BRANCH  23  30
ATOM     29  C   UNL     1      19.763   4.031  50.990  0.00  0.00    +0.079 C 
ATOM     30  O   UNL     1      18.751   3.184  50.453  0.00  0.00    -0.495 OA
ENDBRANCH  23  30
ENDBRANCH   1  27
TORSDOF 3
ENDMDL
MODEL 3
REMARK VINA RESULT:    -9.390      1.175      1.955
REMARK INTER + INTRA:         -11.294
REMARK INTER:                 -11.367
REMARK INTRA:                   0.072
REMARK UNBOUND:                -0.258
REMARK  Name = 
REMARK  5 active torsions:
REMARK  status: ('A' for Active; 'I' for Inactive)
REMARK    1  A    between atoms: C_1  and  O_2
REMARK    2  A    between atoms: O_2  and  C_3
REMARK    3  A    between atoms: C_7  and  N_8
REMARK    4  A    between atoms: C_14  and  C_15
REMARK    5  A    between atoms: N_25  and  C_26
REMARK                            x       y       z     vdW  Elec       q    Type
REMARK                         _______ _______ _______ _____ _____    ______ ____
ROOT
ATOM      1  N   UNL     1      19.413  -0.789  53.622  0.00  0.00    -0.283 N 
ATOM      2  C   UNL     1      20.842  -0.781  53.752  0.00  0.00    +0.221 A 
ATOM      3  N   UNL     1      21.425  -1.439  54.787  0.00  0.00    -0.222 NA
ATOM      4  C   UNL     1      22.772  -1.433  54.956  0.00  0.00    +0.042 A 
ATOM      5  C   UNL     1      23.583  -0.733  54.056  0.00  0.00    +0.037 A 
ATOM      6  C   UNL     1      24.971  -0.713  54.184  0.00  0.00    -0.037 A 
ATOM      7  C   UNL     1      25.742  -0.019  53.252  0.00  0.00    +0.050 A 
ATOM      8  C   UNL     1      25.105   0.659  52.195  0.00  0.00    +0.260 A 
ATOM      9  O   UNL     1      25.811   1.257  51.334  0.00  0.00    -0.267 OA
ATOM     10  N   UNL     1      23.734   0.664  52.094  0.00  0.00    -0.295 N 
ATOM     11  C   UNL     1      23.077   1.359  50.971  0.00  0.00    +0.017 C 
ATOM     12  C   UNL     1      22.971  -0.039  52.994  0.00  0.00    +0.148 A 
ATOM     13  N   UNL     1      21.616  -0.082  52.877  0.00  0.00    -0.196 NA
ATOM     14  H   UNL     1      18.884  -1.159  54.365  0.00  0.00    +0.000 HD
ENDROOT
BRANCH   7  15
ATOM     15  C   UNL     1      27.216  -0.015  53.384  0.00  0.00    +0.024 A 
ATOM     16  C   UNL     1      27.890   1.147  53.816  0.00  0.00    +0.050 A 
ATOM     17 CL   UNL     1      27.016   2.618  54.234  0.00  0.00    -0.083 Cl
ATOM     18  C   UNL     1      29.285   1.141  53.941  0.00  0.00    -0.043 A 
ATOM     19  C   UNL     1      30.013  -0.011  53.641  0.00  0.00    -0.059 A 
ATOM     20  C   UNL     1      29.355  -1.165  53.214  0.00  0.00    -0.043 A 
ATOM     21  C   UNL     1      27.961  -1.176  53.085  0.00  0.00    +0.050 A 
ATOM     22 CL   UNL     1      27.181  -2.651  52.523  0.00  0.00    -0.083 Cl
ENDBRANCH   7  15
BRANCH   1  27
ATOM     23  C   UNL     1      16.706  -0.309  51.071  0.00  0.00    +0.122 A 
ATOM     24  C   UNL     1      17.307   0.624  50.219  0.00  0.00    -0.020 A 
ATOM     25  C   UNL     1      18.599   1.088  50.473  0.00  0.00    -0.057 A 
ATOM     26  C   UNL     1      19.301   0.629  51.591  0.00  0.00    -0.040 A 
ATOM     27  C   UNL     1      18.705  -0.287  52.474  0.00  0.00    +0.037 A 
ATOM     28  C   UNL     1      17.415  -0.769  52.198  0.00  0.00    +0.001 A 
BRANCH  23  30
ATOM     29  C   UNL     1      14.927  -2.066  51.021  0.00  0.00    +0.079 C 
ATOM     30  O   UNL     1      15.409  -0.751  50.766  0.00  0.00    -0.495 OA
ENDBRANCH  23  30
ENDBRANCH   1  27
TORSDOF 3
ENDMDL
MODEL 4
REMARK VINA RESULT:    -8.926      1.506      2.852
REMARK INTER + INTRA:         -10.749
REMARK INTER:                 -10.520
REMARK INTRA:                  -0.230
REMARK UNBOUND:                -0.258
REMARK  Name = 
REMARK  5 active torsions:
REMARK  status: ('A' for Active; 'I' for Inactive)
REMARK    1  A    between atoms: C_1  and  O_2
REMARK    2  A    between atoms: O_2  and  C_3
REMARK    3  A    between atoms: C_7  and  N_8
REMARK    4  A    between atoms: C_14  and  C_15
REMARK    5  A    between atoms: N_25  and  C_26
REMARK                            x       y       z     vdW  Elec       q    Type
REMARK                         _______ _______ _______ _____ _____    ______ ____
ROOT
ATOM      1  N   UNL     1      19.882   1.798  52.501  0.00  0.00    -0.283 N 
ATOM      2  C   UNL     1      21.207   1.316  52.768  0.00  0.00    +0.221 A 
ATOM      3  N   UNL     1      21.405   0.418  53.768  0.00  0.00    -0.222 NA
ATOM      4  C   UNL     1      22.647  -0.042  54.066  0.00  0.00    +0.042 A 
ATOM      5  C   UNL     1      23.752   0.419  53.341  0.00  0.00    +0.037 A 
ATOM      6  C   UNL     1      25.042  -0.038  53.604  0.00  0.00    -0.037 A 
ATOM      7  C   UNL     1      26.112   0.433  52.842  0.00  0.00    +0.050 A 
ATOM      8  C   UNL     1      25.873   1.370  51.819  0.00  0.00    +0.260 A 
ATOM      9  O   UNL     1      26.840   1.766  51.110  0.00  0.00    -0.267 OA
ATOM     10  N   UNL     1      24.602   1.842  51.587  0.00  0.00    -0.295 N 
ATOM     11  C   UNL     1      24.358   2.806  50.499  0.00  0.00    +0.017 C 
ATOM     12  C   UNL     1      23.542   1.362  52.317  0.00  0.00    +0.148 A 
ATOM     13  N   UNL     1      22.273   1.785  52.065  0.00  0.00    -0.196 NA
ATOM     14  H   UNL     1      19.169   1.566  53.138  0.00  0.00    +0.000 HD
ENDROOT
BRANCH   7  15
ATOM     15  C   UNL     1      27.477  -0.068  53.116  0.00  0.00    +0.024 A 
ATOM     16  C   UNL     1      27.813  -1.411  52.840  0.00  0.00    +0.050 A 
ATOM     17 CL   UNL     1      26.643  -2.528  52.144  0.00  0.00    -0.083 Cl
ATOM     18  C   UNL     1      29.108  -1.876  53.100  0.00  0.00    -0.043 A 
ATOM     19  C   UNL     1      30.071  -1.016  53.631  0.00  0.00    -0.059 A 
ATOM     20  C   UNL     1      29.748   0.313  53.906  0.00  0.00    -0.043 A 
ATOM     21  C   UNL     1      28.458   0.794  53.651  0.00  0.00    +0.050 A 
ATOM     22 CL   UNL     1      28.097   2.473  54.036  0.00  0.00    -0.083 Cl
ENDBRANCH   7  15
BRANCH   1  27
ATOM     23  C   UNL     1      18.383   2.803  49.214  0.00  0.00    +0.122 A 
ATOM     24  C   UNL     1      18.865   4.111  49.091  0.00  0.00    -0.020 A 
ATOM     25  C   UNL     1      19.685   4.660  50.078  0.00  0.00    -0.057 A 
ATOM     26  C   UNL     1      20.026   3.907  51.205  0.00  0.00    -0.040 A 
ATOM     27  C   UNL     1      19.532   2.600  51.360  0.00  0.00    +0.037 A 
ATOM     28  C   UNL     1      18.727   2.047  50.351  0.00  0.00    +0.001 A 
BRANCH  23  30
ATOM     29  C   UNL     1      16.204   2.651  47.994  0.00  0.00    +0.079 C 
ATOM     30  O   UNL     1      17.570   2.295  48.189  0.00  0.00    -0.495 OA
ENDBRANCH  23  30
ENDBRANCH   1  27
TORSDOF 3
ENDMDL
MODEL 5
REMARK VINA RESULT:    -8.729      3.970      8.284
REMARK INTER + INTRA:         -10.517
REMARK INTER:                  -9.636
REMARK INTRA:                  -0.881
REMARK UNBOUND:                -0.258
REMARK  Name = 
REMARK  5 active torsions:
REMARK  status: ('A' for Active; 'I' for Inactive)
REMARK    1  A    between atoms: C_1  and  O_2
REMARK    2  A    between atoms: O_2  and  C_3
REMARK    3  A    between atoms: C_7  and  N_8
REMARK    4  A    between atoms: C_14  and  C_15
REMARK    5  A    between atoms: N_25  and  C_26
REMARK                            x       y       z     vdW  Elec       q    Type
REMARK                         _______ _______ _______ _____ _____    ______ ____
ROOT
ATOM      1  N   UNL     1      24.430  -0.089  53.270  0.00  0.00    -0.283 N 
ATOM      2  C   UNL     1      23.962   1.073  52.570  0.00  0.00    +0.221 A 
ATOM      3  N   UNL     1      22.675   1.478  52.727  0.00  0.00    -0.222 NA
ATOM      4  C   UNL     1      22.191   2.558  52.062  0.00  0.00    +0.042 A 
ATOM      5  C   UNL     1      23.022   3.268  51.190  0.00  0.00    +0.037 A 
ATOM      6  C   UNL     1      22.569   4.391  50.498  0.00  0.00    -0.037 A 
ATOM      7  C   UNL     1      23.439   5.082  49.654  0.00  0.00    +0.050 A 
ATOM      8  C   UNL     1      24.764   4.630  49.507  0.00  0.00    +0.260 A 
ATOM      9  O   UNL     1      25.557   5.280  48.768  0.00  0.00    -0.267 OA
ATOM     10  N   UNL     1      25.195   3.502  50.166  0.00  0.00    -0.295 N 
ATOM     11  C   UNL     1      26.591   3.049  50.023  0.00  0.00    +0.017 C 
ATOM     12  C   UNL     1      24.350   2.834  51.018  0.00  0.00    +0.148 A 
ATOM     13  N   UNL     1      24.779   1.744  51.713  0.00  0.00    -0.196 NA
ATOM     14  H   UNL     1      23.767  -0.641  53.743  0.00  0.00    +0.000 HD
ENDROOT
BRANCH   7  15
ATOM     15  C   UNL     1      22.956   6.282  48.936  0.00  0.00    +0.024 A 
ATOM     16  C   UNL     1      23.124   7.565  49.498  0.00  0.00    +0.050 A 
ATOM     17 CL   UNL     1      23.926   7.793  51.049  0.00  0.00    -0.083 Cl
ATOM     18  C   UNL     1      22.667   8.696  48.810  0.00  0.00    -0.043 A 
ATOM     19  C   UNL     1      22.046   8.560  47.568  0.00  0.00    -0.059 A 
ATOM     20  C   UNL     1      21.877   7.295  47.003  0.00  0.00    -0.043 A 
ATOM     21  C   UNL     1      22.329   6.155  47.677  0.00  0.00    +0.050 A 
ATOM     22 CL   UNL     1      22.072   4.581  46.932  0.00  0.00    -0.083 Cl
ENDBRANCH   7  15
BRANCH   1  27
ATOM     23  C   UNL     1      28.085  -0.095  54.112  0.00  0.00    +0.122 A 
ATOM     24  C   UNL     1      28.517  -1.227  53.412  0.00  0.00    -0.020 A 
ATOM     25  C   UNL     1      27.615  -1.981  52.659  0.00  0.00    -0.057 A 
ATOM     26  C   UNL     1      26.268  -1.615  52.605  0.00  0.00    -0.040 A 
ATOM     27  C   UNL     1      25.808  -0.497  53.323  0.00  0.00    +0.037 A 
ATOM     28  C   UNL     1      26.726   0.271  54.058  0.00  0.00    +0.001 A 
BRANCH  23  30
ATOM     29  C   UNL     1      29.460   1.954  54.521  0.00  0.00    +0.079 C 
ATOM     30  O   UNL     1      29.032   0.635  54.847  0.00  0.00    -0.495 OA
ENDBRANCH  23  30
ENDBRANCH   1  27
TORSDOF 3
ENDMDL
MODEL 6
REMARK VINA RESULT:    -8.677      1.875      3.594
REMARK INTER + INTRA:         -10.457
REMARK INTER:                 -10.575
REMARK INTRA:                   0.118
REMARK UNBOUND:                -0.258
REMARK  Name = 
REMARK  5 active torsions:
REMARK  status: ('A' for Active; 'I' for Inactive)
REMARK    1  A    between atoms: C_1  and  O_2
REMARK    2  A    between atoms: O_2  and  C_3
REMARK    3  A    between atoms: C_7  and  N_8
REMARK    4  A    between atoms: C_14  and  C_15
REMARK    5  A    between atoms: N_25  and  C_26
REMARK                            x       y       z     vdW  Elec       q    Type
REMARK                         _______ _______ _______ _____ _____    ______ ____
ROOT
ATOM      1  N   UNL     1      21.649   3.813  49.474  0.00  0.00    -0.283 N 
ATOM      2  C   UNL     1      22.871   3.242  49.967  0.00  0.00    +0.221 A 
ATOM      3  N   UNL     1      24.049   3.560  49.370  0.00  0.00    -0.222 NA
ATOM      4  C   UNL     1      25.221   3.021  49.793  0.00  0.00    +0.042 A 
ATOM      5  C   UNL     1      25.225   2.115  50.859  0.00  0.00    +0.037 A 
ATOM      6  C   UNL     1      26.407   1.550  51.334  0.00  0.00    -0.037 A 
ATOM      7  C   UNL     1      26.366   0.666  52.413  0.00  0.00    +0.050 A 
ATOM      8  C   UNL     1      25.128   0.352  53.004  0.00  0.00    +0.260 A 
ATOM      9  O   UNL     1      25.101  -0.422  54.002  0.00  0.00    -0.267 OA
ATOM     10  N   UNL     1      23.962   0.886  52.508  0.00  0.00    -0.295 N 
ATOM     11  C   UNL     1      22.672   0.568  53.147  0.00  0.00    +0.017 C 
ATOM     12  C   UNL     1      23.999   1.777  51.463  0.00  0.00    +0.148 A 
ATOM     13  N   UNL     1      22.856   2.350  50.994  0.00  0.00    -0.196 NA
ATOM     14  H   UNL     1      21.683   4.316  48.628  0.00  0.00    +0.000 HD
ENDROOT
BRANCH   7  15
ATOM     15  C   UNL     1      27.627   0.082  52.923  0.00  0.00    +0.024 A 
ATOM     16  C   UNL     1      28.595   0.903  53.540  0.00  0.00    +0.050 A 
ATOM     17 CL   UNL     1      28.338   2.633  53.747  0.00  0.00    -0.083 Cl
ATOM     18  C   UNL     1      29.783   0.342  54.022  0.00  0.00    -0.043 A 
ATOM     19  C   UNL     1      30.016  -1.028  53.897  0.00  0.00    -0.059 A 
ATOM     20  C   UNL     1      29.064  -1.848  53.291  0.00  0.00    -0.043 A 
ATOM     21  C   UNL     1      27.870  -1.303  52.804  0.00  0.00    +0.050 A 
ATOM     22 CL   UNL     1      26.711  -2.377  52.028  0.00  0.00    -0.083 Cl
ENDBRANCH   7  15
BRANCH   1  27
ATOM     23  C   UNL     1      18.781   2.321  51.374  0.00  0.00    +0.122 A 
ATOM     24  C   UNL     1      17.890   3.399  51.399  0.00  0.00    -0.020 A 
ATOM     25  C   UNL     1      18.223   4.609  50.788  0.00  0.00    -0.057 A 
ATOM     26  C   UNL     1      19.458   4.756  50.151  0.00  0.00    -0.040 A 
ATOM     27  C   UNL     1      20.379   3.694  50.137  0.00  0.00    +0.037 A 
ATOM     28  C   UNL     1      20.026   2.472  50.732  0.00  0.00    +0.001 A 
BRANCH  23  30
ATOM     29  C   UNL     1      19.139  -0.089  51.938  0.00  0.00    +0.079 C 
ATOM     30  O   UNL     1      18.394   1.123  51.994  0.00  0.00    -0.495 OA
ENDBRANCH  23  30
ENDBRANCH   1  27
TORSDOF 3
ENDMDL
MODEL 7
REMARK VINA RESULT:    -8.439      4.865      7.527
REMARK INTER + INTRA:         -10.177
REMARK INTER:                  -9.258
REMARK INTRA:                  -0.919
REMARK UNBOUND:                -0.258
REMARK  Name = 
REMARK  5 active torsions:
REMARK  status: ('A' for Active; 'I' for Inactive)
REMARK    1  A    between atoms: C_1  and  O_2
REMARK    2  A    between atoms: O_2  and  C_3
REMARK    3  A    between atoms: C_7  and  N_8
REMARK    4  A    between atoms: C_14  and  C_15
REMARK    5  A    between atoms: N_25  and  C_26
REMARK                            x       y       z     vdW  Elec       q    Type
REMARK                         _______ _______ _______ _____ _____    ______ ____
ROOT
ATOM      1  N   UNL     1      21.616   0.340  50.603  0.00  0.00    -0.283 N 
ATOM      2  C   UNL     1      22.058   1.590  50.053  0.00  0.00    +0.221 A 
ATOM      3  N   UNL     1      21.961   1.806  48.715  0.00  0.00    -0.222 NA
ATOM      4  C   UNL     1      22.392   2.966  48.156  0.00  0.00    +0.042 A 
ATOM      5  C   UNL     1      22.955   3.960  48.964  0.00  0.00    +0.037 A 
ATOM      6  C   UNL     1      23.397   5.170  48.432  0.00  0.00    -0.037 A 
ATOM      7  C   UNL     1      23.933   6.142  49.277  0.00  0.00    +0.050 A 
ATOM      8  C   UNL     1      24.027   5.883  50.658  0.00  0.00    +0.260 A 
ATOM      9  O   UNL     1      24.482   6.780  51.423  0.00  0.00    -0.267 OA
ATOM     10  N   UNL     1      23.621   4.673  51.171  0.00  0.00    -0.295 N 
ATOM     11  C   UNL     1      23.704   4.419  52.620  0.00  0.00    +0.017 C 
ATOM     12  C   UNL     1      23.068   3.723  50.347  0.00  0.00    +0.148 A 
ATOM     13  N   UNL     1      22.618   2.541  50.849  0.00  0.00    -0.196 NA
ATOM     14  H   UNL     1      21.377  -0.381  49.977  0.00  0.00    +0.000 HD
ENDROOT
BRANCH   7  15
ATOM     15  C   UNL     1      24.385   7.432  48.710  0.00  0.00    +0.024 A 
ATOM     16  C   UNL     1      25.718   7.593  48.276  0.00  0.00    +0.050 A 
ATOM     17 CL   UNL     1      26.882   6.274  48.370  0.00  0.00    -0.083 Cl
ATOM     18  C   UNL     1      26.137   8.815  47.738  0.00  0.00    -0.043 A 
ATOM     19  C   UNL     1      25.240   9.879  47.626  0.00  0.00    -0.059 A 
ATOM     20  C   UNL     1      23.919   9.728  48.050  0.00  0.00    -0.043 A 
ATOM     21  C   UNL     1      23.485   8.513  48.590  0.00  0.00    +0.050 A 
ATOM     22 CL   UNL     1      21.814   8.382  49.130  0.00  0.00    -0.083 Cl
ENDBRANCH   7  15
BRANCH   1  27
ATOM     23  C   UNL     1      22.539  -0.659  54.098  0.00  0.00    +0.122 A 
ATOM     24  C   UNL     1      21.312  -0.501  54.752  0.00  0.00    -0.020 A 
ATOM     25  C   UNL     1      20.183  -0.078  54.048  0.00  0.00    -0.057 A 
ATOM     26  C   UNL     1      20.272   0.202  52.683  0.00  0.00    -0.040 A 
ATOM     27  C   UNL     1      21.501   0.076  52.012  0.00  0.00    +0.037 A 
ATOM     28  C   UNL     1      22.626  -0.375  52.721  0.00  0.00    +0.001 A 
BRANCH  23  30
ATOM     29  C   UNL     1      24.987  -0.696  54.610  0.00  0.00    +0.079 C 
ATOM     30  O   UNL     1      23.641  -1.097  54.848  0.00  0.00    -0.495 OA
ENDBRANCH  23  30
ENDBRANCH   1  27
TORSDOF 3
ENDMDL
MODEL 8
REMARK VINA RESULT:    -8.370      6.783      9.612
REMARK INTER + INTRA:         -10.095
REMARK INTER:                  -9.551
REMARK INTRA:                  -0.544
REMARK UNBOUND:                -0.258
REMARK  Name = 
REMARK  5 active torsions:
REMARK  status: ('A' for Active; 'I' for Inactive)
REMARK    1  A    between atoms: C_1  and  O_2
REMARK    2  A    between atoms: O_2  and  C_3
REMARK    3  A    between atoms: C_7  and  N_8
REMARK    4  A    between atoms: C_14  and  C_15
REMARK    5  A    between atoms: N_25  and  C_26
REMARK                            x       y       z     vdW  Elec       q    Type
REMARK                         _______ _______ _______ _____ _____    ______ ____
ROOT
ATOM      1  N   UNL     1      27.912   7.638  47.827  0.00  0.00    -0.283 N 
ATOM      2  C   UNL     1      27.256   6.510  48.425  0.00  0.00    +0.221 A 
ATOM      3  N   UNL     1      27.859   5.293  48.399  0.00  0.00    -0.222 NA
ATOM      4  C   UNL     1      27.258   4.199  48.932  0.00  0.00    +0.042 A 
ATOM      5  C   UNL     1      25.991   4.315  49.515  0.00  0.00    +0.037 A 
ATOM      6  C   UNL     1      25.346   3.220  50.086  0.00  0.00    -0.037 A 
ATOM      7  C   UNL     1      24.092   3.386  50.675  0.00  0.00    +0.050 A 
ATOM      8  C   UNL     1      23.492   4.659  50.677  0.00  0.00    +0.260 A 
ATOM      9  O   UNL     1      22.372   4.810  51.242  0.00  0.00    -0.267 OA
ATOM     10  N   UNL     1      24.119   5.728  50.081  0.00  0.00    -0.295 N 
ATOM     11  C   UNL     1      23.493   7.062  50.108  0.00  0.00    +0.017 C 
ATOM     12  C   UNL     1      25.365   5.576  49.524  0.00  0.00    +0.148 A 
ATOM     13  N   UNL     1      26.018   6.636  48.973  0.00  0.00    -0.196 NA
ATOM     14  H   UNL     1      28.723   7.472  47.294  0.00  0.00    +0.000 HD
ENDROOT
BRANCH   7  15
ATOM     15  C   UNL     1      23.418   2.222  51.295  0.00  0.00    +0.024 A 
ATOM     16  C   UNL     1      22.462   1.481  50.569  0.00  0.00    +0.050 A 
ATOM     17 CL   UNL     1      22.051   1.890  48.905  0.00  0.00    -0.083 Cl
ATOM     18  C   UNL     1      21.832   0.381  51.161  0.00  0.00    -0.043 A 
ATOM     19  C   UNL     1      22.146   0.011  52.470  0.00  0.00    -0.059 A 
ATOM     20  C   UNL     1      23.092   0.737  53.195  0.00  0.00    -0.043 A 
ATOM     21  C   UNL     1      23.731   1.839  52.617  0.00  0.00    +0.050 A 
ATOM     22 CL   UNL     1      24.900   2.734  53.582  0.00  0.00    -0.083 Cl
ENDBRANCH   7  15
BRANCH   1  27
ATOM     23  C   UNL     1      27.892  11.295  48.661  0.00  0.00    +0.122 A 
ATOM     24  C   UNL     1      26.594  11.648  48.276  0.00  0.00    -0.020 A 
ATOM     25  C   UNL     1      25.724  10.689  47.753  0.00  0.00    -0.057 A 
ATOM     26  C   UNL     1      26.148   9.367  47.601  0.00  0.00    -0.040 A 
ATOM     27  C   UNL     1      27.457   8.997  47.957  0.00  0.00    +0.037 A 
ATOM     28  C   UNL     1      28.318   9.961  48.506  0.00  0.00    +0.001 A 
BRANCH  23  30
ATOM     29  C   UNL     1      30.136  12.346  49.005  0.00  0.00    +0.079 C 
ATOM     30  O   UNL     1      28.724  12.293  49.190  0.00  0.00    -0.495 OA
ENDBRANCH  23  30
ENDBRANCH   1  27
TORSDOF 3
ENDMDL
MODEL 9
REMARK VINA RESULT:    -8.110      6.545      9.258
REMARK INTER + INTRA:          -9.789
REMARK INTER:                  -9.035
REMARK INTRA:                  -0.755
REMARK UNBOUND:                -0.258
REMARK  Name = 
REMARK  5 active torsions:
REMARK  status: ('A' for Active; 'I' for Inactive)
REMARK    1  A    between atoms: C_1  and  O_2
REMARK    2  A    between atoms: O_2  and  C_3
REMARK    3  A    between atoms: C_7  and  N_8
REMARK    4  A    between atoms: C_14  and  C_15
REMARK    5  A    between atoms: N_25  and  C_26
REMARK                            x       y       z     vdW  Elec       q    Type
REMARK                         _______ _______ _______ _____ _____    ______ ____
ROOT
ATOM      1  N   UNL     1      27.990   7.550  47.854  0.00  0.00    -0.283 N 
ATOM      2  C   UNL     1      27.321   6.435  48.460  0.00  0.00    +0.221 A 
ATOM      3  N   UNL     1      27.884   5.200  48.399  0.00  0.00    -0.222 NA
ATOM      4  C   UNL     1      27.269   4.118  48.939  0.00  0.00    +0.042 A 
ATOM      5  C   UNL     1      26.027   4.264  49.566  0.00  0.00    +0.037 A 
ATOM      6  C   UNL     1      25.368   3.182  50.146  0.00  0.00    -0.037 A 
ATOM      7  C   UNL     1      24.140   3.378  50.779  0.00  0.00    +0.050 A 
ATOM      8  C   UNL     1      23.579   4.669  50.817  0.00  0.00    +0.260 A 
ATOM      9  O   UNL     1      22.484   4.846  51.421  0.00  0.00    -0.267 OA
ATOM     10  N   UNL     1      24.218   5.726  50.213  0.00  0.00    -0.295 N 
ATOM     11  C   UNL     1      23.634   7.078  50.277  0.00  0.00    +0.017 C 
ATOM     12  C   UNL     1      25.440   5.543  49.611  0.00  0.00    +0.148 A 
ATOM     13  N   UNL     1      26.105   6.591  49.052  0.00  0.00    -0.196 NA
ATOM     14  H   UNL     1      28.777   7.367  47.292  0.00  0.00    +0.000 HD
ENDROOT
BRANCH   7  15
ATOM     15  C   UNL     1      23.452   2.227  51.407  0.00  0.00    +0.024 A 
ATOM     16  C   UNL     1      23.783   1.829  52.720  0.00  0.00    +0.050 A 
ATOM     17 CL   UNL     1      24.997   2.687  53.664  0.00  0.00    -0.083 Cl
ATOM     18  C   UNL     1      23.127   0.741  53.307  0.00  0.00    -0.043 A 
ATOM     19  C   UNL     1      22.143   0.047  52.601  0.00  0.00    -0.059 A 
ATOM     20  C   UNL     1      21.808   0.435  51.303  0.00  0.00    -0.043 A 
ATOM     21  C   UNL     1      22.455   1.521  50.701  0.00  0.00    +0.050 A 
ATOM     22 CL   UNL     1      22.010   1.956  49.054  0.00  0.00    -0.083 Cl
ENDBRANCH   7  15
BRANCH   1  27
ATOM     23  C   UNL     1      25.999  10.709  47.504  0.00  0.00    +0.122 A 
ATOM     24  C   UNL     1      26.772  11.596  48.261  0.00  0.00    -0.020 A 
ATOM     25  C   UNL     1      27.947  11.163  48.878  0.00  0.00    -0.057 A 
ATOM     26  C   UNL     1      28.357   9.833  48.750  0.00  0.00    -0.040 A 
ATOM     27  C   UNL     1      27.581   8.920  48.016  0.00  0.00    +0.037 A 
ATOM     28  C   UNL     1      26.414   9.369  47.377  0.00  0.00    +0.001 A 
BRANCH  23  30
ATOM     29  C   UNL     1      23.536  11.145  47.485  0.00  0.00    +0.079 C 
ATOM     30  O   UNL     1      24.831  11.196  46.896  0.00  0.00    -0.495 OA
ENDBRANCH  23  30
ENDBRANCH   1  27
TORSDOF 3
ENDMDL
