MODEL 1
REMARK VINA RESULT:    -8.619      0.000      0.000
REMARK INTER + INTRA:         -12.483
REMARK INTER:                 -11.643
REMARK INTRA:                  -0.840
REMARK UNBOUND:                -0.840
REMARK  Name = 
REMARK  7 active torsions:
REMARK  status: ('A' for Active; 'I' for Inactive)
REMARK    1  A    between atoms: C_1  and  N_2
REMARK    2  A    between atoms: N_2  and  C_3
REMARK    3  A    between atoms: N_2  and  C_7
REMARK    4  A    between atoms: C_3  and  C_4
REMARK    5  A    between atoms: C_7  and  C_8
REMARK    6  A    between atoms: C_17  and  N_18
REMARK    7  A    between atoms: N_18  and  C_19
REMARK                            x       y       z     vdW  Elec       q    Type
REMARK                         _______ _______ _______ _____ _____    ______ ____
ROOT
ATOM      1  C   UNL     1      24.777  -0.565  54.215  0.00  0.00    -0.008 A 
ATOM      2  C   UNL     1      24.755  -1.207  55.449  0.00  0.00    +0.007 A 
ATOM      3  N   UNL     1      23.486  -1.519  55.794  0.00  0.00    -0.360 N 
ATOM      4  C   UNL     1      22.708  -1.086  54.788  0.00  0.00    +0.049 A 
ATOM      5  C   UNL     1      21.324  -1.199  54.687  0.00  0.00    -0.012 A 
ATOM      6  C   UNL     1      20.702  -0.688  53.533  0.00  0.00    +0.078 A 
ATOM      7  N   UNL     1      19.356  -0.794  53.395  0.00  0.00    -0.235 NA
ATOM      8  C   UNL     1      18.725  -0.319  52.292  0.00  0.00    +0.119 A 
ATOM      9  N   UNL     1      19.435   0.278  51.303  0.00  0.00    -0.220 NA
ATOM     10  C   UNL     1      20.787   0.418  51.371  0.00  0.00    +0.134 A 
ATOM     11  C   UNL     1      21.475  -0.068  52.505  0.00  0.00    +0.041 A 
ATOM     12  C   UNL     1      22.882   0.015  52.641  0.00  0.00    -0.040 A 
ATOM     13  C   UNL     1      23.459  -0.499  53.801  0.00  0.00    +0.005 A 
ATOM     14  H   UNL     1      23.191  -1.972  56.618  0.00  0.00    +0.000 HD
ENDROOT
BRANCH  10  15
ATOM     15  N   UNL     1      21.477   1.104  50.312  0.00  0.00    -0.299 N 
ATOM     16  H   UNL     1      21.471   0.701  49.412  0.00  0.00    +0.000 HD
BRANCH  15  17
ATOM     17  C   UNL     1      22.175   2.348  50.497  0.00  0.00    +0.033 A 
ATOM     18  C   UNL     1      21.528   3.478  51.034  0.00  0.00    -0.040 A 
ATOM     19  C   UNL     1      22.221   4.682  51.186  0.00  0.00    -0.059 A 
ATOM     20  C   UNL     1      23.558   4.776  50.795  0.00  0.00    -0.048 A 
ATOM     21  C   UNL     1      24.204   3.666  50.242  0.00  0.00    +0.020 A 
ATOM     22 BR   UNL     1      26.030   3.799  49.697  0.00  0.00    -0.050 Br
ATOM     23  C   UNL     1      23.513   2.459  50.088  0.00  0.00    -0.027 A 
ENDBRANCH  15  17
ENDBRANCH  10  15
BRANCH   1  24
ATOM     24  C   UNL     1      26.002  -0.085  53.490  0.00  0.00    +0.026 C 
BRANCH  24  26
ATOM     25  C   UNL     1      25.557   2.280  53.653  0.00  0.00    -0.012 C 
ATOM     26  N   UNL     1      26.469   1.196  54.062  0.00  0.00    -0.291 N 
ATOM     27  H   UNL     1      26.469   1.124  55.079  0.00  0.00    +0.000 HD
BRANCH  26  28
ATOM     28  C   UNL     1      27.851   1.490  53.623  0.00  0.00    +0.097 C 
BRANCH  28  29
ATOM     29  C   UNL     1      28.806   0.472  54.167  0.00  0.00    +0.319 C 
ATOM     30  O   UNL     1      28.664   0.038  55.342  0.00  0.00    -0.250 OA
ATOM     31  O   UNL     1      29.864   0.022  53.384  0.00  0.00    -0.480 OA
ENDBRANCH  28  29
ENDBRANCH  26  28
ENDBRANCH  24  26
ENDBRANCH   1  24
TORSDOF 6
ENDMDL
MODEL 2
REMARK VINA RESULT:    -8.331      3.017      5.571
REMARK INTER + INTRA:         -12.093
REMARK INTER:                 -11.143
REMARK INTRA:                  -0.950
REMARK UNBOUND:                -0.840
REMARK  Name = 
REMARK  7 active torsions:
REMARK  status: ('A' for Active; 'I' for Inactive)
REMARK    1  A    between atoms: C_1  and  N_2
REMARK    2  A    between atoms: N_2  and  C_3
REMARK    3  A    between atoms: N_2  and  C_7
REMARK    4  A    between atoms: C_3  and  C_4
REMARK    5  A    between atoms: C_7  and  C_8
REMARK    6  A    between atoms: C_17  and  N_18
REMARK    7  A    between atoms: N_18  and  C_19
REMARK                            x       y       z     vdW  Elec       q    Type
REMARK                         _______ _______ _______ _____ _____    ______ ____
ROOT
ATOM      1  C   UNL     1      22.657  -0.951  53.933  0.00  0.00    -0.008 A 
ATOM      2  C   UNL     1      22.686  -1.657  55.132  0.00  0.00    +0.007 A 
ATOM      3  N   UNL     1      23.887  -1.511  55.734  0.00  0.00    -0.360 N 
ATOM      4  C   UNL     1      24.614  -0.717  54.931  0.00  0.00    +0.049 A 
ATOM      5  C   UNL     1      25.917  -0.273  55.143  0.00  0.00    -0.012 A 
ATOM      6  C   UNL     1      26.493   0.572  54.176  0.00  0.00    +0.078 A 
ATOM      7  N   UNL     1      27.755   1.035  54.359  0.00  0.00    -0.235 NA
ATOM      8  C   UNL     1      28.338   1.857  53.451  0.00  0.00    +0.119 A 
ATOM      9  N   UNL     1      27.663   2.229  52.334  0.00  0.00    -0.220 NA
ATOM     10  C   UNL     1      26.393   1.807  52.086  0.00  0.00    +0.134 A 
ATOM     11  C   UNL     1      25.758   0.952  53.013  0.00  0.00    +0.041 A 
ATOM     12  C   UNL     1      24.430   0.489  52.842  0.00  0.00    -0.040 A 
ATOM     13  C   UNL     1      23.898  -0.350  53.820  0.00  0.00    +0.005 A 
ATOM     14  H   UNL     1      24.172  -1.908  56.590  0.00  0.00    +0.000 HD
ENDROOT
BRANCH  10  15
ATOM     15  N   UNL     1      25.749   2.198  50.861  0.00  0.00    -0.299 N 
ATOM     16  H   UNL     1      25.180   1.538  50.401  0.00  0.00    +0.000 HD
BRANCH  15  17
ATOM     17  C   UNL     1      25.893   3.503  50.272  0.00  0.00    +0.033 A 
ATOM     18  C   UNL     1      26.904   3.773  49.330  0.00  0.00    -0.040 A 
ATOM     19  C   UNL     1      27.038   5.055  48.788  0.00  0.00    -0.059 A 
ATOM     20  C   UNL     1      26.176   6.079  49.185  0.00  0.00    -0.048 A 
ATOM     21  C   UNL     1      25.181   5.825  50.135  0.00  0.00    +0.020 A 
ATOM     22 BR   UNL     1      24.009   7.229  50.686  0.00  0.00    -0.050 Br
ATOM     23  C   UNL     1      25.045   4.543  50.681  0.00  0.00    -0.027 A 
ENDBRANCH  15  17
ENDBRANCH  10  15
BRANCH   1  24
ATOM     24  C   UNL     1      21.491  -0.854  52.992  0.00  0.00    +0.026 C 
BRANCH  24  26
ATOM     25  C   UNL     1      20.644   1.374  53.358  0.00  0.00    -0.012 C 
ATOM     26  N   UNL     1      21.396   0.510  52.430  0.00  0.00    -0.291 N 
ATOM     27  H   UNL     1      22.336   0.885  52.310  0.00  0.00    +0.000 HD
BRANCH  26  28
ATOM     28  C   UNL     1      20.740   0.483  51.103  0.00  0.00    +0.097 C 
BRANCH  28  29
ATOM     29  C   UNL     1      21.653   1.037  50.052  0.00  0.00    +0.319 C 
ATOM     30  O   UNL     1      21.448   0.775  48.837  0.00  0.00    -0.250 OA
ATOM     31  O   UNL     1      22.742   1.822  50.419  0.00  0.00    -0.480 OA
ENDBRANCH  28  29
ENDBRANCH  26  28
ENDBRANCH  24  26
ENDBRANCH   1  24
TORSDOF 6
ENDMDL
MODEL 3
REMARK VINA RESULT:    -8.244      2.799      5.819
REMARK INTER + INTRA:         -11.975
REMARK INTER:                 -10.784
REMARK INTRA:                  -1.191
REMARK UNBOUND:                -0.840
REMARK  Name = 
REMARK  7 active torsions:
REMARK  status: ('A' for Active; 'I' for Inactive)
REMARK    1  A    between atoms: C_1  and  N_2
REMARK    2  A    between atoms: N_2  and  C_3
REMARK    3  A    between atoms: N_2  and  C_7
REMARK    4  A    between atoms: C_3  and  C_4
REMARK    5  A    between atoms: C_7  and  C_8
REMARK    6  A    between atoms: C_17  and  N_18
REMARK    7  A    between atoms: N_18  and  C_19
REMARK                            x       y       z     vdW  Elec       q    Type
REMARK                         _______ _______ _______ _____ _____    ______ ____
ROOT
ATOM      1  C   UNL     1      19.917   0.876  50.548  0.00  0.00    -0.008 A 
ATOM      2  C   UNL     1      18.589   0.611  50.865  0.00  0.00    +0.007 A 
ATOM      3  N   UNL     1      18.507  -0.019  52.058  0.00  0.00    -0.360 N 
ATOM      4  C   UNL     1      19.769  -0.151  52.499  0.00  0.00    +0.049 A 
ATOM      5  C   UNL     1      20.186  -0.727  53.695  0.00  0.00    -0.012 A 
ATOM      6  C   UNL     1      21.565  -0.749  53.974  0.00  0.00    +0.078 A 
ATOM      7  N   UNL     1      22.005  -1.290  55.138  0.00  0.00    -0.235 NA
ATOM      8  C   UNL     1      23.327  -1.321  55.441  0.00  0.00    +0.119 A 
ATOM      9  N   UNL     1      24.238  -0.811  54.575  0.00  0.00    -0.220 NA
ATOM     10  C   UNL     1      23.870  -0.250  53.390  0.00  0.00    +0.134 A 
ATOM     11  C   UNL     1      22.502  -0.200  53.046  0.00  0.00    +0.041 A 
ATOM     12  C   UNL     1      22.035   0.389  51.846  0.00  0.00    -0.040 A 
ATOM     13  C   UNL     1      20.662   0.387  51.606  0.00  0.00    +0.005 A 
ATOM     14  H   UNL     1      17.686  -0.322  52.512  0.00  0.00    +0.000 HD
ENDROOT
BRANCH  10  15
ATOM     15  N   UNL     1      24.888   0.229  52.494  0.00  0.00    -0.299 N 
ATOM     16  H   UNL     1      24.675   0.288  51.534  0.00  0.00    +0.000 HD
BRANCH  15  17
ATOM     17  C   UNL     1      26.201   0.629  52.928  0.00  0.00    +0.033 A 
ATOM     18  C   UNL     1      26.502   1.978  53.201  0.00  0.00    -0.040 A 
ATOM     19  C   UNL     1      27.790   2.345  53.600  0.00  0.00    -0.059 A 
ATOM     20  C   UNL     1      28.790   1.378  53.721  0.00  0.00    -0.048 A 
ATOM     21  C   UNL     1      28.506   0.040  53.434  0.00  0.00    +0.020 A 
ATOM     22 BR   UNL     1      29.878  -1.280  53.588  0.00  0.00    -0.050 Br
ATOM     23  C   UNL     1      27.218  -0.332  53.032  0.00  0.00    -0.027 A 
ENDBRANCH  15  17
ENDBRANCH  10  15
BRANCH   1  24
ATOM     24  C   UNL     1      20.409   1.581  49.316  0.00  0.00    +0.026 C 
BRANCH  24  26
ATOM     25  C   UNL     1      19.862   3.900  48.949  0.00  0.00    -0.012 C 
ATOM     26  N   UNL     1      20.781   2.975  49.636  0.00  0.00    -0.291 N 
ATOM     27  H   UNL     1      20.706   3.115  50.643  0.00  0.00    +0.000 HD
BRANCH  26  28
ATOM     28  C   UNL     1      22.181   3.246  49.238  0.00  0.00    +0.097 C 
BRANCH  28  29
ATOM     29  C   UNL     1      23.055   3.390  50.446  0.00  0.00    +0.319 C 
ATOM     30  O   UNL     1      22.711   4.155  51.386  0.00  0.00    -0.250 OA
ATOM     31  O   UNL     1      24.259   2.696  50.519  0.00  0.00    -0.480 OA
ENDBRANCH  28  29
ENDBRANCH  26  28
ENDBRANCH  24  26
ENDBRANCH   1  24
TORSDOF 6
ENDMDL
MODEL 4
REMARK VINA RESULT:    -8.155      3.130      5.699
REMARK INTER + INTRA:         -11.856
REMARK INTER:                 -10.339
REMARK INTRA:                  -1.517
REMARK UNBOUND:                -0.840
REMARK  Name = 
REMARK  7 active torsions:
REMARK  status: ('A' for Active; 'I' for Inactive)
REMARK    1  A    between atoms: C_1  and  N_2
REMARK    2  A    between atoms: N_2  and  C_3
REMARK    3  A    between atoms: N_2  and  C_7
REMARK    4  A    between atoms: C_3  and  C_4
REMARK    5  A    between atoms: C_7  and  C_8
REMARK    6  A    between atoms: C_17  and  N_18
REMARK    7  A    between atoms: N_18  and  C_19
REMARK                            x       y       z     vdW  Elec       q    Type
REMARK                         _______ _______ _______ _____ _____    ______ ____
ROOT
ATOM      1  C   UNL     1      19.239   0.007  52.039  0.00  0.00    -0.008 A 
ATOM      2  C   UNL     1      18.359  -0.746  52.809  0.00  0.00    +0.007 A 
ATOM      3  N   UNL     1      19.021  -1.359  53.816  0.00  0.00    -0.360 N 
ATOM      4  C   UNL     1      20.309  -0.995  53.691  0.00  0.00    +0.049 A 
ATOM      5  C   UNL     1      21.370  -1.366  54.512  0.00  0.00    -0.012 A 
ATOM      6  C   UNL     1      22.647  -0.858  54.212  0.00  0.00    +0.078 A 
ATOM      7  N   UNL     1      23.701  -1.188  55.001  0.00  0.00    -0.235 NA
ATOM      8  C   UNL     1      24.944  -0.710  54.745  0.00  0.00    +0.119 A 
ATOM      9  N   UNL     1      25.155   0.110  53.685  0.00  0.00    -0.220 NA
ATOM     10  C   UNL     1      24.146   0.486  52.853  0.00  0.00    +0.134 A 
ATOM     11  C   UNL     1      22.840   0.007  53.093  0.00  0.00    +0.041 A 
ATOM     12  C   UNL     1      21.731   0.371  52.291  0.00  0.00    -0.040 A 
ATOM     13  C   UNL     1      20.483  -0.158  52.619  0.00  0.00    +0.005 A 
ATOM     14  H   UNL     1      18.637  -1.952  54.501  0.00  0.00    +0.000 HD
ENDROOT
BRANCH  10  15
ATOM     15  N   UNL     1      24.444   1.318  51.718  0.00  0.00    -0.299 N 
ATOM     16  H   UNL     1      24.834   0.896  50.918  0.00  0.00    +0.000 HD
BRANCH  15  17
ATOM     17  C   UNL     1      24.201   2.736  51.691  0.00  0.00    +0.033 A 
ATOM     18  C   UNL     1      23.991   3.466  52.877  0.00  0.00    -0.040 A 
ATOM     19  C   UNL     1      23.735   4.839  52.825  0.00  0.00    -0.059 A 
ATOM     20  C   UNL     1      23.675   5.495  51.593  0.00  0.00    -0.048 A 
ATOM     21  C   UNL     1      23.863   4.776  50.409  0.00  0.00    +0.020 A 
ATOM     22 BR   UNL     1      23.770   5.673  48.725  0.00  0.00    -0.050 Br
ATOM     23  C   UNL     1      24.118   3.401  50.458  0.00  0.00    -0.027 A 
ENDBRANCH  15  17
ENDBRANCH  10  15
BRANCH   1  24
ATOM     24  C   UNL     1      18.876   0.846  50.847  0.00  0.00    +0.026 C 
BRANCH  24  26
ATOM     25  C   UNL     1      17.053   2.375  51.240  0.00  0.00    -0.012 C 
ATOM     26  N   UNL     1      18.518   2.216  51.271  0.00  0.00    -0.291 N 
ATOM     27  H   UNL     1      18.851   2.365  52.223  0.00  0.00    +0.000 HD
BRANCH  26  28
ATOM     28  C   UNL     1      19.166   3.219  50.396  0.00  0.00    +0.097 C 
BRANCH  28  29
ATOM     29  C   UNL     1      20.069   4.111  51.194  0.00  0.00    +0.319 C 
ATOM     30  O   UNL     1      20.402   5.238  50.741  0.00  0.00    -0.250 OA
ATOM     31  O   UNL     1      20.558   3.684  52.424  0.00  0.00    -0.480 OA
ENDBRANCH  28  29
ENDBRANCH  26  28
ENDBRANCH  24  26
ENDBRANCH   1  24
TORSDOF 6
ENDMDL
MODEL 5
REMARK VINA RESULT:    -8.040      2.622      5.061
REMARK INTER + INTRA:         -11.700
REMARK INTER:                 -10.740
REMARK INTRA:                  -0.960
REMARK UNBOUND:                -0.840
REMARK  Name = 
REMARK  7 active torsions:
REMARK  status: ('A' for Active; 'I' for Inactive)
REMARK    1  A    between atoms: C_1  and  N_2
REMARK    2  A    between atoms: N_2  and  C_3
REMARK    3  A    between atoms: N_2  and  C_7
REMARK    4  A    between atoms: C_3  and  C_4
REMARK    5  A    between atoms: C_7  and  C_8
REMARK    6  A    between atoms: C_17  and  N_18
REMARK    7  A    between atoms: N_18  and  C_19
REMARK                            x       y       z     vdW  Elec       q    Type
REMARK                         _______ _______ _______ _____ _____    ______ ____
ROOT
ATOM      1  C   UNL     1      25.823   2.222  52.385  0.00  0.00    -0.008 A 
ATOM      2  C   UNL     1      26.965   2.437  51.620  0.00  0.00    +0.007 A 
ATOM      3  N   UNL     1      26.675   3.205  50.547  0.00  0.00    -0.360 N 
ATOM      4  C   UNL     1      25.362   3.481  50.629  0.00  0.00    +0.049 A 
ATOM      5  C   UNL     1      24.610   4.256  49.751  0.00  0.00    -0.012 A 
ATOM      6  C   UNL     1      23.242   4.434  50.031  0.00  0.00    +0.078 A 
ATOM      7  N   UNL     1      22.483   5.196  49.204  0.00  0.00    -0.235 NA
ATOM      8  C   UNL     1      21.163   5.394  49.449  0.00  0.00    +0.119 A 
ATOM      9  N   UNL     1      20.577   4.824  50.531  0.00  0.00    -0.220 NA
ATOM     10  C   UNL     1      21.276   4.050  51.405  0.00  0.00    +0.134 A 
ATOM     11  C   UNL     1      22.652   3.827  51.180  0.00  0.00    +0.041 A 
ATOM     12  C   UNL     1      23.456   3.056  52.055  0.00  0.00    -0.040 A 
ATOM     13  C   UNL     1      24.805   2.901  51.740  0.00  0.00    +0.005 A 
ATOM     14  H   UNL     1      27.300   3.502  49.845  0.00  0.00    +0.000 HD
ENDROOT
BRANCH  10  15
ATOM     15  N   UNL     1      20.586   3.435  52.507  0.00  0.00    -0.299 N 
ATOM     16  H   UNL     1      20.413   3.977  53.312  0.00  0.00    +0.000 HD
BRANCH  15  17
ATOM     17  C   UNL     1      20.134   2.069  52.495  0.00  0.00    +0.033 A 
ATOM     18  C   UNL     1      19.005   1.678  51.749  0.00  0.00    -0.040 A 
ATOM     19  C   UNL     1      18.572   0.349  51.770  0.00  0.00    -0.059 A 
ATOM     20  C   UNL     1      19.250  -0.598  52.540  0.00  0.00    -0.048 A 
ATOM     21  C   UNL     1      20.360  -0.216  53.299  0.00  0.00    +0.020 A 
ATOM     22 BR   UNL     1      21.280  -1.510  54.362  0.00  0.00    -0.050 Br
ATOM     23  C   UNL     1      20.796   1.114  53.283  0.00  0.00    -0.027 A 
ENDBRANCH  15  17
ENDBRANCH  10  15
BRANCH   1  24
ATOM     24  C   UNL     1      25.749   1.436  53.663  0.00  0.00    +0.026 C 
BRANCH  24  26
ATOM     25  C   UNL     1      25.857  -0.963  53.450  0.00  0.00    -0.012 C 
ATOM     26  N   UNL     1      26.652   0.268  53.602  0.00  0.00    -0.291 N 
ATOM     27  H   UNL     1      27.270   0.369  52.797  0.00  0.00    +0.000 HD
BRANCH  26  28
ATOM     28  C   UNL     1      27.492   0.194  54.818  0.00  0.00    +0.097 C 
BRANCH  28  29
ATOM     29  C   UNL     1      28.932   0.439  54.482  0.00  0.00    +0.319 C 
ATOM     30  O   UNL     1      29.406   1.604  54.549  0.00  0.00    -0.250 OA
ATOM     31  O   UNL     1      29.740  -0.618  54.073  0.00  0.00    -0.480 OA
ENDBRANCH  28  29
ENDBRANCH  26  28
ENDBRANCH  24  26
ENDBRANCH   1  24
TORSDOF 6
ENDMDL
MODEL 6
REMARK VINA RESULT:    -7.886      2.559      3.855
REMARK INTER + INTRA:         -11.492
REMARK INTER:                 -10.947
REMARK INTRA:                  -0.545
REMARK UNBOUND:                -0.840
REMARK  Name = 
REMARK  7 active torsions:
REMARK  status: ('A' for Active; 'I' for Inactive)
REMARK    1  A    between atoms: C_1  and  N_2
REMARK    2  A    between atoms: N_2  and  C_3
REMARK    3  A    between atoms: N_2  and  C_7
REMARK    4  A    between atoms: C_3  and  C_4
REMARK    5  A    between atoms: C_7  and  C_8
REMARK    6  A    between atoms: C_17  and  N_18
REMARK    7  A    between atoms: N_18  and  C_19
REMARK                            x       y       z     vdW  Elec       q    Type
REMARK                         _______ _______ _______ _____ _____    ______ ____
ROOT
ATOM      1  C   UNL     1      24.356   0.405  53.586  0.00  0.00    -0.008 A 
ATOM      2  C   UNL     1      23.527  -0.699  53.750  0.00  0.00    +0.007 A 
ATOM      3  N   UNL     1      22.286  -0.428  53.290  0.00  0.00    -0.360 N 
ATOM      4  C   UNL     1      22.325   0.834  52.832  0.00  0.00    +0.049 A 
ATOM      5  C   UNL     1      21.283   1.549  52.247  0.00  0.00    -0.012 A 
ATOM      6  C   UNL     1      21.542   2.864  51.820  0.00  0.00    +0.078 A 
ATOM      7  N   UNL     1      20.553   3.584  51.232  0.00  0.00    -0.235 NA
ATOM      8  C   UNL     1      20.770   4.852  50.801  0.00  0.00    +0.119 A 
ATOM      9  N   UNL     1      21.989   5.426  50.956  0.00  0.00    -0.220 NA
ATOM     10  C   UNL     1      23.029   4.764  51.533  0.00  0.00    +0.134 A 
ATOM     11  C   UNL     1      22.836   3.442  51.990  0.00  0.00    +0.041 A 
ATOM     12  C   UNL     1      23.872   2.676  52.577  0.00  0.00    -0.040 A 
ATOM     13  C   UNL     1      23.574   1.378  52.992  0.00  0.00    +0.005 A 
ATOM     14  H   UNL     1      21.509  -1.035  53.290  0.00  0.00    +0.000 HD
ENDROOT
BRANCH  10  15
ATOM     15  N   UNL     1      24.283   5.444  51.711  0.00  0.00    -0.299 N 
ATOM     16  H   UNL     1      24.553   5.695  52.625  0.00  0.00    +0.000 HD
BRANCH  15  17
ATOM     17  C   UNL     1      25.165   5.777  50.624  0.00  0.00    +0.033 A 
ATOM     18  C   UNL     1      25.785   4.776  49.852  0.00  0.00    -0.040 A 
ATOM     19  C   UNL     1      26.655   5.123  48.814  0.00  0.00    -0.059 A 
ATOM     20  C   UNL     1      26.923   6.466  48.543  0.00  0.00    -0.048 A 
ATOM     21  C   UNL     1      26.328   7.467  49.317  0.00  0.00    +0.020 A 
ATOM     22 BR   UNL     1      26.705   9.304  48.952  0.00  0.00    -0.050 Br
ATOM     23  C   UNL     1      25.458   7.124  50.357  0.00  0.00    -0.027 A 
ENDBRANCH  15  17
ENDBRANCH  10  15
BRANCH   1  24
ATOM     24  C   UNL     1      25.810   0.483  53.957  0.00  0.00    +0.026 C 
BRANCH  24  26
ATOM     25  C   UNL     1      26.849  -1.195  52.571  0.00  0.00    -0.012 C 
ATOM     26  N   UNL     1      26.657   0.254  52.768  0.00  0.00    -0.291 N 
ATOM     27  H   UNL     1      26.192   0.644  51.949  0.00  0.00    +0.000 HD
BRANCH  26  28
ATOM     28  C   UNL     1      27.964   0.932  52.920  0.00  0.00    +0.097 C 
BRANCH  28  29
ATOM     29  C   UNL     1      28.858   0.157  53.840  0.00  0.00    +0.319 C 
ATOM     30  O   UNL     1      29.774  -0.566  53.368  0.00  0.00    -0.250 OA
ATOM     31  O   UNL     1      28.660   0.220  55.216  0.00  0.00    -0.480 OA
ENDBRANCH  28  29
ENDBRANCH  26  28
ENDBRANCH  24  26
ENDBRANCH   1  24
TORSDOF 6
ENDMDL
MODEL 7
REMARK VINA RESULT:    -7.839      3.288      5.337
REMARK INTER + INTRA:         -11.429
REMARK INTER:                 -10.407
REMARK INTRA:                  -1.022
REMARK UNBOUND:                -0.840
REMARK  Name = 
REMARK  7 active torsions:
REMARK  status: ('A' for Active; 'I' for Inactive)
REMARK    1  A    between atoms: C_1  and  N_2
REMARK    2  A    between atoms: N_2  and  C_3
REMARK    3  A    between atoms: N_2  and  C_7
REMARK    4  A    between atoms: C_3  and  C_4
REMARK    5  A    between atoms: C_7  and  C_8
REMARK    6  A    between atoms: C_17  and  N_18
REMARK    7  A    between atoms: N_18  and  C_19
REMARK                            x       y       z     vdW  Elec       q    Type
REMARK                         _______ _______ _______ _____ _____    ______ ____
ROOT
ATOM      1  C   UNL     1      25.099   2.868  50.965  0.00  0.00    -0.008 A 
ATOM      2  C   UNL     1      26.446   2.522  50.926  0.00  0.00    +0.007 A 
ATOM      3  N   UNL     1      26.687   1.476  51.747  0.00  0.00    -0.360 N 
ATOM      4  C   UNL     1      25.504   1.154  52.298  0.00  0.00    +0.049 A 
ATOM      5  C   UNL     1      25.250   0.125  53.201  0.00  0.00    -0.012 A 
ATOM      6  C   UNL     1      23.928  -0.051  53.648  0.00  0.00    +0.078 A 
ATOM      7  N   UNL     1      23.642  -1.053  54.516  0.00  0.00    -0.235 NA
ATOM      8  C   UNL     1      22.377  -1.257  54.961  0.00  0.00    +0.119 A 
ATOM      9  N   UNL     1      21.369  -0.451  54.543  0.00  0.00    -0.220 NA
ATOM     10  C   UNL     1      21.580   0.572  53.670  0.00  0.00    +0.134 A 
ATOM     11  C   UNL     1      22.885   0.808  53.187  0.00  0.00    +0.041 A 
ATOM     12  C   UNL     1      23.184   1.835  52.258  0.00  0.00    -0.040 A 
ATOM     13  C   UNL     1      24.508   1.979  51.844  0.00  0.00    +0.005 A 
ATOM     14  H   UNL     1      27.554   1.038  51.908  0.00  0.00    +0.000 HD
ENDROOT
BRANCH  10  15
ATOM     15  N   UNL     1      20.478   1.420  53.302  0.00  0.00    -0.299 N 
ATOM     16  H   UNL     1      20.312   2.230  53.839  0.00  0.00    +0.000 HD
BRANCH  15  17
ATOM     17  C   UNL     1      19.606   1.149  52.189  0.00  0.00    +0.033 A 
ATOM     18  C   UNL     1      18.754   0.028  52.185  0.00  0.00    -0.040 A 
ATOM     19  C   UNL     1      17.931  -0.228  51.084  0.00  0.00    -0.059 A 
ATOM     20  C   UNL     1      17.958   0.622  49.975  0.00  0.00    -0.048 A 
ATOM     21  C   UNL     1      18.816   1.726  49.963  0.00  0.00    +0.020 A 
ATOM     22 BR   UNL     1      18.860   2.881  48.441  0.00  0.00    -0.050 Br
ATOM     23  C   UNL     1      19.642   1.984  51.063  0.00  0.00    -0.027 A 
ENDBRANCH  15  17
ENDBRANCH  10  15
BRANCH   1  24
ATOM     24  C   UNL     1      24.444   3.965  50.175  0.00  0.00    +0.026 C 
BRANCH  24  26
ATOM     25  C   UNL     1      24.415   6.164  51.163  0.00  0.00    -0.012 C 
ATOM     26  N   UNL     1      25.194   5.229  50.331  0.00  0.00    -0.291 N 
ATOM     27  H   UNL     1      26.082   5.033  50.791  0.00  0.00    +0.000 HD
BRANCH  26  28
ATOM     28  C   UNL     1      25.484   5.831  49.010  0.00  0.00    +0.097 C 
BRANCH  28  29
ATOM     29  C   UNL     1      26.959   5.840  48.747  0.00  0.00    +0.319 C 
ATOM     30  O   UNL     1      27.572   4.757  48.552  0.00  0.00    -0.250 OA
ATOM     31  O   UNL     1      27.656   7.044  48.740  0.00  0.00    -0.480 OA
ENDBRANCH  28  29
ENDBRANCH  26  28
ENDBRANCH  24  26
ENDBRANCH   1  24
TORSDOF 6
ENDMDL
MODEL 8
REMARK VINA RESULT:    -7.783      4.213      6.846
REMARK INTER + INTRA:         -11.353
REMARK INTER:                 -10.360
REMARK INTRA:                  -0.993
REMARK UNBOUND:                -0.840
REMARK  Name = 
REMARK  7 active torsions:
REMARK  status: ('A' for Active; 'I' for Inactive)
REMARK    1  A    between atoms: C_1  and  N_2
REMARK    2  A    between atoms: N_2  and  C_3
REMARK    3  A    between atoms: N_2  and  C_7
REMARK    4  A    between atoms: C_3  and  C_4
REMARK    5  A    between atoms: C_7  and  C_8
REMARK    6  A    between atoms: C_17  and  N_18
REMARK    7  A    between atoms: N_18  and  C_19
REMARK                            x       y       z     vdW  Elec       q    Type
REMARK                         _______ _______ _______ _____ _____    ______ ____
ROOT
ATOM      1  C   UNL     1      18.917  -0.269  52.222  0.00  0.00    -0.008 A 
ATOM      2  C   UNL     1      18.232  -1.081  53.119  0.00  0.00    +0.007 A 
ATOM      3  N   UNL     1      19.080  -1.579  54.046  0.00  0.00    -0.360 N 
ATOM      4  C   UNL     1      20.293  -1.085  53.746  0.00  0.00    +0.049 A 
ATOM      5  C   UNL     1      21.484  -1.308  54.431  0.00  0.00    -0.012 A 
ATOM      6  C   UNL     1      22.648  -0.678  53.955  0.00  0.00    +0.078 A 
ATOM      7  N   UNL     1      23.823  -0.862  54.608  0.00  0.00    -0.235 NA
ATOM      8  C   UNL     1      24.964  -0.264  54.181  0.00  0.00    +0.119 A 
ATOM      9  N   UNL     1      24.946   0.531  53.082  0.00  0.00    -0.220 NA
ATOM     10  C   UNL     1      23.805   0.764  52.379  0.00  0.00    +0.134 A 
ATOM     11  C   UNL     1      22.600   0.158  52.799  0.00  0.00    +0.041 A 
ATOM     12  C   UNL     1      21.366   0.369  52.139  0.00  0.00    -0.040 A 
ATOM     13  C   UNL     1      20.236  -0.277  52.639  0.00  0.00    +0.005 A 
ATOM     14  H   UNL     1      18.853  -2.183  54.791  0.00  0.00    +0.000 HD
ENDROOT
BRANCH  10  15
ATOM     15  N   UNL     1      23.862   1.578  51.194  0.00  0.00    -0.299 N 
ATOM     16  H   UNL     1      23.829   1.130  50.317  0.00  0.00    +0.000 HD
BRANCH  15  17
ATOM     17  C   UNL     1      23.964   3.013  51.224  0.00  0.00    +0.033 A 
ATOM     18  C   UNL     1      23.220   3.781  52.141  0.00  0.00    -0.040 A 
ATOM     19  C   UNL     1      23.319   5.175  52.137  0.00  0.00    -0.059 A 
ATOM     20  C   UNL     1      24.149   5.817  51.216  0.00  0.00    -0.048 A 
ATOM     21  C   UNL     1      24.877   5.064  50.289  0.00  0.00    +0.020 A 
ATOM     22 BR   UNL     1      26.004   5.944  49.022  0.00  0.00    -0.050 Br
ATOM     23  C   UNL     1      24.779   3.668  50.289  0.00  0.00    -0.027 A 
ENDBRANCH  15  17
ENDBRANCH  10  15
BRANCH   1  24
ATOM     24  C   UNL     1      18.316   0.478  51.067  0.00  0.00    +0.026 C 
BRANCH  24  26
ATOM     25  C   UNL     1      16.466  -0.287  49.722  0.00  0.00    -0.012 C 
ATOM     26  N   UNL     1      16.852   0.275  51.029  0.00  0.00    -0.291 N 
ATOM     27  H   UNL     1      16.589  -0.379  51.765  0.00  0.00    +0.000 HD
BRANCH  26  28
ATOM     28  C   UNL     1      16.141   1.550  51.273  0.00  0.00    +0.097 C 
BRANCH  28  29
ATOM     29  C   UNL     1      15.192   1.413  52.425  0.00  0.00    +0.319 C 
ATOM     30  O   UNL     1      14.972   0.281  52.930  0.00  0.00    -0.250 OA
ATOM     31  O   UNL     1      14.536   2.535  52.921  0.00  0.00    -0.480 OA
ENDBRANCH  28  29
ENDBRANCH  26  28
ENDBRANCH  24  26
ENDBRANCH   1  24
TORSDOF 6
ENDMDL
MODEL 9
REMARK VINA RESULT:    -7.719      1.767      2.112
REMARK INTER + INTRA:         -11.267
REMARK INTER:                 -10.535
REMARK INTRA:                  -0.731
REMARK UNBOUND:                -0.840
REMARK  Name = 
REMARK  7 active torsions:
REMARK  status: ('A' for Active; 'I' for Inactive)
REMARK    1  A    between atoms: C_1  and  N_2
REMARK    2  A    between atoms: N_2  and  C_3
REMARK    3  A    between atoms: N_2  and  C_7
REMARK    4  A    between atoms: C_3  and  C_4
REMARK    5  A    between atoms: C_7  and  C_8
REMARK    6  A    between atoms: C_17  and  N_18
REMARK    7  A    between atoms: N_18  and  C_19
REMARK                            x       y       z     vdW  Elec       q    Type
REMARK                         _______ _______ _______ _____ _____    ______ ____
ROOT
ATOM      1  C   UNL     1      23.444  -0.707  53.943  0.00  0.00    -0.008 A 
ATOM      2  C   UNL     1      22.901  -1.120  55.156  0.00  0.00    +0.007 A 
ATOM      3  N   UNL     1      21.556  -0.998  55.135  0.00  0.00    -0.360 N 
ATOM      4  C   UNL     1      21.243  -0.518  53.919  0.00  0.00    +0.049 A 
ATOM      5  C   UNL     1      19.971  -0.242  53.427  0.00  0.00    -0.012 A 
ATOM      6  C   UNL     1      19.862   0.245  52.111  0.00  0.00    +0.078 A 
ATOM      7  N   UNL     1      18.636   0.510  51.594  0.00  0.00    -0.235 NA
ATOM      8  C   UNL     1      18.495   0.973  50.327  0.00  0.00    +0.119 A 
ATOM      9  N   UNL     1      19.588   1.184  49.551  0.00  0.00    -0.220 NA
ATOM     10  C   UNL     1      20.849   0.937  50.001  0.00  0.00    +0.134 A 
ATOM     11  C   UNL     1      21.029   0.452  51.315  0.00  0.00    +0.041 A 
ATOM     12  C   UNL     1      22.304   0.147  51.850  0.00  0.00    -0.040 A 
ATOM     13  C   UNL     1      22.369  -0.329  53.159  0.00  0.00    +0.005 A 
ATOM     14  H   UNL     1      20.930  -1.217  55.864  0.00  0.00    +0.000 HD
ENDROOT
BRANCH  10  15
ATOM     15  N   UNL     1      21.969   1.226  49.147  0.00  0.00    -0.299 N 
ATOM     16  H   UNL     1      22.332   0.499  48.590  0.00  0.00    +0.000 HD
BRANCH  15  17
ATOM     17  C   UNL     1      22.588   2.523  49.064  0.00  0.00    +0.033 A 
ATOM     18  C   UNL     1      23.678   2.868  49.886  0.00  0.00    -0.040 A 
ATOM     19  C   UNL     1      24.249   4.141  49.803  0.00  0.00    -0.059 A 
ATOM     20  C   UNL     1      23.734   5.084  48.911  0.00  0.00    -0.048 A 
ATOM     21  C   UNL     1      22.640   4.758  48.105  0.00  0.00    +0.020 A 
ATOM     22 BR   UNL     1      21.929   6.053  46.893  0.00  0.00    -0.050 Br
ATOM     23  C   UNL     1      22.064   3.484  48.186  0.00  0.00    -0.027 A 
ENDBRANCH  15  17
ENDBRANCH  10  15
BRANCH   1  24
ATOM     24  C   UNL     1      24.900  -0.715  53.577  0.00  0.00    +0.026 C 
BRANCH  24  26
ATOM     25  C   UNL     1      25.889   1.287  52.668  0.00  0.00    -0.012 C 
ATOM     26  N   UNL     1      25.522   0.583  53.910  0.00  0.00    -0.291 N 
ATOM     27  H   UNL     1      24.850   1.149  54.429  0.00  0.00    +0.000 HD
BRANCH  26  28
ATOM     28  C   UNL     1      26.714   0.388  54.765  0.00  0.00    +0.097 C 
BRANCH  28  29
ATOM     29  C   UNL     1      27.938   0.183  53.926  0.00  0.00    +0.319 C 
ATOM     30  O   UNL     1      28.777   1.114  53.796  0.00  0.00    -0.250 OA
ATOM     31  O   UNL     1      28.138  -1.029  53.272  0.00  0.00    -0.480 OA
ENDBRANCH  28  29
ENDBRANCH  26  28
ENDBRANCH  24  26
ENDBRANCH   1  24
TORSDOF 6
ENDMDL
