MODEL 1
REMARK VINA RESULT:    -7.531      0.000      0.000
REMARK INTER + INTRA:          -8.219
REMARK INTER:                  -7.972
REMARK INTRA:                  -0.248
REMARK UNBOUND:                -0.248
REMARK  Name = 
REMARK  2 active torsions:
REMARK  status: ('A' for Active; 'I' for Inactive)
REMARK    1  A    between atoms: C_1  and  N_2
REMARK    2  A    between atoms: N_11  and  C_12
REMARK                            x       y       z     vdW  Elec       q    Type
REMARK                         _______ _______ _______ _____ _____    ______ ____
ROOT
ATOM      1  C   UNL     1      22.645   2.488  49.792  0.00  0.00    +0.000 C 
ATOM      2  N   UNL     1      21.546   2.108  50.670  0.00  0.00    -0.317 N 
ATOM      3  C   UNL     1      21.752   1.309  51.840  0.00  0.00    +0.216 A 
ATOM      4  N   UNL     1      20.692   0.980  52.628  0.00  0.00    -0.221 NA
ATOM      5  C   UNL     1      20.851   0.224  53.745  0.00  0.00    +0.059 A 
ATOM      6  C   UNL     1      22.123  -0.229  54.097  0.00  0.00    +0.112 A 
ATOM      7  N   UNL     1      22.317  -0.987  55.207  0.00  0.00    -0.232 NA
ATOM      8  C   UNL     1      23.562  -1.421  55.535  0.00  0.00    +0.119 A 
ATOM      9  N   UNL     1      24.628  -1.101  54.753  0.00  0.00    -0.218 NA
ATOM     10  C   UNL     1      24.487  -0.334  53.636  0.00  0.00    +0.152 A 
ATOM     11  N   UNL     1      25.629  -0.038  52.812  0.00  0.00    -0.298 N 
ATOM     12  C   UNL     1      23.207   0.115  53.276  0.00  0.00    +0.134 A 
ATOM     13  N   UNL     1      23.001   0.876  52.169  0.00  0.00    -0.209 NA
ATOM     14  H   UNL     1      20.635   2.411  50.453  0.00  0.00    +0.000 HD
ATOM     15  H   UNL     1      25.469   0.271  51.891  0.00  0.00    +0.000 HD
ENDROOT
BRANCH  11  16
ATOM     16  C   UNL     1      26.991  -0.165  53.255  0.00  0.00    +0.032 A 
ATOM     17  C   UNL     1      27.629   0.866  53.971  0.00  0.00    -0.041 A 
ATOM     18  C   UNL     1      28.962   0.729  54.367  0.00  0.00    -0.060 A 
ATOM     19  C   UNL     1      29.674  -0.430  54.044  0.00  0.00    -0.062 A 
ATOM     20  C   UNL     1      29.056  -1.448  53.313  0.00  0.00    -0.060 A 
ATOM     21  C   UNL     1      27.723  -1.313  52.913  0.00  0.00    -0.041 A 
ENDBRANCH  11  16
TORSDOF 1
ENDMDL
MODEL 2
REMARK VINA RESULT:    -7.438      0.332      1.159
REMARK INTER + INTRA:          -8.120
REMARK INTER:                  -7.884
REMARK INTRA:                  -0.236
REMARK UNBOUND:                -0.248
REMARK  Name = 
REMARK  2 active torsions:
REMARK  status: ('A' for Active; 'I' for Inactive)
REMARK    1  A    between atoms: C_1  and  N_2
REMARK    2  A    between atoms: N_11  and  C_12
REMARK                            x       y       z     vdW  Elec       q    Type
REMARK                         _______ _______ _______ _____ _____    ______ ____
ROOT
ATOM      1  C   UNL     1      22.499   3.025  50.064  0.00  0.00    +0.000 C 
ATOM      2  N   UNL     1      21.406   2.612  50.935  0.00  0.00    -0.317 N 
ATOM      3  C   UNL     1      21.607   1.713  52.031  0.00  0.00    +0.216 A 
ATOM      4  N   UNL     1      20.553   1.358  52.815  0.00  0.00    -0.221 NA
ATOM      5  C   UNL     1      20.709   0.508  53.864  0.00  0.00    +0.059 A 
ATOM      6  C   UNL     1      21.971  -0.015  54.147  0.00  0.00    +0.112 A 
ATOM      7  N   UNL     1      22.161  -0.868  55.186  0.00  0.00    -0.232 NA
ATOM      8  C   UNL     1      23.396  -1.370  55.448  0.00  0.00    +0.119 A 
ATOM      9  N   UNL     1      24.456  -1.024  54.669  0.00  0.00    -0.218 NA
ATOM     10  C   UNL     1      24.319  -0.164  53.621  0.00  0.00    +0.152 A 
ATOM     11  N   UNL     1      25.454   0.159  52.796  0.00  0.00    -0.298 N 
ATOM     12  C   UNL     1      23.049   0.357  53.330  0.00  0.00    +0.134 A 
ATOM     13  N   UNL     1      22.847   1.212  52.294  0.00  0.00    -0.209 NA
ATOM     14  H   UNL     1      20.502   2.963  50.765  0.00  0.00    +0.000 HD
ATOM     15  H   UNL     1      25.284   0.548  51.907  0.00  0.00    +0.000 HD
ENDROOT
BRANCH  11  16
ATOM     16  C   UNL     1      26.819  -0.050  53.194  0.00  0.00    +0.032 A 
ATOM     17  C   UNL     1      27.515  -1.220  52.837  0.00  0.00    -0.041 A 
ATOM     18  C   UNL     1      28.835  -1.412  53.260  0.00  0.00    -0.060 A 
ATOM     19  C   UNL     1      29.465  -0.447  54.050  0.00  0.00    -0.062 A 
ATOM     20  C   UNL     1      28.773   0.706  54.428  0.00  0.00    -0.060 A 
ATOM     21  C   UNL     1      27.453   0.901  54.009  0.00  0.00    -0.041 A 
ENDBRANCH  11  16
TORSDOF 1
ENDMDL
MODEL 3
REMARK VINA RESULT:    -7.299      1.489      3.372
REMARK INTER + INTRA:          -7.973
REMARK INTER:                  -7.796
REMARK INTRA:                  -0.178
REMARK UNBOUND:                -0.248
REMARK  Name = 
REMARK  2 active torsions:
REMARK  status: ('A' for Active; 'I' for Inactive)
REMARK    1  A    between atoms: C_1  and  N_2
REMARK    2  A    between atoms: N_11  and  C_12
REMARK                            x       y       z     vdW  Elec       q    Type
REMARK                         _______ _______ _______ _____ _____    ______ ____
ROOT
ATOM      1  C   UNL     1      21.174  -1.457  54.421  0.00  0.00    +0.000 C 
ATOM      2  N   UNL     1      20.700  -0.511  53.418  0.00  0.00    -0.317 N 
ATOM      3  C   UNL     1      21.595   0.336  52.692  0.00  0.00    +0.216 A 
ATOM      4  N   UNL     1      21.102   1.203  51.765  0.00  0.00    -0.221 NA
ATOM      5  C   UNL     1      21.924   2.022  51.058  0.00  0.00    +0.059 A 
ATOM      6  C   UNL     1      23.300   1.979  51.281  0.00  0.00    +0.112 A 
ATOM      7  N   UNL     1      24.149   2.784  50.591  0.00  0.00    -0.232 NA
ATOM      8  C   UNL     1      25.487   2.732  50.821  0.00  0.00    +0.119 A 
ATOM      9  N   UNL     1      25.990   1.871  51.747  0.00  0.00    -0.218 NA
ATOM     10  C   UNL     1      25.182   1.036  52.457  0.00  0.00    +0.152 A 
ATOM     11  N   UNL     1      25.741   0.158  53.452  0.00  0.00    -0.298 N 
ATOM     12  C   UNL     1      23.796   1.083  52.239  0.00  0.00    +0.134 A 
ATOM     13  N   UNL     1      22.937   0.281  52.922  0.00  0.00    -0.209 NA
ATOM     14  H   UNL     1      19.734  -0.456  53.234  0.00  0.00    +0.000 HD
ATOM     15  H   UNL     1      25.134  -0.222  54.127  0.00  0.00    +0.000 HD
ENDROOT
BRANCH  11  16
ATOM     16  C   UNL     1      27.133  -0.195  53.517  0.00  0.00    +0.032 A 
ATOM     17  C   UNL     1      27.610  -1.397  52.961  0.00  0.00    -0.041 A 
ATOM     18  C   UNL     1      28.965  -1.731  53.060  0.00  0.00    -0.060 A 
ATOM     19  C   UNL     1      29.850  -0.877  53.724  0.00  0.00    -0.062 A 
ATOM     20  C   UNL     1      29.380   0.307  54.299  0.00  0.00    -0.060 A 
ATOM     21  C   UNL     1      28.026   0.643  54.203  0.00  0.00    -0.041 A 
ENDBRANCH  11  16
TORSDOF 1
ENDMDL
MODEL 4
REMARK VINA RESULT:    -7.174      2.952      5.396
REMARK INTER + INTRA:          -7.841
REMARK INTER:                  -7.791
REMARK INTRA:                  -0.050
REMARK UNBOUND:                -0.248
REMARK  Name = 
REMARK  2 active torsions:
REMARK  status: ('A' for Active; 'I' for Inactive)
REMARK    1  A    between atoms: C_1  and  N_2
REMARK    2  A    between atoms: N_11  and  C_12
REMARK                            x       y       z     vdW  Elec       q    Type
REMARK                         _______ _______ _______ _____ _____    ______ ____
ROOT
ATOM      1  C   UNL     1      21.558  -0.302  52.490  0.00  0.00    +0.000 C 
ATOM      2  N   UNL     1      22.423  -0.807  53.548  0.00  0.00    -0.317 N 
ATOM      3  C   UNL     1      23.776  -0.366  53.697  0.00  0.00    +0.216 A 
ATOM      4  N   UNL     1      24.543  -0.869  54.702  0.00  0.00    -0.221 NA
ATOM      5  C   UNL     1      25.832  -0.472  54.873  0.00  0.00    +0.059 A 
ATOM      6  C   UNL     1      26.385   0.468  54.004  0.00  0.00    +0.112 A 
ATOM      7  N   UNL     1      27.669   0.886  54.145  0.00  0.00    -0.232 NA
ATOM      8  C   UNL     1      28.194   1.801  53.290  0.00  0.00    +0.119 A 
ATOM      9  N   UNL     1      27.437   2.309  52.280  0.00  0.00    -0.218 NA
ATOM     10  C   UNL     1      26.141   1.930  52.101  0.00  0.00    +0.152 A 
ATOM     11  N   UNL     1      25.374   2.461  51.005  0.00  0.00    -0.298 N 
ATOM     12  C   UNL     1      25.585   0.978  52.970  0.00  0.00    +0.134 A 
ATOM     13  N   UNL     1      24.301   0.554  52.840  0.00  0.00    -0.209 NA
ATOM     14  H   UNL     1      22.065  -1.471  54.180  0.00  0.00    +0.000 HD
ATOM     15  H   UNL     1      24.558   1.982  50.736  0.00  0.00    +0.000 HD
ENDROOT
BRANCH  11  16
ATOM     16  C   UNL     1      25.731   3.651  50.281  0.00  0.00    +0.032 A 
ATOM     17  C   UNL     1      26.842   3.678  49.417  0.00  0.00    -0.041 A 
ATOM     18  C   UNL     1      27.183   4.856  48.745  0.00  0.00    -0.060 A 
ATOM     19  C   UNL     1      26.430   6.017  48.938  0.00  0.00    -0.062 A 
ATOM     20  C   UNL     1      25.340   6.005  49.813  0.00  0.00    -0.060 A 
ATOM     21  C   UNL     1      24.996   4.829  50.488  0.00  0.00    -0.041 A 
ENDBRANCH  11  16
TORSDOF 1
ENDMDL
MODEL 5
REMARK VINA RESULT:    -6.649      2.537      6.290
REMARK INTER + INTRA:          -7.286
REMARK INTER:                  -7.039
REMARK INTRA:                  -0.246
REMARK UNBOUND:                -0.248
REMARK  Name = 
REMARK  2 active torsions:
REMARK  status: ('A' for Active; 'I' for Inactive)
REMARK    1  A    between atoms: C_1  and  N_2
REMARK    2  A    between atoms: N_11  and  C_12
REMARK                            x       y       z     vdW  Elec       q    Type
REMARK                         _______ _______ _______ _____ _____    ______ ____
ROOT
ATOM      1  C   UNL     1      29.073   2.306  54.018  0.00  0.00    +0.000 C 
ATOM      2  N   UNL     1      28.393   1.085  54.430  0.00  0.00    -0.317 N 
ATOM      3  C   UNL     1      27.015   0.844  54.126  0.00  0.00    +0.216 A 
ATOM      4  N   UNL     1      26.426  -0.313  54.533  0.00  0.00    -0.221 NA
ATOM      5  C   UNL     1      25.121  -0.574  54.262  0.00  0.00    +0.059 A 
ATOM      6  C   UNL     1      24.363   0.358  53.552  0.00  0.00    +0.112 A 
ATOM      7  N   UNL     1      23.057   0.130  53.264  0.00  0.00    -0.232 NA
ATOM      8  C   UNL     1      22.332   1.048  52.574  0.00  0.00    +0.119 A 
ATOM      9  N   UNL     1      22.911   2.209  52.164  0.00  0.00    -0.218 NA
ATOM     10  C   UNL     1      24.221   2.482  52.419  0.00  0.00    +0.152 A 
ATOM     11  N   UNL     1      24.796   3.733  51.999  0.00  0.00    -0.298 N 
ATOM     12  C   UNL     1      24.982   1.548  53.139  0.00  0.00    +0.134 A 
ATOM     13  N   UNL     1      26.291   1.765  53.431  0.00  0.00    -0.209 NA
ATOM     14  H   UNL     1      28.897   0.404  54.932  0.00  0.00    +0.000 HD
ATOM     15  H   UNL     1      25.637   4.020  52.422  0.00  0.00    +0.000 HD
ENDROOT
BRANCH  11  16
ATOM     16  C   UNL     1      24.215   4.586  50.998  0.00  0.00    +0.032 A 
ATOM     17  C   UNL     1      24.403   4.338  49.625  0.00  0.00    -0.041 A 
ATOM     18  C   UNL     1      23.849   5.198  48.672  0.00  0.00    -0.060 A 
ATOM     19  C   UNL     1      23.116   6.316  49.078  0.00  0.00    -0.062 A 
ATOM     20  C   UNL     1      22.945   6.582  50.439  0.00  0.00    -0.060 A 
ATOM     21  C   UNL     1      23.499   5.725  51.395  0.00  0.00    -0.041 A 
ENDBRANCH  11  16
TORSDOF 1
ENDMDL
MODEL 6
REMARK VINA RESULT:    -6.616      2.477      3.560
REMARK INTER + INTRA:          -7.250
REMARK INTER:                  -7.029
REMARK INTRA:                  -0.222
REMARK UNBOUND:                -0.248
REMARK  Name = 
REMARK  2 active torsions:
REMARK  status: ('A' for Active; 'I' for Inactive)
REMARK    1  A    between atoms: C_1  and  N_2
REMARK    2  A    between atoms: N_11  and  C_12
REMARK                            x       y       z     vdW  Elec       q    Type
REMARK                         _______ _______ _______ _____ _____    ______ ____
ROOT
ATOM      1  C   UNL     1      24.424   6.978  51.012  0.00  0.00    +0.000 C 
ATOM      2  N   UNL     1      22.992   6.714  51.073  0.00  0.00    -0.317 N 
ATOM      3  C   UNL     1      22.473   5.418  51.389  0.00  0.00    +0.216 A 
ATOM      4  N   UNL     1      21.127   5.223  51.434  0.00  0.00    -0.221 NA
ATOM      5  C   UNL     1      20.601   4.006  51.731  0.00  0.00    +0.059 A 
ATOM      6  C   UNL     1      21.450   2.932  51.996  0.00  0.00    +0.112 A 
ATOM      7  N   UNL     1      20.957   1.703  52.296  0.00  0.00    -0.232 NA
ATOM      8  C   UNL     1      21.798   0.667  52.551  0.00  0.00    +0.119 A 
ATOM      9  N   UNL     1      23.145   0.850  52.507  0.00  0.00    -0.218 NA
ATOM     10  C   UNL     1      23.689   2.066  52.221  0.00  0.00    +0.152 A 
ATOM     11  N   UNL     1      25.118   2.222  52.152  0.00  0.00    -0.298 N 
ATOM     12  C   UNL     1      22.836   3.146  51.946  0.00  0.00    +0.134 A 
ATOM     13  N   UNL     1      23.317   4.380  51.647  0.00  0.00    -0.209 NA
ATOM     14  H   UNL     1      22.363   7.449  50.892  0.00  0.00    +0.000 HD
ATOM     15  H   UNL     1      25.476   3.012  51.686  0.00  0.00    +0.000 HD
ENDROOT
BRANCH  11  16
ATOM     16  C   UNL     1      26.054   1.292  52.724  0.00  0.00    +0.032 A 
ATOM     17  C   UNL     1      26.550   0.202  51.984  0.00  0.00    -0.041 A 
ATOM     18  C   UNL     1      27.438  -0.703  52.573  0.00  0.00    -0.060 A 
ATOM     19  C   UNL     1      27.830  -0.536  53.904  0.00  0.00    -0.062 A 
ATOM     20  C   UNL     1      27.325   0.530  54.652  0.00  0.00    -0.060 A 
ATOM     21  C   UNL     1      26.434   1.436  54.068  0.00  0.00    -0.041 A 
ENDBRANCH  11  16
TORSDOF 1
ENDMDL
MODEL 7
REMARK VINA RESULT:    -6.605      2.090      6.018
REMARK INTER + INTRA:          -7.239
REMARK INTER:                  -7.611
REMARK INTRA:                   0.373
REMARK UNBOUND:                -0.248
REMARK  Name = 
REMARK  2 active torsions:
REMARK  status: ('A' for Active; 'I' for Inactive)
REMARK    1  A    between atoms: C_1  and  N_2
REMARK    2  A    between atoms: N_11  and  C_12
REMARK                            x       y       z     vdW  Elec       q    Type
REMARK                         _______ _______ _______ _____ _____    ______ ____
ROOT
ATOM      1  C   UNL     1      25.871   4.045  50.085  0.00  0.00    +0.000 C 
ATOM      2  N   UNL     1      26.891   3.360  50.868  0.00  0.00    -0.317 N 
ATOM      3  C   UNL     1      26.562   2.334  51.810  0.00  0.00    +0.216 A 
ATOM      4  N   UNL     1      27.552   1.724  52.518  0.00  0.00    -0.221 NA
ATOM      5  C   UNL     1      27.275   0.747  53.420  0.00  0.00    +0.059 A 
ATOM      6  C   UNL     1      25.952   0.356  53.631  0.00  0.00    +0.112 A 
ATOM      7  N   UNL     1      25.641  -0.617  54.524  0.00  0.00    -0.232 NA
ATOM      8  C   UNL     1      24.348  -0.985  54.719  0.00  0.00    +0.119 A 
ATOM      9  N   UNL     1      23.350  -0.381  54.020  0.00  0.00    -0.218 NA
ATOM     10  C   UNL     1      23.611   0.593  53.104  0.00  0.00    +0.152 A 
ATOM     11  N   UNL     1      22.532   1.236  52.401  0.00  0.00    -0.298 N 
ATOM     12  C   UNL     1      24.941   0.993  52.896  0.00  0.00    +0.134 A 
ATOM     13  N   UNL     1      25.265   1.964  52.003  0.00  0.00    -0.209 NA
ATOM     14  H   UNL     1      27.835   3.610  50.744  0.00  0.00    +0.000 HD
ATOM     15  H   UNL     1      22.713   2.100  51.965  0.00  0.00    +0.000 HD
ENDROOT
BRANCH  11  16
ATOM     16  C   UNL     1      21.206   0.690  52.298  0.00  0.00    +0.032 A 
ATOM     17  C   UNL     1      20.461   0.792  51.108  0.00  0.00    -0.041 A 
ATOM     18  C   UNL     1      19.164   0.275  51.042  0.00  0.00    -0.060 A 
ATOM     19  C   UNL     1      18.593  -0.333  52.164  0.00  0.00    -0.062 A 
ATOM     20  C   UNL     1      19.317  -0.417  53.356  0.00  0.00    -0.060 A 
ATOM     21  C   UNL     1      20.615   0.099  53.426  0.00  0.00    -0.041 A 
ENDBRANCH  11  16
TORSDOF 1
ENDMDL
MODEL 8
REMARK VINA RESULT:    -6.602      2.133      5.978
REMARK INTER + INTRA:          -7.235
REMARK INTER:                  -7.067
REMARK INTRA:                  -0.168
REMARK UNBOUND:                -0.248
REMARK  Name = 
REMARK  2 active torsions:
REMARK  status: ('A' for Active; 'I' for Inactive)
REMARK    1  A    between atoms: C_1  and  N_2
REMARK    2  A    between atoms: N_11  and  C_12
REMARK                            x       y       z     vdW  Elec       q    Type
REMARK                         _______ _______ _______ _____ _____    ______ ____
ROOT
ATOM      1  C   UNL     1      21.053  -1.434  54.403  0.00  0.00    +0.000 C 
ATOM      2  N   UNL     1      22.357  -1.566  55.039  0.00  0.00    -0.317 N 
ATOM      3  C   UNL     1      23.516  -0.891  54.540  0.00  0.00    +0.216 A 
ATOM      4  N   UNL     1      24.712  -1.048  55.170  0.00  0.00    -0.221 NA
ATOM      5  C   UNL     1      25.832  -0.421  54.723  0.00  0.00    +0.059 A 
ATOM      6  C   UNL     1      25.762   0.399  53.597  0.00  0.00    +0.112 A 
ATOM      7  N   UNL     1      26.862   1.039  53.124  0.00  0.00    -0.232 NA
ATOM      8  C   UNL     1      26.777   1.834  52.025  0.00  0.00    +0.119 A 
ATOM      9  N   UNL     1      25.588   1.995  51.386  0.00  0.00    -0.218 NA
ATOM     10  C   UNL     1      24.453   1.383  51.827  0.00  0.00    +0.152 A 
ATOM     11  N   UNL     1      23.215   1.549  51.112  0.00  0.00    -0.298 N 
ATOM     12  C   UNL     1      24.524   0.551  52.955  0.00  0.00    +0.134 A 
ATOM     13  N   UNL     1      23.430  -0.093  53.439  0.00  0.00    -0.209 NA
ATOM     14  H   UNL     1      22.443  -2.137  55.836  0.00  0.00    +0.000 HD
ATOM     15  H   UNL     1      22.494   0.899  51.277  0.00  0.00    +0.000 HD
ENDROOT
BRANCH  11  16
ATOM     16  C   UNL     1      22.969   2.608  50.171  0.00  0.00    +0.032 A 
ATOM     17  C   UNL     1      22.932   3.955  50.578  0.00  0.00    -0.041 A 
ATOM     18  C   UNL     1      22.665   4.965  49.648  0.00  0.00    -0.060 A 
ATOM     19  C   UNL     1      22.420   4.640  48.311  0.00  0.00    -0.062 A 
ATOM     20  C   UNL     1      22.432   3.303  47.904  0.00  0.00    -0.060 A 
ATOM     21  C   UNL     1      22.697   2.290  48.831  0.00  0.00    -0.041 A 
ENDBRANCH  11  16
TORSDOF 1
ENDMDL
MODEL 9
REMARK VINA RESULT:    -6.510      1.441      5.927
REMARK INTER + INTRA:          -7.138
REMARK INTER:                  -6.998
REMARK INTRA:                  -0.140
REMARK UNBOUND:                -0.248
REMARK  Name = 
REMARK  2 active torsions:
REMARK  status: ('A' for Active; 'I' for Inactive)
REMARK    1  A    between atoms: C_1  and  N_2
REMARK    2  A    between atoms: N_11  and  C_12
REMARK                            x       y       z     vdW  Elec       q    Type
REMARK                         _______ _______ _______ _____ _____    ______ ____
ROOT
ATOM      1  C   UNL     1      27.027  -0.574  53.261  0.00  0.00    +0.000 C 
ATOM      2  N   UNL     1      26.015  -1.070  54.185  0.00  0.00    -0.317 N 
ATOM      3  C   UNL     1      24.641  -0.682  54.086  0.00  0.00    +0.216 A 
ATOM      4  N   UNL     1      23.735  -1.173  54.974  0.00  0.00    -0.221 NA
ATOM      5  C   UNL     1      22.423  -0.826  54.908  0.00  0.00    +0.059 A 
ATOM      6  C   UNL     1      21.990   0.051  53.914  0.00  0.00    +0.112 A 
ATOM      7  N   UNL     1      20.686   0.419  53.820  0.00  0.00    -0.232 NA
ATOM      8  C   UNL     1      20.281   1.275  52.846  0.00  0.00    +0.119 A 
ATOM      9  N   UNL     1      21.179   1.774  51.955  0.00  0.00    -0.218 NA
ATOM     10  C   UNL     1      22.495   1.428  52.000  0.00  0.00    +0.152 A 
ATOM     11  N   UNL     1      23.427   1.997  51.062  0.00  0.00    -0.298 N 
ATOM     12  C   UNL     1      22.934   0.552  53.005  0.00  0.00    +0.134 A 
ATOM     13  N   UNL     1      24.235   0.175  53.107  0.00  0.00    -0.209 NA
ATOM     14  H   UNL     1      26.286  -1.692  54.899  0.00  0.00    +0.000 HD
ATOM     15  H   UNL     1      24.387   1.954  51.278  0.00  0.00    +0.000 HD
ENDROOT
BRANCH  11  16
ATOM     16  C   UNL     1      23.039   2.623  49.827  0.00  0.00    +0.032 A 
ATOM     17  C   UNL     1      22.361   1.907  48.823  0.00  0.00    -0.041 A 
ATOM     18  C   UNL     1      22.018   2.533  47.621  0.00  0.00    -0.060 A 
ATOM     19  C   UNL     1      22.358   3.871  47.404  0.00  0.00    -0.062 A 
ATOM     20  C   UNL     1      23.051   4.582  48.387  0.00  0.00    -0.060 A 
ATOM     21  C   UNL     1      23.398   3.960  49.590  0.00  0.00    -0.041 A 
ENDBRANCH  11  16
TORSDOF 1
ENDMDL
