MODEL 1
REMARK VINA RESULT:    -8.094      0.000      0.000
REMARK INTER + INTRA:          -9.463
REMARK INTER:                  -9.040
REMARK INTRA:                  -0.423
REMARK UNBOUND:                -0.423
REMARK  Name = 
REMARK  2 active torsions:
REMARK  status: ('A' for Active; 'I' for Inactive)
REMARK    1  A    between atoms: C_6  and  N_7
REMARK    2  A    between atoms: N_7  and  C_8
REMARK                            x       y       z     vdW  Elec       q    Type
REMARK                         _______ _______ _______ _____ _____    ______ ____
ROOT
ATOM      1  C   UNL     1      26.393   0.597  52.943  0.00  0.00    +0.042 A 
ATOM      2  C   UNL     1      26.671   1.921  53.317  0.00  0.00    -0.022 A 
ATOM      3  C   UNL     1      27.932   2.256  53.811  0.00  0.00    +0.030 A 
ATOM      4  N   UNL     1      28.897   1.307  53.920  0.00  0.00    -0.255 NA
ATOM      5  C   UNL     1      28.675   0.015  53.562  0.00  0.00    +0.073 A 
ATOM      6  C   UNL     1      29.701  -0.927  53.697  0.00  0.00    -0.036 A 
ATOM      7  C   UNL     1      29.481  -2.259  53.344  0.00  0.00    -0.060 A 
ATOM      8  C   UNL     1      28.234  -2.660  52.860  0.00  0.00    -0.061 A 
ATOM      9  C   UNL     1      27.199  -1.729  52.721  0.00  0.00    -0.051 A 
ATOM     10  C   UNL     1      27.410  -0.377  53.061  0.00  0.00    +0.022 A 
ENDROOT
BRANCH   1  11
ATOM     11  N   UNL     1      25.108   0.268  52.387  0.00  0.00    -0.314 N 
ATOM     12  H   UNL     1      24.991   0.342  51.412  0.00  0.00    +0.000 HD
BRANCH  11  18
ATOM     13 BR   UNL     1      19.792  -0.061  52.939  0.00  0.00    -0.050 Br
ATOM     14  C   UNL     1      21.583  -0.358  53.535  0.00  0.00    +0.020 A 
ATOM     15  C   UNL     1      21.816  -0.982  54.764  0.00  0.00    -0.048 A 
ATOM     16  C   UNL     1      23.125  -1.187  55.206  0.00  0.00    -0.059 A 
ATOM     17  C   UNL     1      24.204  -0.775  54.418  0.00  0.00    -0.040 A 
ATOM     18  C   UNL     1      23.983  -0.164  53.174  0.00  0.00    +0.032 A 
ATOM     19  C   UNL     1      22.661   0.055  52.744  0.00  0.00    -0.027 A 
ENDBRANCH  11  18
ENDBRANCH   1  11
TORSDOF 2
ENDMDL
MODEL 2
REMARK VINA RESULT:    -7.305      4.401      6.123
REMARK INTER + INTRA:          -8.581
REMARK INTER:                  -8.009
REMARK INTRA:                  -0.572
REMARK UNBOUND:                -0.423
REMARK  Name = 
REMARK  2 active torsions:
REMARK  status: ('A' for Active; 'I' for Inactive)
REMARK    1  A    between atoms: C_6  and  N_7
REMARK    2  A    between atoms: N_7  and  C_8
REMARK                            x       y       z     vdW  Elec       q    Type
REMARK                         _______ _______ _______ _____ _____    ______ ____
ROOT
ATOM      1  C   UNL     1      24.548   3.349  51.057  0.00  0.00    +0.042 A 
ATOM      2  C   UNL     1      23.499   3.919  51.796  0.00  0.00    -0.022 A 
ATOM      3  C   UNL     1      23.299   5.299  51.771  0.00  0.00    +0.030 A 
ATOM      4  N   UNL     1      24.108   6.094  51.025  0.00  0.00    -0.255 NA
ATOM      5  C   UNL     1      25.131   5.585  50.288  0.00  0.00    +0.073 A 
ATOM      6  C   UNL     1      25.939   6.446  49.538  0.00  0.00    -0.036 A 
ATOM      7  C   UNL     1      27.000   5.936  48.787  0.00  0.00    -0.060 A 
ATOM      8  C   UNL     1      27.262   4.565  48.786  0.00  0.00    -0.061 A 
ATOM      9  C   UNL     1      26.462   3.692  49.531  0.00  0.00    -0.051 A 
ATOM     10  C   UNL     1      25.380   4.190  50.284  0.00  0.00    +0.022 A 
ENDROOT
BRANCH   1  11
ATOM     11  N   UNL     1      24.719   1.921  51.046  0.00  0.00    -0.314 N 
ATOM     12  H   UNL     1      24.423   1.424  50.250  0.00  0.00    +0.000 HD
BRANCH  11  18
ATOM     13 BR   UNL     1      29.118   0.396  53.690  0.00  0.00    -0.050 Br
ATOM     14  C   UNL     1      27.230   0.410  53.402  0.00  0.00    +0.020 A 
ATOM     15  C   UNL     1      26.390  -0.331  54.238  0.00  0.00    -0.048 A 
ATOM     16  C   UNL     1      25.010  -0.332  54.019  0.00  0.00    -0.059 A 
ATOM     17  C   UNL     1      24.466   0.413  52.968  0.00  0.00    -0.040 A 
ATOM     18  C   UNL     1      25.298   1.176  52.133  0.00  0.00    +0.032 A 
ATOM     19  C   UNL     1      26.689   1.157  52.349  0.00  0.00    -0.027 A 
ENDBRANCH  11  18
ENDBRANCH   1  11
TORSDOF 2
ENDMDL
MODEL 3
REMARK VINA RESULT:    -7.206      2.860      5.991
REMARK INTER + INTRA:          -8.471
REMARK INTER:                  -7.945
REMARK INTRA:                  -0.526
REMARK UNBOUND:                -0.423
REMARK  Name = 
REMARK  2 active torsions:
REMARK  status: ('A' for Active; 'I' for Inactive)
REMARK    1  A    between atoms: C_6  and  N_7
REMARK    2  A    between atoms: N_7  and  C_8
REMARK                            x       y       z     vdW  Elec       q    Type
REMARK                         _______ _______ _______ _____ _____    ______ ____
ROOT
ATOM      1  C   UNL     1      25.035   2.268  52.191  0.00  0.00    +0.042 A 
ATOM      2  C   UNL     1      25.326   3.081  51.084  0.00  0.00    -0.022 A 
ATOM      3  C   UNL     1      24.455   3.114  49.995  0.00  0.00    +0.030 A 
ATOM      4  N   UNL     1      23.319   2.371  50.006  0.00  0.00    -0.255 NA
ATOM      5  C   UNL     1      22.993   1.577  51.060  0.00  0.00    +0.073 A 
ATOM      6  C   UNL     1      21.812   0.827  51.022  0.00  0.00    -0.036 A 
ATOM      7  C   UNL     1      21.473  -0.001  52.094  0.00  0.00    -0.060 A 
ATOM      8  C   UNL     1      22.314  -0.091  53.205  0.00  0.00    -0.061 A 
ATOM      9  C   UNL     1      23.497   0.653  53.255  0.00  0.00    -0.051 A 
ATOM     10  C   UNL     1      23.847   1.504  52.187  0.00  0.00    +0.022 A 
ENDROOT
BRANCH   1  11
ATOM     11  N   UNL     1      25.911   2.277  53.332  0.00  0.00    -0.314 N 
ATOM     12  H   UNL     1      25.677   2.857  54.092  0.00  0.00    +0.000 HD
BRANCH  11  18
ATOM     13 BR   UNL     1      28.254  -2.518  52.901  0.00  0.00    -0.050 Br
ATOM     14  C   UNL     1      28.276  -0.645  53.274  0.00  0.00    +0.020 A 
ATOM     15  C   UNL     1      29.466  -0.025  53.669  0.00  0.00    -0.048 A 
ATOM     16  C   UNL     1      29.480   1.343  53.954  0.00  0.00    -0.059 A 
ATOM     17  C   UNL     1      28.307   2.095  53.840  0.00  0.00    -0.040 A 
ATOM     18  C   UNL     1      27.110   1.487  53.426  0.00  0.00    +0.032 A 
ATOM     19  C   UNL     1      27.101   0.106  53.158  0.00  0.00    -0.027 A 
ENDBRANCH  11  18
ENDBRANCH   1  11
TORSDOF 2
ENDMDL
MODEL 4
REMARK VINA RESULT:    -7.118      4.196      5.819
REMARK INTER + INTRA:          -8.373
REMARK INTER:                  -7.966
REMARK INTRA:                  -0.407
REMARK UNBOUND:                -0.423
REMARK  Name = 
REMARK  2 active torsions:
REMARK  status: ('A' for Active; 'I' for Inactive)
REMARK    1  A    between atoms: C_6  and  N_7
REMARK    2  A    between atoms: N_7  and  C_8
REMARK                            x       y       z     vdW  Elec       q    Type
REMARK                         _______ _______ _______ _____ _____    ______ ____
ROOT
ATOM      1  C   UNL     1      24.639   3.910  51.061  0.00  0.00    +0.042 A 
ATOM      2  C   UNL     1      23.609   4.662  51.649  0.00  0.00    -0.022 A 
ATOM      3  C   UNL     1      23.508   6.028  51.390  0.00  0.00    +0.030 A 
ATOM      4  N   UNL     1      24.395   6.634  50.561  0.00  0.00    -0.255 NA
ATOM      5  C   UNL     1      25.403   5.945  49.963  0.00  0.00    +0.073 A 
ATOM      6  C   UNL     1      26.295   6.616  49.119  0.00  0.00    -0.036 A 
ATOM      7  C   UNL     1      27.341   5.920  48.509  0.00  0.00    -0.060 A 
ATOM      8  C   UNL     1      27.505   4.554  48.743  0.00  0.00    -0.061 A 
ATOM      9  C   UNL     1      26.621   3.871  49.585  0.00  0.00    -0.051 A 
ATOM     10  C   UNL     1      25.552   4.556  50.198  0.00  0.00    +0.022 A 
ENDROOT
BRANCH   1  11
ATOM     11  N   UNL     1      24.707   2.492  51.291  0.00  0.00    -0.314 N 
ATOM     12  H   UNL     1      25.595   2.065  51.299  0.00  0.00    +0.000 HD
BRANCH  11  18
ATOM     13 BR   UNL     1      21.989  -0.754  54.568  0.00  0.00    -0.050 Br
ATOM     14  C   UNL     1      22.242   0.161  52.911  0.00  0.00    +0.020 A 
ATOM     15  C   UNL     1      21.311   0.009  51.879  0.00  0.00    -0.048 A 
ATOM     16  C   UNL     1      21.502   0.667  50.662  0.00  0.00    -0.059 A 
ATOM     17  C   UNL     1      22.621   1.485  50.475  0.00  0.00    -0.040 A 
ATOM     18  C   UNL     1      23.554   1.660  51.511  0.00  0.00    +0.032 A 
ATOM     19  C   UNL     1      23.363   0.979  52.727  0.00  0.00    -0.027 A 
ENDBRANCH  11  18
ENDBRANCH   1  11
TORSDOF 2
ENDMDL
MODEL 5
REMARK VINA RESULT:    -7.105      4.033      5.687
REMARK INTER + INTRA:          -8.358
REMARK INTER:                  -7.816
REMARK INTRA:                  -0.542
REMARK UNBOUND:                -0.423
REMARK  Name = 
REMARK  2 active torsions:
REMARK  status: ('A' for Active; 'I' for Inactive)
REMARK    1  A    between atoms: C_6  and  N_7
REMARK    2  A    between atoms: N_7  and  C_8
REMARK                            x       y       z     vdW  Elec       q    Type
REMARK                         _______ _______ _______ _____ _____    ______ ____
ROOT
ATOM      1  C   UNL     1      24.242   3.609  50.835  0.00  0.00    +0.042 A 
ATOM      2  C   UNL     1      23.231   4.281  51.541  0.00  0.00    -0.022 A 
ATOM      3  C   UNL     1      23.215   5.674  51.578  0.00  0.00    +0.030 A 
ATOM      4  N   UNL     1      24.168   6.387  50.925  0.00  0.00    -0.255 NA
ATOM      5  C   UNL     1      25.161   5.780  50.224  0.00  0.00    +0.073 A 
ATOM      6  C   UNL     1      26.123   6.558  49.570  0.00  0.00    -0.036 A 
ATOM      7  C   UNL     1      27.154   5.945  48.856  0.00  0.00    -0.060 A 
ATOM      8  C   UNL     1      27.235   4.553  48.796  0.00  0.00    -0.061 A 
ATOM      9  C   UNL     1      26.280   3.762  49.445  0.00  0.00    -0.051 A 
ATOM     10  C   UNL     1      25.225   4.366  50.159  0.00  0.00    +0.022 A 
ENDROOT
BRANCH   1  11
ATOM     11  N   UNL     1      24.225   2.173  50.758  0.00  0.00    -0.314 N 
ATOM     12  H   UNL     1      24.006   1.758  49.892  0.00  0.00    +0.000 HD
BRANCH  11  18
ATOM     13 BR   UNL     1      22.376  -1.039  54.622  0.00  0.00    -0.050 Br
ATOM     14  C   UNL     1      23.781  -0.161  53.671  0.00  0.00    +0.020 A 
ATOM     15  C   UNL     1      25.110  -0.335  54.070  0.00  0.00    -0.048 A 
ATOM     16  C   UNL     1      26.137   0.317  53.383  0.00  0.00    -0.059 A 
ATOM     17  C   UNL     1      25.839   1.140  52.293  0.00  0.00    -0.040 A 
ATOM     18  C   UNL     1      24.510   1.308  51.872  0.00  0.00    +0.032 A 
ATOM     19  C   UNL     1      23.480   0.661  52.580  0.00  0.00    -0.027 A 
ENDBRANCH  11  18
ENDBRANCH   1  11
TORSDOF 2
ENDMDL
MODEL 6
REMARK VINA RESULT:    -7.077      3.675      6.012
REMARK INTER + INTRA:          -8.327
REMARK INTER:                  -7.798
REMARK INTRA:                  -0.528
REMARK UNBOUND:                -0.423
REMARK  Name = 
REMARK  2 active torsions:
REMARK  status: ('A' for Active; 'I' for Inactive)
REMARK    1  A    between atoms: C_6  and  N_7
REMARK    2  A    between atoms: N_7  and  C_8
REMARK                            x       y       z     vdW  Elec       q    Type
REMARK                         _______ _______ _______ _____ _____    ______ ____
ROOT
ATOM      1  C   UNL     1      24.281   1.051  52.035  0.00  0.00    +0.042 A 
ATOM      2  C   UNL     1      25.654   0.779  52.145  0.00  0.00    -0.022 A 
ATOM      3  C   UNL     1      26.117  -0.080  53.141  0.00  0.00    +0.030 A 
ATOM      4  N   UNL     1      25.244  -0.665  54.000  0.00  0.00    -0.255 NA
ATOM      5  C   UNL     1      23.906  -0.437  53.926  0.00  0.00    +0.073 A 
ATOM      6  C   UNL     1      23.046  -1.061  54.837  0.00  0.00    -0.036 A 
ATOM      7  C   UNL     1      21.671  -0.825  54.777  0.00  0.00    -0.060 A 
ATOM      8  C   UNL     1      21.148   0.039  53.813  0.00  0.00    -0.061 A 
ATOM      9  C   UNL     1      21.997   0.670  52.897  0.00  0.00    -0.051 A 
ATOM     10  C   UNL     1      23.385   0.432  52.935  0.00  0.00    +0.022 A 
ENDROOT
BRANCH   1  11
ATOM     11  N   UNL     1      23.804   1.897  50.975  0.00  0.00    -0.314 N 
ATOM     12  H   UNL     1      23.249   1.491  50.270  0.00  0.00    +0.000 HD
BRANCH  11  18
ATOM     13 BR   UNL     1      26.692   5.824  48.759  0.00  0.00    -0.050 Br
ATOM     14  C   UNL     1      25.353   5.167  49.952  0.00  0.00    +0.020 A 
ATOM     15  C   UNL     1      24.651   6.056  50.772  0.00  0.00    -0.048 A 
ATOM     16  C   UNL     1      23.681   5.574  51.654  0.00  0.00    -0.059 A 
ATOM     17  C   UNL     1      23.405   4.205  51.715  0.00  0.00    -0.040 A 
ATOM     18  C   UNL     1      24.091   3.305  50.883  0.00  0.00    +0.032 A 
ATOM     19  C   UNL     1      25.080   3.796  50.010  0.00  0.00    -0.027 A 
ENDBRANCH  11  18
ENDBRANCH   1  11
TORSDOF 2
ENDMDL
MODEL 7
REMARK VINA RESULT:    -6.972      3.144      4.535
REMARK INTER + INTRA:          -8.210
REMARK INTER:                  -7.667
REMARK INTRA:                  -0.543
REMARK UNBOUND:                -0.423
REMARK  Name = 
REMARK  2 active torsions:
REMARK  status: ('A' for Active; 'I' for Inactive)
REMARK    1  A    between atoms: C_6  and  N_7
REMARK    2  A    between atoms: N_7  and  C_8
REMARK                            x       y       z     vdW  Elec       q    Type
REMARK                         _______ _______ _______ _____ _____    ______ ____
ROOT
ATOM      1  C   UNL     1      25.361   1.700  53.216  0.00  0.00    +0.042 A 
ATOM      2  C   UNL     1      24.390   0.685  53.190  0.00  0.00    -0.022 A 
ATOM      3  C   UNL     1      24.760  -0.640  53.417  0.00  0.00    +0.030 A 
ATOM      4  N   UNL     1      26.056  -0.953  53.674  0.00  0.00    -0.255 NA
ATOM      5  C   UNL     1      27.027  -0.004  53.716  0.00  0.00    +0.073 A 
ATOM      6  C   UNL     1      28.350  -0.378  53.982  0.00  0.00    -0.036 A 
ATOM      7  C   UNL     1      29.357   0.588  54.017  0.00  0.00    -0.060 A 
ATOM      8  C   UNL     1      29.052   1.929  53.781  0.00  0.00    -0.061 A 
ATOM      9  C   UNL     1      27.735   2.317  53.514  0.00  0.00    -0.051 A 
ATOM     10  C   UNL     1      26.704   1.356  53.488  0.00  0.00    +0.022 A 
ENDROOT
BRANCH   1  11
ATOM     11  N   UNL     1      24.965   3.070  53.033  0.00  0.00    -0.314 N 
ATOM     12  H   UNL     1      25.073   3.690  53.791  0.00  0.00    +0.000 HD
BRANCH  11  18
ATOM     13 BR   UNL     1      20.863   5.380  50.483  0.00  0.00    -0.050 Br
ATOM     14  C   UNL     1      22.616   4.625  50.543  0.00  0.00    +0.020 A 
ATOM     15  C   UNL     1      23.383   4.547  49.377  0.00  0.00    -0.048 A 
ATOM     16  C   UNL     1      24.661   3.982  49.418  0.00  0.00    -0.059 A 
ATOM     17  C   UNL     1      25.176   3.500  50.625  0.00  0.00    -0.040 A 
ATOM     18  C   UNL     1      24.422   3.589  51.806  0.00  0.00    +0.032 A 
ATOM     19  C   UNL     1      23.129   4.143  51.753  0.00  0.00    -0.027 A 
ENDBRANCH  11  18
ENDBRANCH   1  11
TORSDOF 2
ENDMDL
MODEL 8
REMARK VINA RESULT:    -6.971      3.122      6.742
REMARK INTER + INTRA:          -8.208
REMARK INTER:                  -7.688
REMARK INTRA:                  -0.521
REMARK UNBOUND:                -0.423
REMARK  Name = 
REMARK  2 active torsions:
REMARK  status: ('A' for Active; 'I' for Inactive)
REMARK    1  A    between atoms: C_6  and  N_7
REMARK    2  A    between atoms: N_7  and  C_8
REMARK                            x       y       z     vdW  Elec       q    Type
REMARK                         _______ _______ _______ _____ _____    ______ ____
ROOT
ATOM      1  C   UNL     1      22.788   1.283  52.156  0.00  0.00    +0.042 A 
ATOM      2  C   UNL     1      23.186   1.817  50.921  0.00  0.00    -0.022 A 
ATOM      3  C   UNL     1      22.311   1.793  49.836  0.00  0.00    +0.030 A 
ATOM      4  N   UNL     1      21.068   1.264  49.971  0.00  0.00    -0.255 NA
ATOM      5  C   UNL     1      20.637   0.742  51.151  0.00  0.00    +0.073 A 
ATOM      6  C   UNL     1      19.348   0.205  51.240  0.00  0.00    -0.036 A 
ATOM      7  C   UNL     1      18.899  -0.343  52.443  0.00  0.00    -0.060 A 
ATOM      8  C   UNL     1      19.735  -0.364  53.560  0.00  0.00    -0.061 A 
ATOM      9  C   UNL     1      21.026   0.170  53.485  0.00  0.00    -0.051 A 
ATOM     10  C   UNL     1      21.490   0.739  52.282  0.00  0.00    +0.022 A 
ENDROOT
BRANCH   1  11
ATOM     11  N   UNL     1      23.676   1.357  53.285  0.00  0.00    -0.314 N 
ATOM     12  H   UNL     1      23.352   1.801  54.102  0.00  0.00    +0.000 HD
BRANCH  11  18
ATOM     13 BR   UNL     1      28.932   2.216  53.835  0.00  0.00    -0.050 Br
ATOM     14  C   UNL     1      27.420   1.096  53.508  0.00  0.00    +0.020 A 
ATOM     15  C   UNL     1      27.602  -0.265  53.244  0.00  0.00    -0.048 A 
ATOM     16  C   UNL     1      26.497  -1.082  52.991  0.00  0.00    -0.059 A 
ATOM     17  C   UNL     1      25.207  -0.542  53.008  0.00  0.00    -0.040 A 
ATOM     18  C   UNL     1      25.011   0.819  53.290  0.00  0.00    +0.032 A 
ATOM     19  C   UNL     1      26.130   1.639  53.526  0.00  0.00    -0.027 A 
ENDBRANCH  11  18
ENDBRANCH   1  11
TORSDOF 2
ENDMDL
MODEL 9
REMARK VINA RESULT:    -6.659      3.649      6.067
REMARK INTER + INTRA:          -7.861
REMARK INTER:                  -7.326
REMARK INTRA:                  -0.535
REMARK UNBOUND:                -0.423
REMARK  Name = 
REMARK  2 active torsions:
REMARK  status: ('A' for Active; 'I' for Inactive)
REMARK    1  A    between atoms: C_6  and  N_7
REMARK    2  A    between atoms: N_7  and  C_8
REMARK                            x       y       z     vdW  Elec       q    Type
REMARK                         _______ _______ _______ _____ _____    ______ ____
ROOT
ATOM      1  C   UNL     1      23.497   1.624  52.836  0.00  0.00    +0.042 A 
ATOM      2  C   UNL     1      24.884   1.415  52.888  0.00  0.00    -0.022 A 
ATOM      3  C   UNL     1      25.393   0.248  53.458  0.00  0.00    +0.030 A 
ATOM      4  N   UNL     1      24.550  -0.694  53.954  0.00  0.00    -0.255 NA
ATOM      5  C   UNL     1      23.200  -0.537  53.918  0.00  0.00    +0.073 A 
ATOM      6  C   UNL     1      22.374  -1.536  54.446  0.00  0.00    -0.036 A 
ATOM      7  C   UNL     1      20.986  -1.380  54.425  0.00  0.00    -0.060 A 
ATOM      8  C   UNL     1      20.418  -0.226  53.884  0.00  0.00    -0.061 A 
ATOM      9  C   UNL     1      21.233   0.780  53.353  0.00  0.00    -0.051 A 
ATOM     10  C   UNL     1      22.634   0.632  53.355  0.00  0.00    +0.022 A 
ENDROOT
BRANCH   1  11
ATOM     11  N   UNL     1      22.977   2.805  52.202  0.00  0.00    -0.314 N 
ATOM     12  H   UNL     1      22.671   3.544  52.776  0.00  0.00    +0.000 HD
BRANCH  11  18
ATOM     13 BR   UNL     1      23.376   6.033  47.948  0.00  0.00    -0.050 Br
ATOM     14  C   UNL     1      23.016   4.348  48.773  0.00  0.00    +0.020 A 
ATOM     15  C   UNL     1      22.626   3.256  47.992  0.00  0.00    -0.048 A 
ATOM     16  C   UNL     1      22.349   2.028  48.596  0.00  0.00    -0.059 A 
ATOM     17  C   UNL     1      22.469   1.885  49.982  0.00  0.00    -0.040 A 
ATOM     18  C   UNL     1      22.878   2.969  50.775  0.00  0.00    +0.032 A 
ATOM     19  C   UNL     1      23.137   4.209  50.160  0.00  0.00    -0.027 A 
ENDBRANCH  11  18
ENDBRANCH   1  11
TORSDOF 2
ENDMDL
