MODEL 1
REMARK VINA RESULT:   -10.344      0.000      0.000
REMARK INTER + INTRA:         -14.321
REMARK INTER:                 -12.763
REMARK INTRA:                  -1.558
REMARK UNBOUND:                -1.558
REMARK  Name = 
REMARK  7 active torsions:
REMARK  status: ('A' for Active; 'I' for Inactive)
REMARK    1  A    between atoms: C_1  and  C_2
REMARK    2  A    between atoms: C_4  and  C_5
REMARK    3  A    between atoms: C_9  and  C_10
REMARK    4  A    between atoms: C_12  and  C_13
REMARK    5  A    between atoms: C_16  and  C_17
REMARK    6  A    between atoms: C_26  and  N_27
REMARK    7  A    between atoms: N_27  and  C_28
REMARK                            x       y       z     vdW  Elec       q    Type
REMARK                         _______ _______ _______ _____ _____    ______ ____
ROOT
ATOM      1  C   UNL     1      23.467   1.915  50.880  0.00  0.00    -0.025 C 
ATOM      2  C   UNL     1      22.593   1.719  51.884  0.00  0.00    +0.053 C 
ATOM      3  C   UNL     1      21.337   2.447  52.155  0.00  0.00    +0.250 C 
ATOM      4  O   UNL     1      20.918   3.452  51.524  0.00  0.00    -0.270 OA
ATOM      5  N   UNL     1      20.642   1.878  53.259  0.00  0.00    -0.266 N 
ATOM      6  C   UNL     1      21.474   0.807  53.685  0.00  0.00    +0.138 A 
ATOM      7  N   UNL     1      21.186  -0.044  54.698  0.00  0.00    -0.220 NA
ATOM      8  C   UNL     1      22.067  -1.045  54.990  0.00  0.00    +0.120 A 
ATOM      9  N   UNL     1      23.227  -1.178  54.278  0.00  0.00    -0.220 NA
ATOM     10  C   UNL     1      23.540  -0.335  53.250  0.00  0.00    +0.136 A 
ATOM     11  C   UNL     1      22.632   0.688  52.938  0.00  0.00    +0.067 A 
ATOM     12  H   UNL     1      19.780   2.161  53.642  0.00  0.00    +0.000 HD
ENDROOT
BRANCH   1  18
ATOM     13  C   UNL     1      22.039   1.520  48.061  0.00  0.00    -0.038 C 
ATOM     14  C   UNL     1      22.656   2.768  48.613  0.00  0.00    -0.025 A 
ATOM     15  C   UNL     1      22.739   3.981  47.956  0.00  0.00    -0.028 A 
ATOM     16  C   UNL     1      23.401   4.844  48.824  0.00  0.00    +0.103 A 
ATOM     17  N   UNL     1      23.745   4.197  49.958  0.00  0.00    -0.351 N 
ATOM     18  C   UNL     1      23.272   2.942  49.848  0.00  0.00    +0.043 A 
ATOM     19  H   UNL     1      24.246   4.571  50.718  0.00  0.00    +0.000 HD
BRANCH  16  20
ATOM     20  C   UNL     1      23.743   6.257  48.569  0.00  0.00    +0.263 C 
ATOM     21  O   UNL     1      22.871   6.982  48.013  0.00  0.00    -0.268 OA
ATOM     22  N   UNL     1      25.040   6.812  48.892  0.00  0.00    -0.293 N 
ATOM     23  C   UNL     1      25.242   8.268  48.906  0.00  0.00    +0.030 C 
ATOM     24  C   UNL     1      26.204   8.679  47.762  0.00  0.00    +0.021 C 
ATOM     25  C   UNL     1      26.917   9.997  48.109  0.00  0.00    -0.048 C 
ATOM     26  N   UNL     1      27.174   7.606  47.413  0.00  0.00    -0.308 N 
ATOM     27  C   UNL     1      27.504   6.735  48.559  0.00  0.00    +0.021 C 
ATOM     28  C   UNL     1      28.644   5.769  48.194  0.00  0.00    -0.048 C 
ATOM     29  C   UNL     1      26.238   5.955  48.972  0.00  0.00    +0.030 C 
ATOM     30  H   UNL     1      28.034   8.042  47.078  0.00  0.00    +0.000 HD
ATOM     31  H   UNL     1      26.741   7.021  46.698  0.00  0.00    +0.000 HD
ENDBRANCH  16  20
ENDBRANCH   1  18
BRANCH  10  32
ATOM     32  N   UNL     1      24.804  -0.461  52.586  0.00  0.00    -0.299 N 
ATOM     33  H   UNL     1      24.844  -0.989  51.755  0.00  0.00    +0.000 HD
BRANCH  32  34
ATOM     34  C   UNL     1      26.019   0.144  53.070  0.00  0.00    +0.034 A 
ATOM     35  C   UNL     1      26.043   1.476  53.531  0.00  0.00    -0.038 A 
ATOM     36  C   UNL     1      27.225   2.026  54.032  0.00  0.00    -0.023 A 
ATOM     37  C   UNL     1      28.391   1.255  54.085  0.00  0.00    +0.142 A 
ATOM     38  F   UNL     1      29.528   1.798  54.581  0.00  0.00    -0.204 F 
ATOM     39  C   UNL     1      28.375  -0.073  53.640  0.00  0.00    +0.078 A 
ATOM     40 CL   UNL     1      29.829  -1.053  53.718  0.00  0.00    -0.081 Cl
ATOM     41  C   UNL     1      27.192  -0.628  53.139  0.00  0.00    -0.019 A 
ENDBRANCH  32  34
ENDBRANCH  10  32
TORSDOF 4
ENDMDL
MODEL 2
REMARK VINA RESULT:    -9.768      2.372      3.078
REMARK INTER + INTRA:         -13.611
REMARK INTER:                 -12.384
REMARK INTRA:                  -1.227
REMARK UNBOUND:                -1.558
REMARK  Name = 
REMARK  7 active torsions:
REMARK  status: ('A' for Active; 'I' for Inactive)
REMARK    1  A    between atoms: C_1  and  C_2
REMARK    2  A    between atoms: C_4  and  C_5
REMARK    3  A    between atoms: C_9  and  C_10
REMARK    4  A    between atoms: C_12  and  C_13
REMARK    5  A    between atoms: C_16  and  C_17
REMARK    6  A    between atoms: C_26  and  N_27
REMARK    7  A    between atoms: N_27  and  C_28
REMARK                            x       y       z     vdW  Elec       q    Type
REMARK                         _______ _______ _______ _____ _____    ______ ____
ROOT
ATOM      1  C   UNL     1      22.558   2.122  51.315  0.00  0.00    -0.025 C 
ATOM      2  C   UNL     1      21.946   1.486  52.330  0.00  0.00    +0.053 C 
ATOM      3  C   UNL     1      20.516   1.521  52.697  0.00  0.00    +0.250 C 
ATOM      4  O   UNL     1      19.634   2.241  52.159  0.00  0.00    -0.270 OA
ATOM      5  N   UNL     1      20.241   0.636  53.778  0.00  0.00    -0.266 N 
ATOM      6  C   UNL     1      21.504   0.065  54.093  0.00  0.00    +0.138 A 
ATOM      7  N   UNL     1      21.715  -0.873  55.048  0.00  0.00    -0.220 NA
ATOM      8  C   UNL     1      22.979  -1.353  55.233  0.00  0.00    +0.120 A 
ATOM      9  N   UNL     1      24.017  -0.887  54.475  0.00  0.00    -0.220 NA
ATOM     10  C   UNL     1      23.831   0.055  53.504  0.00  0.00    +0.136 A 
ATOM     11  C   UNL     1      22.531   0.543  53.300  0.00  0.00    +0.067 A 
ATOM     12  H   UNL     1      19.375   0.460  54.210  0.00  0.00    +0.000 HD
ENDROOT
BRANCH   1  18
ATOM     13  C   UNL     1      21.951   1.491  48.252  0.00  0.00    -0.038 C 
ATOM     14  C   UNL     1      21.580   2.716  49.030  0.00  0.00    -0.025 A 
ATOM     15  C   UNL     1      20.922   3.821  48.524  0.00  0.00    -0.028 A 
ATOM     16  C   UNL     1      20.804   4.717  49.581  0.00  0.00    +0.103 A 
ATOM     17  N   UNL     1      21.388   4.214  50.690  0.00  0.00    -0.351 N 
ATOM     18  C   UNL     1      21.837   2.987  50.371  0.00  0.00    +0.043 A 
ATOM     19  H   UNL     1      21.469   4.660  51.564  0.00  0.00    +0.000 HD
BRANCH  16  20
ATOM     20  C   UNL     1      20.184   6.056  49.536  0.00  0.00    +0.263 C 
ATOM     21  O   UNL     1      18.960   6.126  49.234  0.00  0.00    -0.268 OA
ATOM     22  N   UNL     1      20.935   7.269  49.780  0.00  0.00    -0.293 N 
ATOM     23  C   UNL     1      20.236   8.538  50.023  0.00  0.00    +0.030 C 
ATOM     24  C   UNL     1      20.504   9.521  48.853  0.00  0.00    +0.021 C 
ATOM     25  C   UNL     1      20.354  10.975  49.330  0.00  0.00    -0.048 C 
ATOM     26  N   UNL     1      21.820   9.290  48.199  0.00  0.00    -0.308 N 
ATOM     27  C   UNL     1      22.831   8.737  49.122  0.00  0.00    +0.021 C 
ATOM     28  C   UNL     1      24.214   8.697  48.448  0.00  0.00    -0.048 C 
ATOM     29  C   UNL     1      22.392   7.322  49.553  0.00  0.00    +0.030 C 
ATOM     30  H   UNL     1      22.163  10.180  47.836  0.00  0.00    +0.000 HD
ATOM     31  H   UNL     1      21.678   8.607  47.455  0.00  0.00    +0.000 HD
ENDBRANCH  16  20
ENDBRANCH   1  18
BRANCH  10  32
ATOM     32  N   UNL     1      24.960   0.574  52.789  0.00  0.00    -0.299 N 
ATOM     33  H   UNL     1      24.796   1.215  52.059  0.00  0.00    +0.000 HD
BRANCH  32  34
ATOM     34  C   UNL     1      26.322   0.207  53.081  0.00  0.00    +0.034 A 
ATOM     35  C   UNL     1      26.837  -1.055  52.719  0.00  0.00    -0.038 A 
ATOM     36  C   UNL     1      28.172  -1.372  52.978  0.00  0.00    -0.023 A 
ATOM     37  C   UNL     1      29.009  -0.435  53.594  0.00  0.00    +0.142 A 
ATOM     38  F   UNL     1      30.303  -0.752  53.831  0.00  0.00    -0.204 F 
ATOM     39  C   UNL     1      28.511   0.825  53.947  0.00  0.00    +0.078 A 
ATOM     40 CL   UNL     1      29.559   2.013  54.704  0.00  0.00    -0.081 Cl
ATOM     41  C   UNL     1      27.174   1.147  53.687  0.00  0.00    -0.019 A 
ENDBRANCH  32  34
ENDBRANCH  10  32
TORSDOF 4
ENDMDL
MODEL 3
REMARK VINA RESULT:    -9.690      3.584      5.229
REMARK INTER + INTRA:         -13.514
REMARK INTER:                 -11.664
REMARK INTRA:                  -1.849
REMARK UNBOUND:                -1.558
REMARK  Name = 
REMARK  7 active torsions:
REMARK  status: ('A' for Active; 'I' for Inactive)
REMARK    1  A    between atoms: C_1  and  C_2
REMARK    2  A    between atoms: C_4  and  C_5
REMARK    3  A    between atoms: C_9  and  C_10
REMARK    4  A    between atoms: C_12  and  C_13
REMARK    5  A    between atoms: C_16  and  C_17
REMARK    6  A    between atoms: C_26  and  N_27
REMARK    7  A    between atoms: N_27  and  C_28
REMARK                            x       y       z     vdW  Elec       q    Type
REMARK                         _______ _______ _______ _____ _____    ______ ____
ROOT
ATOM      1  C   UNL     1      24.065   3.933  51.078  0.00  0.00    -0.025 C 
ATOM      2  C   UNL     1      24.947   2.928  51.233  0.00  0.00    +0.053 C 
ATOM      3  C   UNL     1      26.297   2.803  50.649  0.00  0.00    +0.250 C 
ATOM      4  O   UNL     1      26.818   3.594  49.820  0.00  0.00    -0.270 OA
ATOM      5  N   UNL     1      26.958   1.636  51.128  0.00  0.00    -0.266 N 
ATOM      6  C   UNL     1      26.010   1.028  51.996  0.00  0.00    +0.138 A 
ATOM      7  N   UNL     1      26.227  -0.102  52.711  0.00  0.00    -0.220 NA
ATOM      8  C   UNL     1      25.235  -0.567  53.525  0.00  0.00    +0.120 A 
ATOM      9  N   UNL     1      24.039   0.090  53.609  0.00  0.00    -0.220 NA
ATOM     10  C   UNL     1      23.797   1.233  52.902  0.00  0.00    +0.136 A 
ATOM     11  C   UNL     1      24.817   1.723  52.073  0.00  0.00    +0.067 A 
ATOM     12  H   UNL     1      27.864   1.321  50.908  0.00  0.00    +0.000 HD
ENDROOT
BRANCH   1  18
ATOM     13  C   UNL     1      23.017   4.493  48.123  0.00  0.00    -0.038 C 
ATOM     14  C   UNL     1      23.900   5.360  48.966  0.00  0.00    -0.025 A 
ATOM     15  C   UNL     1      24.449   6.567  48.576  0.00  0.00    -0.028 A 
ATOM     16  C   UNL     1      25.209   7.011  49.654  0.00  0.00    +0.103 A 
ATOM     17  N   UNL     1      25.166   6.112  50.660  0.00  0.00    -0.351 N 
ATOM     18  C   UNL     1      24.350   5.119  50.260  0.00  0.00    +0.043 A 
ATOM     19  H   UNL     1      25.639   6.172  51.521  0.00  0.00    +0.000 HD
BRANCH  16  20
ATOM     20  C   UNL     1      26.004   8.253  49.718  0.00  0.00    +0.263 C 
ATOM     21  O   UNL     1      25.384   9.340  49.887  0.00  0.00    -0.268 OA
ATOM     22  N   UNL     1      27.442   8.264  49.552  0.00  0.00    -0.293 N 
ATOM     23  C   UNL     1      28.222   9.454  49.919  0.00  0.00    +0.030 C 
ATOM     24  C   UNL     1      28.841  10.092  48.648  0.00  0.00    +0.021 C 
ATOM     25  C   UNL     1      30.106  10.888  49.010  0.00  0.00    -0.048 C 
ATOM     26  N   UNL     1      29.107   9.096  47.576  0.00  0.00    -0.308 N 
ATOM     27  C   UNL     1      29.397   7.747  48.104  0.00  0.00    +0.021 C 
ATOM     28  C   UNL     1      29.847   6.808  46.972  0.00  0.00    -0.048 C 
ATOM     29  C   UNL     1      28.130   7.201  48.796  0.00  0.00    +0.030 C 
ATOM     30  H   UNL     1      29.910   9.411  47.031  0.00  0.00    +0.000 HD
ATOM     31  H   UNL     1      28.265   9.027  47.005  0.00  0.00    +0.000 HD
ENDBRANCH  16  20
ENDBRANCH   1  18
BRANCH  10  32
ATOM     32  N   UNL     1      22.501   1.843  52.956  0.00  0.00    -0.299 N 
ATOM     33  H   UNL     1      22.391   2.658  53.499  0.00  0.00    +0.000 HD
BRANCH  32  34
ATOM     34  C   UNL     1      21.350   1.327  52.260  0.00  0.00    +0.034 A 
ATOM     35  C   UNL     1      21.160   1.557  50.882  0.00  0.00    -0.038 A 
ATOM     36  C   UNL     1      20.056   1.012  50.223  0.00  0.00    -0.023 A 
ATOM     37  C   UNL     1      19.136   0.228  50.925  0.00  0.00    +0.142 A 
ATOM     38  F   UNL     1      18.075  -0.302  50.272  0.00  0.00    -0.204 F 
ATOM     39  C   UNL     1      19.321  -0.017  52.292  0.00  0.00    +0.078 A 
ATOM     40 CL   UNL     1      18.179  -1.014  53.178  0.00  0.00    -0.081 Cl
ATOM     41  C   UNL     1      20.427   0.526  52.955  0.00  0.00    -0.019 A 
ENDBRANCH  32  34
ENDBRANCH  10  32
TORSDOF 4
ENDMDL
MODEL 4
REMARK VINA RESULT:    -9.547      5.746      9.514
REMARK INTER + INTRA:         -13.337
REMARK INTER:                 -11.968
REMARK INTRA:                  -1.369
REMARK UNBOUND:                -1.558
REMARK  Name = 
REMARK  7 active torsions:
REMARK  status: ('A' for Active; 'I' for Inactive)
REMARK    1  A    between atoms: C_1  and  C_2
REMARK    2  A    between atoms: C_4  and  C_5
REMARK    3  A    between atoms: C_9  and  C_10
REMARK    4  A    between atoms: C_12  and  C_13
REMARK    5  A    between atoms: C_16  and  C_17
REMARK    6  A    between atoms: C_26  and  N_27
REMARK    7  A    between atoms: N_27  and  C_28
REMARK                            x       y       z     vdW  Elec       q    Type
REMARK                         _______ _______ _______ _____ _____    ______ ____
ROOT
ATOM      1  C   UNL     1      19.328   1.454  52.198  0.00  0.00    -0.025 C 
ATOM      2  C   UNL     1      19.528   1.767  50.905  0.00  0.00    +0.053 C 
ATOM      3  C   UNL     1      20.520   1.196  49.971  0.00  0.00    +0.250 C 
ATOM      4  O   UNL     1      21.420   0.368  50.268  0.00  0.00    -0.270 OA
ATOM      5  N   UNL     1      20.352   1.723  48.659  0.00  0.00    -0.266 N 
ATOM      6  C   UNL     1      19.267   2.633  48.782  0.00  0.00    +0.138 A 
ATOM      7  N   UNL     1      18.732   3.344  47.761  0.00  0.00    -0.220 NA
ATOM      8  C   UNL     1      17.675   4.169  48.015  0.00  0.00    +0.120 A 
ATOM      9  N   UNL     1      17.171   4.283  49.281  0.00  0.00    -0.220 NA
ATOM     10  C   UNL     1      17.690   3.574  50.327  0.00  0.00    +0.136 A 
ATOM     11  C   UNL     1      18.769   2.715  50.069  0.00  0.00    +0.067 A 
ATOM     12  H   UNL     1      20.869   1.506  47.850  0.00  0.00    +0.000 HD
ENDROOT
BRANCH   1  18
ATOM     13  C   UNL     1      18.267  -1.349  53.277  0.00  0.00    -0.038 C 
ATOM     14  C   UNL     1      19.653  -0.790  53.376  0.00  0.00    -0.025 A 
ATOM     15  C   UNL     1      20.723  -1.403  54.001  0.00  0.00    -0.028 A 
ATOM     16  C   UNL     1      21.797  -0.527  53.870  0.00  0.00    +0.103 A 
ATOM     17  N   UNL     1      21.413   0.595  53.225  0.00  0.00    -0.351 N 
ATOM     18  C   UNL     1      20.118   0.431  52.897  0.00  0.00    +0.043 A 
ATOM     19  H   UNL     1      21.972   1.381  53.030  0.00  0.00    +0.000 HD
BRANCH  16  20
ATOM     20  C   UNL     1      23.164  -0.729  54.389  0.00  0.00    +0.263 C 
ATOM     21  O   UNL     1      23.288  -1.194  55.556  0.00  0.00    -0.268 OA
ATOM     22  N   UNL     1      24.343  -0.374  53.628  0.00  0.00    -0.293 N 
ATOM     23  C   UNL     1      25.667  -0.861  54.041  0.00  0.00    +0.030 C 
ATOM     24  C   UNL     1      26.547   0.330  54.503  0.00  0.00    +0.021 C 
ATOM     25  C   UNL     1      28.038  -0.007  54.333  0.00  0.00    -0.048 C 
ATOM     26  N   UNL     1      26.191   1.605  53.824  0.00  0.00    -0.308 N 
ATOM     27  C   UNL     1      25.644   1.400  52.468  0.00  0.00    +0.021 C 
ATOM     28  C   UNL     1      25.473   2.747  51.745  0.00  0.00    -0.048 C 
ATOM     29  C   UNL     1      24.292   0.665  52.582  0.00  0.00    +0.030 C 
ATOM     30  H   UNL     1      27.031   2.180  53.753  0.00  0.00    +0.000 HD
ATOM     31  H   UNL     1      25.467   2.058  54.381  0.00  0.00    +0.000 HD
ENDBRANCH  16  20
ENDBRANCH   1  18
BRANCH  10  32
ATOM     32  N   UNL     1      17.185   3.787  51.652  0.00  0.00    -0.299 N 
ATOM     33  H   UNL     1      17.706   4.358  52.263  0.00  0.00    +0.000 HD
BRANCH  32  34
ATOM     34  C   UNL     1      15.958   3.209  52.136  0.00  0.00    +0.034 A 
ATOM     35  C   UNL     1      15.715   1.823  52.050  0.00  0.00    -0.038 A 
ATOM     36  C   UNL     1      14.534   1.281  52.563  0.00  0.00    -0.023 A 
ATOM     37  C   UNL     1      13.588   2.112  53.172  0.00  0.00    +0.142 A 
ATOM     38  F   UNL     1      12.452   1.573  53.673  0.00  0.00    -0.204 F 
ATOM     39  C   UNL     1      13.825   3.488  53.274  0.00  0.00    +0.078 A 
ATOM     40 CL   UNL     1      12.651   4.536  54.053  0.00  0.00    -0.081 Cl
ATOM     41  C   UNL     1      15.008   4.034  52.763  0.00  0.00    -0.019 A 
ENDBRANCH  32  34
ENDBRANCH  10  32
TORSDOF 4
ENDMDL
MODEL 5
REMARK VINA RESULT:    -9.510      3.328      7.931
REMARK INTER + INTRA:         -13.292
REMARK INTER:                 -12.340
REMARK INTRA:                  -0.952
REMARK UNBOUND:                -1.558
REMARK  Name = 
REMARK  7 active torsions:
REMARK  status: ('A' for Active; 'I' for Inactive)
REMARK    1  A    between atoms: C_1  and  C_2
REMARK    2  A    between atoms: C_4  and  C_5
REMARK    3  A    between atoms: C_9  and  C_10
REMARK    4  A    between atoms: C_12  and  C_13
REMARK    5  A    between atoms: C_16  and  C_17
REMARK    6  A    between atoms: C_26  and  N_27
REMARK    7  A    between atoms: N_27  and  C_28
REMARK                            x       y       z     vdW  Elec       q    Type
REMARK                         _______ _______ _______ _____ _____    ______ ____
ROOT
ATOM      1  C   UNL     1      22.865   0.803  52.366  0.00  0.00    -0.025 C 
ATOM      2  C   UNL     1      22.666   2.110  52.116  0.00  0.00    +0.053 C 
ATOM      3  C   UNL     1      21.480   2.929  52.437  0.00  0.00    +0.250 C 
ATOM      4  O   UNL     1      20.402   2.505  52.928  0.00  0.00    -0.270 OA
ATOM      5  N   UNL     1      21.694   4.296  52.097  0.00  0.00    -0.266 N 
ATOM      6  C   UNL     1      23.005   4.321  51.549  0.00  0.00    +0.138 A 
ATOM      7  N   UNL     1      23.644   5.435  51.119  0.00  0.00    -0.220 NA
ATOM      8  C   UNL     1      24.914   5.320  50.633  0.00  0.00    +0.120 A 
ATOM      9  N   UNL     1      25.526   4.099  50.570  0.00  0.00    -0.220 NA
ATOM     10  C   UNL     1      24.905   2.961  51.000  0.00  0.00    +0.136 A 
ATOM     11  C   UNL     1      23.604   3.075  51.513  0.00  0.00    +0.067 A 
ATOM     12  H   UNL     1      21.074   5.051  52.214  0.00  0.00    +0.000 HD
ENDROOT
BRANCH   1  18
ATOM     13  C   UNL     1      23.341  -1.003  54.946  0.00  0.00    -0.038 C 
ATOM     14  C   UNL     1      22.075  -0.832  54.164  0.00  0.00    -0.025 A 
ATOM     15  C   UNL     1      20.879  -1.474  54.421  0.00  0.00    -0.028 A 
ATOM     16  C   UNL     1      19.990  -1.037  53.444  0.00  0.00    +0.103 A 
ATOM     17  N   UNL     1      20.605  -0.187  52.595  0.00  0.00    -0.351 N 
ATOM     18  C   UNL     1      21.866  -0.035  53.042  0.00  0.00    +0.043 A 
ATOM     19  H   UNL     1      20.209   0.241  51.803  0.00  0.00    +0.000 HD
BRANCH  16  20
ATOM     20  C   UNL     1      18.582  -1.451  53.287  0.00  0.00    +0.263 C 
ATOM     21  O   UNL     1      18.265  -2.613  53.667  0.00  0.00    -0.268 OA
ATOM     22  N   UNL     1      17.583  -0.595  52.683  0.00  0.00    -0.293 N 
ATOM     23  C   UNL     1      16.154  -0.912  52.817  0.00  0.00    +0.030 C 
ATOM     24  C   UNL     1      15.564  -1.285  51.432  0.00  0.00    +0.021 C 
ATOM     25  C   UNL     1      14.053  -1.005  51.400  0.00  0.00    -0.048 C 
ATOM     26  N   UNL     1      16.270  -0.614  50.307  0.00  0.00    -0.308 N 
ATOM     27  C   UNL     1      16.845   0.692  50.687  0.00  0.00    +0.021 C 
ATOM     28  C   UNL     1      17.394   1.423  49.449  0.00  0.00    -0.048 C 
ATOM     29  C   UNL     1      17.963   0.461  51.726  0.00  0.00    +0.030 C 
ATOM     30  H   UNL     1      15.605  -0.467  49.547  0.00  0.00    +0.000 HD
ATOM     31  H   UNL     1      17.042  -1.218  50.025  0.00  0.00    +0.000 HD
ENDBRANCH  16  20
ENDBRANCH   1  18
BRANCH  10  32
ATOM     32  N   UNL     1      25.552   1.692  50.840  0.00  0.00    -0.299 N 
ATOM     33  H   UNL     1      25.406   1.196  50.002  0.00  0.00    +0.000 HD
BRANCH  32  34
ATOM     34  C   UNL     1      26.403   1.102  51.842  0.00  0.00    +0.034 A 
ATOM     35  C   UNL     1      26.343  -0.275  52.138  0.00  0.00    -0.038 A 
ATOM     36  C   UNL     1      27.206  -0.830  53.086  0.00  0.00    -0.023 A 
ATOM     37  C   UNL     1      28.140  -0.022  53.742  0.00  0.00    +0.142 A 
ATOM     38  F   UNL     1      28.977  -0.574  54.652  0.00  0.00    -0.204 F 
ATOM     39  C   UNL     1      28.216   1.345  53.447  0.00  0.00    +0.078 A 
ATOM     40 CL   UNL     1      29.397   2.363  54.253  0.00  0.00    -0.081 Cl
ATOM     41  C   UNL     1      27.354   1.904  52.497  0.00  0.00    -0.019 A 
ENDBRANCH  32  34
ENDBRANCH  10  32
TORSDOF 4
ENDMDL
MODEL 6
REMARK VINA RESULT:    -9.412      4.497      8.305
REMARK INTER + INTRA:         -13.172
REMARK INTER:                 -11.351
REMARK INTRA:                  -1.820
REMARK UNBOUND:                -1.558
REMARK  Name = 
REMARK  7 active torsions:
REMARK  status: ('A' for Active; 'I' for Inactive)
REMARK    1  A    between atoms: C_1  and  C_2
REMARK    2  A    between atoms: C_4  and  C_5
REMARK    3  A    between atoms: C_9  and  C_10
REMARK    4  A    between atoms: C_12  and  C_13
REMARK    5  A    between atoms: C_16  and  C_17
REMARK    6  A    between atoms: C_26  and  N_27
REMARK    7  A    between atoms: N_27  and  C_28
REMARK                            x       y       z     vdW  Elec       q    Type
REMARK                         _______ _______ _______ _____ _____    ______ ____
ROOT
ATOM      1  C   UNL     1      21.627   2.759  51.976  0.00  0.00    -0.025 C 
ATOM      2  C   UNL     1      22.098   1.594  52.456  0.00  0.00    +0.053 C 
ATOM      3  C   UNL     1      21.406   0.291  52.529  0.00  0.00    +0.250 C 
ATOM      4  O   UNL     1      20.202   0.078  52.229  0.00  0.00    -0.270 OA
ATOM      5  N   UNL     1      22.277  -0.726  53.015  0.00  0.00    -0.266 N 
ATOM      6  C   UNL     1      23.503  -0.051  53.259  0.00  0.00    +0.138 A 
ATOM      7  N   UNL     1      24.640  -0.643  53.700  0.00  0.00    -0.220 NA
ATOM      8  C   UNL     1      25.757   0.122  53.873  0.00  0.00    +0.120 A 
ATOM      9  N   UNL     1      25.726   1.464  53.616  0.00  0.00    -0.220 NA
ATOM     10  C   UNL     1      24.595   2.084  53.168  0.00  0.00    +0.136 A 
ATOM     11  C   UNL     1      23.447   1.301  52.976  0.00  0.00    +0.067 A 
ATOM     12  H   UNL     1      22.075  -1.679  53.151  0.00  0.00    +0.000 HD
ENDROOT
BRANCH   1  18
ATOM     13  C   UNL     1      20.884   3.380  48.942  0.00  0.00    -0.038 C 
ATOM     14  C   UNL     1      19.949   3.178  50.095  0.00  0.00    -0.025 A 
ATOM     15  C   UNL     1      18.571   3.263  50.036  0.00  0.00    -0.028 A 
ATOM     16  C   UNL     1      18.116   3.026  51.329  0.00  0.00    +0.103 A 
ATOM     17  N   UNL     1      19.158   2.834  52.166  0.00  0.00    -0.351 N 
ATOM     18  C   UNL     1      20.275   2.897  51.418  0.00  0.00    +0.043 A 
ATOM     19  H   UNL     1      19.110   2.677  53.137  0.00  0.00    +0.000 HD
BRANCH  16  20
ATOM     20  C   UNL     1      16.711   3.024  51.781  0.00  0.00    +0.263 C 
ATOM     21  O   UNL     1      16.266   4.072  52.325  0.00  0.00    -0.268 OA
ATOM     22  N   UNL     1      15.858   1.861  51.659  0.00  0.00    -0.293 N 
ATOM     23  C   UNL     1      14.404   1.985  51.834  0.00  0.00    +0.030 C 
ATOM     24  C   UNL     1      13.960   1.224  53.111  0.00  0.00    +0.021 C 
ATOM     25  C   UNL     1      12.487   0.796  52.994  0.00  0.00    -0.048 C 
ATOM     26  N   UNL     1      14.843   0.070  53.429  0.00  0.00    -0.308 N 
ATOM     27  C   UNL     1      15.462  -0.528  52.229  0.00  0.00    +0.021 C 
ATOM     28  C   UNL     1      16.208  -1.823  52.594  0.00  0.00    -0.048 C 
ATOM     29  C   UNL     1      16.426   0.500  51.601  0.00  0.00    +0.030 C 
ATOM     30  H   UNL     1      14.287  -0.645  53.899  0.00  0.00    +0.000 HD
ATOM     31  H   UNL     1      15.597   0.415  54.023  0.00  0.00    +0.000 HD
ENDBRANCH  16  20
ENDBRANCH   1  18
BRANCH  10  32
ATOM     32  N   UNL     1      24.585   3.507  52.990  0.00  0.00    -0.299 N 
ATOM     33  H   UNL     1      24.637   4.077  53.792  0.00  0.00    +0.000 HD
BRANCH  32  34
ATOM     34  C   UNL     1      24.499   4.146  51.702  0.00  0.00    +0.034 A 
ATOM     35  C   UNL     1      25.016   3.533  50.542  0.00  0.00    -0.038 A 
ATOM     36  C   UNL     1      24.886   4.156  49.299  0.00  0.00    -0.023 A 
ATOM     37  C   UNL     1      24.235   5.390  49.196  0.00  0.00    +0.142 A 
ATOM     38  F   UNL     1      24.108   5.978  47.984  0.00  0.00    -0.204 F 
ATOM     39  C   UNL     1      23.708   6.002  50.341  0.00  0.00    +0.078 A 
ATOM     40 CL   UNL     1      22.874   7.542  50.219  0.00  0.00    -0.081 Cl
ATOM     41  C   UNL     1      23.835   5.380  51.588  0.00  0.00    -0.019 A 
ENDBRANCH  32  34
ENDBRANCH  10  32
TORSDOF 4
ENDMDL
MODEL 7
REMARK VINA RESULT:    -9.354      5.144      8.102
REMARK INTER + INTRA:         -13.099
REMARK INTER:                 -11.345
REMARK INTRA:                  -1.754
REMARK UNBOUND:                -1.558
REMARK  Name = 
REMARK  7 active torsions:
REMARK  status: ('A' for Active; 'I' for Inactive)
REMARK    1  A    between atoms: C_1  and  C_2
REMARK    2  A    between atoms: C_4  and  C_5
REMARK    3  A    between atoms: C_9  and  C_10
REMARK    4  A    between atoms: C_12  and  C_13
REMARK    5  A    between atoms: C_16  and  C_17
REMARK    6  A    between atoms: C_26  and  N_27
REMARK    7  A    between atoms: N_27  and  C_28
REMARK                            x       y       z     vdW  Elec       q    Type
REMARK                         _______ _______ _______ _____ _____    ______ ____
ROOT
ATOM      1  C   UNL     1      20.985   1.499  51.228  0.00  0.00    -0.025 C 
ATOM      2  C   UNL     1      20.446   0.639  52.111  0.00  0.00    +0.053 C 
ATOM      3  C   UNL     1      21.002   0.194  53.404  0.00  0.00    +0.250 C 
ATOM      4  O   UNL     1      22.139   0.485  53.858  0.00  0.00    -0.270 OA
ATOM      5  N   UNL     1      20.083  -0.649  54.094  0.00  0.00    -0.266 N 
ATOM      6  C   UNL     1      18.966  -0.740  53.221  0.00  0.00    +0.138 A 
ATOM      7  N   UNL     1      17.825  -1.419  53.489  0.00  0.00    -0.220 NA
ATOM      8  C   UNL     1      16.818  -1.407  52.568  0.00  0.00    +0.120 A 
ATOM      9  N   UNL     1      16.963  -0.728  51.390  0.00  0.00    -0.220 NA
ATOM     10  C   UNL     1      18.101  -0.033  51.097  0.00  0.00    +0.136 A 
ATOM     11  C   UNL     1      19.135  -0.032  52.045  0.00  0.00    +0.067 A 
ATOM     12  H   UNL     1      20.197  -1.073  54.975  0.00  0.00    +0.000 HD
ENDROOT
BRANCH   1  18
ATOM     13  C   UNL     1      21.482   4.621  51.618  0.00  0.00    -0.038 C 
ATOM     14  C   UNL     1      22.499   3.521  51.612  0.00  0.00    -0.025 A 
ATOM     15  C   UNL     1      23.864   3.689  51.746  0.00  0.00    -0.028 A 
ATOM     16  C   UNL     1      24.418   2.415  51.664  0.00  0.00    +0.103 A 
ATOM     17  N   UNL     1      23.452   1.495  51.455  0.00  0.00    -0.351 N 
ATOM     18  C   UNL     1      22.280   2.157  51.451  0.00  0.00    +0.043 A 
ATOM     19  H   UNL     1      23.580   0.527  51.332  0.00  0.00    +0.000 HD
BRANCH  16  20
ATOM     20  C   UNL     1      25.852   2.073  51.737  0.00  0.00    +0.263 C 
ATOM     21  O   UNL     1      26.517   2.091  50.664  0.00  0.00    -0.268 OA
ATOM     22  N   UNL     1      26.495   1.682  52.974  0.00  0.00    -0.293 N 
ATOM     23  C   UNL     1      27.961   1.645  53.069  0.00  0.00    +0.030 C 
ATOM     24  C   UNL     1      28.441   0.181  53.254  0.00  0.00    +0.021 C 
ATOM     25  C   UNL     1      29.804   0.150  53.965  0.00  0.00    -0.048 C 
ATOM     26  N   UNL     1      27.438  -0.669  53.950  0.00  0.00    -0.308 N 
ATOM     27  C   UNL     1      26.588   0.095  54.886  0.00  0.00    +0.021 C 
ATOM     28  C   UNL     1      25.705  -0.856  55.713  0.00  0.00    -0.048 C 
ATOM     29  C   UNL     1      25.722   1.084  54.079  0.00  0.00    +0.030 C 
ATOM     30  H   UNL     1      27.933  -1.391  54.475  0.00  0.00    +0.000 HD
ATOM     31  H   UNL     1      26.827  -1.069  53.238  0.00  0.00    +0.000 HD
ENDBRANCH  16  20
ENDBRANCH   1  18
BRANCH  10  32
ATOM     32  N   UNL     1      18.242   0.594  49.815  0.00  0.00    -0.299 N 
ATOM     33  H   UNL     1      18.832   0.170  49.150  0.00  0.00    +0.000 HD
BRANCH  32  34
ATOM     34  C   UNL     1      17.568   1.814  49.450  0.00  0.00    +0.034 A 
ATOM     35  C   UNL     1      16.180   1.841  49.205  0.00  0.00    -0.038 A 
ATOM     36  C   UNL     1      15.543   3.044  48.891  0.00  0.00    -0.023 A 
ATOM     37  C   UNL     1      16.280   4.231  48.823  0.00  0.00    +0.142 A 
ATOM     38  F   UNL     1      15.649   5.391  48.526  0.00  0.00    -0.204 F 
ATOM     39  C   UNL     1      17.658   4.217  49.075  0.00  0.00    +0.078 A 
ATOM     40 CL   UNL     1      18.587   5.705  49.009  0.00  0.00    -0.081 Cl
ATOM     41  C   UNL     1      18.298   3.014  49.392  0.00  0.00    -0.019 A 
ENDBRANCH  32  34
ENDBRANCH  10  32
TORSDOF 4
ENDMDL
MODEL 8
REMARK VINA RESULT:    -9.182      1.608      2.112
REMARK INTER + INTRA:         -12.888
REMARK INTER:                 -11.717
REMARK INTRA:                  -1.170
REMARK UNBOUND:                -1.558
REMARK  Name = 
REMARK  7 active torsions:
REMARK  status: ('A' for Active; 'I' for Inactive)
REMARK    1  A    between atoms: C_1  and  C_2
REMARK    2  A    between atoms: C_4  and  C_5
REMARK    3  A    between atoms: C_9  and  C_10
REMARK    4  A    between atoms: C_12  and  C_13
REMARK    5  A    between atoms: C_16  and  C_17
REMARK    6  A    between atoms: C_26  and  N_27
REMARK    7  A    between atoms: N_27  and  C_28
REMARK                            x       y       z     vdW  Elec       q    Type
REMARK                         _______ _______ _______ _____ _____    ______ ____
ROOT
ATOM      1  C   UNL     1      23.335   3.692  50.356  0.00  0.00    -0.025 C 
ATOM      2  C   UNL     1      22.266   3.470  51.142  0.00  0.00    +0.053 C 
ATOM      3  C   UNL     1      21.061   4.308  51.299  0.00  0.00    +0.250 C 
ATOM      4  O   UNL     1      20.875   5.439  50.778  0.00  0.00    -0.270 OA
ATOM      5  N   UNL     1      20.109   3.682  52.154  0.00  0.00    -0.266 N 
ATOM      6  C   UNL     1      20.731   2.464  52.541  0.00  0.00    +0.138 A 
ATOM      7  N   UNL     1      20.166   1.522  53.333  0.00  0.00    -0.220 NA
ATOM      8  C   UNL     1      20.869   0.385  53.609  0.00  0.00    +0.120 A 
ATOM      9  N   UNL     1      22.126   0.206  53.104  0.00  0.00    -0.220 NA
ATOM     10  C   UNL     1      22.717   1.138  52.300  0.00  0.00    +0.136 A 
ATOM     11  C   UNL     1      21.994   2.304  52.002  0.00  0.00    +0.067 A 
ATOM     12  H   UNL     1      19.222   4.017  52.418  0.00  0.00    +0.000 HD
ENDROOT
BRANCH   1  18
ATOM     13  C   UNL     1      22.181   3.990  47.402  0.00  0.00    -0.038 C 
ATOM     14  C   UNL     1      22.953   4.999  48.194  0.00  0.00    -0.025 A 
ATOM     15  C   UNL     1      23.331   6.251  47.747  0.00  0.00    -0.028 A 
ATOM     16  C   UNL     1      24.040   6.834  48.793  0.00  0.00    +0.103 A 
ATOM     17  N   UNL     1      24.131   5.979  49.833  0.00  0.00    -0.351 N 
ATOM     18  C   UNL     1      23.449   4.872  49.488  0.00  0.00    +0.043 A 
ATOM     19  H   UNL     1      24.605   6.136  50.682  0.00  0.00    +0.000 HD
BRANCH  16  20
ATOM     20  C   UNL     1      24.665   8.173  48.794  0.00  0.00    +0.263 C 
ATOM     21  O   UNL     1      23.942   9.158  48.478  0.00  0.00    -0.268 OA
ATOM     22  N   UNL     1      26.065   8.376  49.100  0.00  0.00    -0.293 N 
ATOM     23  C   UNL     1      26.573   9.725  49.387  0.00  0.00    +0.030 C 
ATOM     24  C   UNL     1      27.545  10.171  48.263  0.00  0.00    +0.021 C 
ATOM     25  C   UNL     1      28.539  11.215  48.799  0.00  0.00    -0.048 C 
ATOM     26  N   UNL     1      28.245   9.027  47.620  0.00  0.00    -0.308 N 
ATOM     27  C   UNL     1      28.435   7.883  48.533  0.00  0.00    +0.021 C 
ATOM     28  C   UNL     1      29.324   6.811  47.879  0.00  0.00    -0.048 C 
ATOM     29  C   UNL     1      27.054   7.300  48.897  0.00  0.00    +0.030 C 
ATOM     30  H   UNL     1      29.160   9.344  47.300  0.00  0.00    +0.000 HD
ATOM     31  H   UNL     1      27.662   8.708  46.846  0.00  0.00    +0.000 HD
ENDBRANCH  16  20
ENDBRANCH   1  18
BRANCH  10  32
ATOM     32  N   UNL     1      24.068   0.947  51.860  0.00  0.00    -0.299 N 
ATOM     33  H   UNL     1      24.249   0.954  50.892  0.00  0.00    +0.000 HD
BRANCH  32  34
ATOM     34  C   UNL     1      25.175   0.744  52.760  0.00  0.00    +0.034 A 
ATOM     35  C   UNL     1      25.234  -0.381  53.609  0.00  0.00    -0.038 A 
ATOM     36  C   UNL     1      26.337  -0.575  54.443  0.00  0.00    -0.023 A 
ATOM     37  C   UNL     1      27.393   0.342  54.436  0.00  0.00    +0.142 A 
ATOM     38  F   UNL     1      28.460   0.137  55.243  0.00  0.00    -0.204 F 
ATOM     39  C   UNL     1      27.350   1.456  53.588  0.00  0.00    +0.078 A 
ATOM     40 CL   UNL     1      28.679   2.603  53.560  0.00  0.00    -0.081 Cl
ATOM     41  C   UNL     1      26.247   1.653  52.749  0.00  0.00    -0.019 A 
ENDBRANCH  32  34
ENDBRANCH  10  32
TORSDOF 4
ENDMDL
MODEL 9
REMARK VINA RESULT:    -8.833      4.278      8.312
REMARK INTER + INTRA:         -12.456
REMARK INTER:                 -10.858
REMARK INTRA:                  -1.598
REMARK UNBOUND:                -1.558
REMARK  Name = 
REMARK  7 active torsions:
REMARK  status: ('A' for Active; 'I' for Inactive)
REMARK    1  A    between atoms: C_1  and  C_2
REMARK    2  A    between atoms: C_4  and  C_5
REMARK    3  A    between atoms: C_9  and  C_10
REMARK    4  A    between atoms: C_12  and  C_13
REMARK    5  A    between atoms: C_16  and  C_17
REMARK    6  A    between atoms: C_26  and  N_27
REMARK    7  A    between atoms: N_27  and  C_28
REMARK                            x       y       z     vdW  Elec       q    Type
REMARK                         _______ _______ _______ _____ _____    ______ ____
ROOT
ATOM      1  C   UNL     1      21.337   1.342  51.636  0.00  0.00    -0.025 C 
ATOM      2  C   UNL     1      21.382   2.676  51.467  0.00  0.00    +0.053 C 
ATOM      3  C   UNL     1      20.264   3.640  51.529  0.00  0.00    +0.250 C 
ATOM      4  O   UNL     1      19.047   3.350  51.663  0.00  0.00    -0.270 OA
ATOM      5  N   UNL     1      20.733   4.978  51.392  0.00  0.00    -0.266 N 
ATOM      6  C   UNL     1      22.138   4.843  51.228  0.00  0.00    +0.138 A 
ATOM      7  N   UNL     1      23.007   5.874  51.098  0.00  0.00    -0.220 NA
ATOM      8  C   UNL     1      24.338   5.603  50.969  0.00  0.00    +0.120 A 
ATOM      9  N   UNL     1      24.786   4.311  50.960  0.00  0.00    -0.220 NA
ATOM     10  C   UNL     1      23.932   3.254  51.093  0.00  0.00    +0.136 A 
ATOM     11  C   UNL     1      22.564   3.527  51.239  0.00  0.00    +0.067 A 
ATOM     12  H   UNL     1      20.204   5.807  51.406  0.00  0.00    +0.000 HD
ENDROOT
BRANCH   1  18
ATOM     13  C   UNL     1      20.780  -0.529  54.153  0.00  0.00    -0.038 C 
ATOM     14  C   UNL     1      19.850  -0.204  53.025  0.00  0.00    -0.025 A 
ATOM     15  C   UNL     1      18.571  -0.704  52.868  0.00  0.00    -0.028 A 
ATOM     16  C   UNL     1      18.087  -0.157  51.684  0.00  0.00    +0.103 A 
ATOM     17  N   UNL     1      19.027   0.622  51.107  0.00  0.00    -0.351 N 
ATOM     18  C   UNL     1      20.092   0.621  51.930  0.00  0.00    +0.043 A 
ATOM     19  H   UNL     1      18.948   1.100  50.250  0.00  0.00    +0.000 HD
BRANCH  16  20
ATOM     20  C   UNL     1      16.763  -0.402  51.078  0.00  0.00    +0.263 C 
ATOM     21  O   UNL     1      16.722  -1.052  49.997  0.00  0.00    -0.268 OA
ATOM     22  N   UNL     1      15.538   0.109  51.656  0.00  0.00    -0.293 N 
ATOM     23  C   UNL     1      14.236  -0.401  51.206  0.00  0.00    +0.030 C 
ATOM     24  C   UNL     1      13.454   0.722  50.473  0.00  0.00    +0.021 C 
ATOM     25  C   UNL     1      11.941   0.462  50.555  0.00  0.00    -0.048 C 
ATOM     26  N   UNL     1      13.805   2.081  50.965  0.00  0.00    -0.308 N 
ATOM     27  C   UNL     1      14.221   2.090  52.382  0.00  0.00    +0.021 C 
ATOM     28  C   UNL     1      14.388   3.534  52.887  0.00  0.00    -0.048 C 
ATOM     29  C   UNL     1      15.543   1.307  52.518  0.00  0.00    +0.030 C 
ATOM     30  H   UNL     1      12.989   2.685  50.862  0.00  0.00    +0.000 HD
ATOM     31  H   UNL     1      14.595   2.414  50.412  0.00  0.00    +0.000 HD
ENDBRANCH  16  20
ENDBRANCH   1  18
BRANCH  10  32
ATOM     32  N   UNL     1      24.435   1.915  50.995  0.00  0.00    -0.299 N 
ATOM     33  H   UNL     1      24.175   1.374  50.214  0.00  0.00    +0.000 HD
BRANCH  32  34
ATOM     34  C   UNL     1      25.300   1.317  51.980  0.00  0.00    +0.034 A 
ATOM     35  C   UNL     1      26.685   1.583  51.999  0.00  0.00    -0.038 A 
ATOM     36  C   UNL     1      27.496   1.022  52.989  0.00  0.00    -0.023 A 
ATOM     37  C   UNL     1      26.937   0.199  53.971  0.00  0.00    +0.142 A 
ATOM     38  F   UNL     1      27.733  -0.330  54.930  0.00  0.00    -0.204 F 
ATOM     39  C   UNL     1      25.561  -0.061  53.969  0.00  0.00    +0.078 A 
ATOM     40 CL   UNL     1      24.847  -1.079  55.209  0.00  0.00    -0.081 Cl
ATOM     41  C   UNL     1      24.745   0.500  52.980  0.00  0.00    -0.019 A 
ENDBRANCH  32  34
ENDBRANCH  10  32
TORSDOF 4
ENDMDL
