MODEL 1
REMARK VINA RESULT:    -9.789      0.000      0.000
REMARK INTER + INTRA:         -12.787
REMARK INTER:                 -12.078
REMARK INTRA:                  -0.709
REMARK UNBOUND:                -0.709
REMARK  Name = 
REMARK  4 active torsions:
REMARK  status: ('A' for Active; 'I' for Inactive)
REMARK    1  A    between atoms: C_8  and  N_9
REMARK    2  A    between atoms: N_9  and  C_10
REMARK    3  A    between atoms: C_17  and  N_18
REMARK    4  A    between atoms: N_18  and  C_19
REMARK                            x       y       z     vdW  Elec       q    Type
REMARK                         _______ _______ _______ _____ _____    ______ ____
ROOT
ATOM      1  O   UNL     1      19.571  -0.339  53.143  0.00  0.00    -0.270 OA
ATOM      2  C   UNL     1      20.725  -0.511  53.617  0.00  0.00    +0.251 C 
ATOM      3  N   UNL     1      21.003  -1.301  54.771  0.00  0.00    -0.248 N 
ATOM      4  C   UNL     1      22.417  -1.210  54.931  0.00  0.00    +0.251 C 
ATOM      5  O   UNL     1      23.060  -1.779  55.852  0.00  0.00    -0.270 OA
ATOM      6  C   UNL     1      22.990  -0.371  53.884  0.00  0.00    +0.051 A 
ATOM      7  C   UNL     1      24.308  -0.003  53.634  0.00  0.00    -0.026 A 
ATOM      8  C   UNL     1      24.577   0.827  52.520  0.00  0.00    +0.054 A 
ATOM      9  C   UNL     1      23.503   1.294  51.709  0.00  0.00    +0.054 A 
ATOM     10  C   UNL     1      22.179   0.884  51.988  0.00  0.00    -0.026 A 
ATOM     11  C   UNL     1      21.959   0.057  53.084  0.00  0.00    +0.051 A 
ATOM     12  H   UNL     1      20.363  -1.799  55.329  0.00  0.00    +0.000 HD
ENDROOT
BRANCH   8  13
ATOM     13  N   UNL     1      25.921   1.267  52.259  0.00  0.00    -0.313 N 
ATOM     14  H   UNL     1      26.044   2.076  51.714  0.00  0.00    +0.000 HD
BRANCH  13  15
ATOM     15  C   UNL     1      27.098   0.596  52.744  0.00  0.00    +0.032 A 
ATOM     16  C   UNL     1      27.275  -0.790  52.570  0.00  0.00    -0.038 A 
ATOM     17  C   UNL     1      28.438  -1.415  53.030  0.00  0.00    -0.025 A 
ATOM     18  C   UNL     1      29.438  -0.664  53.654  0.00  0.00    +0.124 A 
ATOM     19  F   UNL     1      30.566  -1.271  54.097  0.00  0.00    -0.205 F 
ATOM     20  C   UNL     1      29.279   0.716  53.811  0.00  0.00    -0.025 A 
ATOM     21  C   UNL     1      28.118   1.344  53.352  0.00  0.00    -0.038 A 
ENDBRANCH  13  15
ENDBRANCH   8  13
BRANCH   9  22
ATOM     22  N   UNL     1      23.776   2.111  50.557  0.00  0.00    -0.313 N 
ATOM     23  H   UNL     1      23.795   1.675  49.675  0.00  0.00    +0.000 HD
BRANCH  22  24
ATOM     24  C   UNL     1      24.022   3.528  50.614  0.00  0.00    +0.032 A 
ATOM     25  C   UNL     1      25.004   4.091  49.785  0.00  0.00    -0.038 A 
ATOM     26  C   UNL     1      25.276   5.462  49.840  0.00  0.00    -0.025 A 
ATOM     27  C   UNL     1      24.577   6.279  50.733  0.00  0.00    +0.124 A 
ATOM     28  F   UNL     1      24.843   7.607  50.787  0.00  0.00    -0.205 F 
ATOM     29  C   UNL     1      23.612   5.724  51.577  0.00  0.00    -0.025 A 
ATOM     30  C   UNL     1      23.338   4.354  51.525  0.00  0.00    -0.038 A 
ENDBRANCH  22  24
ENDBRANCH   9  22
TORSDOF 4
ENDMDL
MODEL 2
REMARK VINA RESULT:    -9.778      0.078      5.940
REMARK INTER + INTRA:         -12.774
REMARK INTER:                 -12.062
REMARK INTRA:                  -0.712
REMARK UNBOUND:                -0.709
REMARK  Name = 
REMARK  4 active torsions:
REMARK  status: ('A' for Active; 'I' for Inactive)
REMARK    1  A    between atoms: C_8  and  N_9
REMARK    2  A    between atoms: N_9  and  C_10
REMARK    3  A    between atoms: C_17  and  N_18
REMARK    4  A    between atoms: N_18  and  C_19
REMARK                            x       y       z     vdW  Elec       q    Type
REMARK                         _______ _______ _______ _____ _____    ______ ____
ROOT
ATOM      1  O   UNL     1      23.025  -1.828  55.841  0.00  0.00    -0.270 OA
ATOM      2  C   UNL     1      22.384  -1.244  54.928  0.00  0.00    +0.251 C 
ATOM      3  N   UNL     1      20.970  -1.337  54.762  0.00  0.00    -0.248 N 
ATOM      4  C   UNL     1      20.694  -0.527  53.621  0.00  0.00    +0.251 C 
ATOM      5  O   UNL     1      19.541  -0.349  53.146  0.00  0.00    -0.270 OA
ATOM      6  C   UNL     1      21.928   0.051  53.101  0.00  0.00    +0.051 A 
ATOM      7  C   UNL     1      22.150   0.897  52.020  0.00  0.00    -0.026 A 
ATOM      8  C   UNL     1      23.474   1.314  51.751  0.00  0.00    +0.054 A 
ATOM      9  C   UNL     1      24.546   0.835  52.558  0.00  0.00    +0.054 A 
ATOM     10  C   UNL     1      24.276  -0.013  53.657  0.00  0.00    -0.026 A 
ATOM     11  C   UNL     1      22.958  -0.388  53.896  0.00  0.00    +0.051 A 
ATOM     12  H   UNL     1      20.330  -1.845  55.311  0.00  0.00    +0.000 HD
ENDROOT
BRANCH   8  13
ATOM     13  N   UNL     1      23.748   2.150  50.614  0.00  0.00    -0.313 N 
ATOM     14  H   UNL     1      23.773   1.729  49.725  0.00  0.00    +0.000 HD
BRANCH  13  15
ATOM     15  C   UNL     1      23.990   3.567  50.694  0.00  0.00    +0.032 A 
ATOM     16  C   UNL     1      23.272   4.382  51.589  0.00  0.00    -0.038 A 
ATOM     17  C   UNL     1      23.540   5.753  51.665  0.00  0.00    -0.025 A 
ATOM     18  C   UNL     1      24.534   6.317  50.860  0.00  0.00    +0.124 A 
ATOM     19  F   UNL     1      24.795   7.646  50.937  0.00  0.00    -0.205 F 
ATOM     20  C   UNL     1      25.266   5.511  49.985  0.00  0.00    -0.025 A 
ATOM     21  C   UNL     1      25.000   4.141  49.906  0.00  0.00    -0.038 A 
ENDBRANCH  13  15
ENDBRANCH   8  13
BRANCH   9  22
ATOM     22  N   UNL     1      25.890   1.282  52.307  0.00  0.00    -0.313 N 
ATOM     23  H   UNL     1      26.013   2.103  51.778  0.00  0.00    +0.000 HD
BRANCH  22  24
ATOM     24  C   UNL     1      27.067   0.605  52.784  0.00  0.00    +0.032 A 
ATOM     25  C   UNL     1      28.083   1.344  53.409  0.00  0.00    -0.038 A 
ATOM     26  C   UNL     1      29.245   0.709  53.859  0.00  0.00    -0.025 A 
ATOM     27  C   UNL     1      29.408  -0.667  53.677  0.00  0.00    +0.124 A 
ATOM     28  F   UNL     1      30.535  -1.280  54.111  0.00  0.00    -0.205 F 
ATOM     29  C   UNL     1      28.411  -1.408  53.036  0.00  0.00    -0.025 A 
ATOM     30  C   UNL     1      27.248  -0.777  52.585  0.00  0.00    -0.038 A 
ENDBRANCH  22  24
ENDBRANCH   9  22
TORSDOF 4
ENDMDL
MODEL 3
REMARK VINA RESULT:    -9.158      2.078      2.881
REMARK INTER + INTRA:         -12.009
REMARK INTER:                 -11.074
REMARK INTRA:                  -0.935
REMARK UNBOUND:                -0.709
REMARK  Name = 
REMARK  4 active torsions:
REMARK  status: ('A' for Active; 'I' for Inactive)
REMARK    1  A    between atoms: C_8  and  N_9
REMARK    2  A    between atoms: N_9  and  C_10
REMARK    3  A    between atoms: C_17  and  N_18
REMARK    4  A    between atoms: N_18  and  C_19
REMARK                            x       y       z     vdW  Elec       q    Type
REMARK                         _______ _______ _______ _____ _____    ______ ____
ROOT
ATOM      1  O   UNL     1      20.946   1.596  48.953  0.00  0.00    -0.270 OA
ATOM      2  C   UNL     1      21.331   1.524  50.149  0.00  0.00    +0.251 C 
ATOM      3  N   UNL     1      20.503   1.098  51.229  0.00  0.00    -0.248 N 
ATOM      4  C   UNL     1      21.348   1.175  52.375  0.00  0.00    +0.251 C 
ATOM      5  O   UNL     1      20.980   0.876  53.542  0.00  0.00    -0.270 OA
ATOM      6  C   UNL     1      22.675   1.643  51.994  0.00  0.00    +0.051 A 
ATOM      7  C   UNL     1      23.814   1.866  52.759  0.00  0.00    -0.026 A 
ATOM      8  C   UNL     1      24.986   2.320  52.109  0.00  0.00    +0.054 A 
ATOM      9  C   UNL     1      24.966   2.571  50.706  0.00  0.00    +0.054 A 
ATOM     10  C   UNL     1      23.791   2.317  49.962  0.00  0.00    -0.026 A 
ATOM     11  C   UNL     1      22.665   1.858  50.637  0.00  0.00    +0.051 A 
ATOM     12  H   UNL     1      19.561   0.813  51.191  0.00  0.00    +0.000 HD
ENDROOT
BRANCH   8  13
ATOM     13  N   UNL     1      26.169   2.608  52.874  0.00  0.00    -0.313 N 
ATOM     14  H   UNL     1      26.297   3.527  53.198  0.00  0.00    +0.000 HD
BRANCH  13  15
ATOM     15  C   UNL     1      27.178   1.633  53.195  0.00  0.00    +0.032 A 
ATOM     16  C   UNL     1      26.974   0.261  52.958  0.00  0.00    -0.038 A 
ATOM     17  C   UNL     1      27.979  -0.664  53.257  0.00  0.00    -0.025 A 
ATOM     18  C   UNL     1      29.199  -0.227  53.782  0.00  0.00    +0.124 A 
ATOM     19  F   UNL     1      30.173  -1.125  54.069  0.00  0.00    -0.205 F 
ATOM     20  C   UNL     1      29.417   1.135  54.001  0.00  0.00    -0.025 A 
ATOM     21  C   UNL     1      28.415   2.063  53.703  0.00  0.00    -0.038 A 
ENDBRANCH  13  15
ENDBRANCH   8  13
BRANCH   9  22
ATOM     22  N   UNL     1      26.164   3.001  50.036  0.00  0.00    -0.313 N 
ATOM     23  H   UNL     1      26.864   2.330  49.865  0.00  0.00    +0.000 HD
BRANCH  22  24
ATOM     24  C   UNL     1      26.402   4.350  49.598  0.00  0.00    +0.032 A 
ATOM     25  C   UNL     1      25.486   5.358  49.938  0.00  0.00    -0.038 A 
ATOM     26  C   UNL     1      25.687   6.673  49.504  0.00  0.00    -0.025 A 
ATOM     27  C   UNL     1      26.797   6.989  48.716  0.00  0.00    +0.124 A 
ATOM     28  F   UNL     1      26.988   8.262  48.294  0.00  0.00    -0.205 F 
ATOM     29  C   UNL     1      27.703   5.988  48.355  0.00  0.00    -0.025 A 
ATOM     30  C   UNL     1      27.506   4.673  48.786  0.00  0.00    -0.038 A 
ENDBRANCH  22  24
ENDBRANCH   9  22
TORSDOF 4
ENDMDL
MODEL 4
REMARK VINA RESULT:    -9.140      3.534      7.520
REMARK INTER + INTRA:         -11.986
REMARK INTER:                 -11.256
REMARK INTRA:                  -0.731
REMARK UNBOUND:                -0.709
REMARK  Name = 
REMARK  4 active torsions:
REMARK  status: ('A' for Active; 'I' for Inactive)
REMARK    1  A    between atoms: C_8  and  N_9
REMARK    2  A    between atoms: N_9  and  C_10
REMARK    3  A    between atoms: C_17  and  N_18
REMARK    4  A    between atoms: N_18  and  C_19
REMARK                            x       y       z     vdW  Elec       q    Type
REMARK                         _______ _______ _______ _____ _____    ______ ____
ROOT
ATOM      1  O   UNL     1      27.576   4.217  48.769  0.00  0.00    -0.270 OA
ATOM      2  C   UNL     1      26.534   4.423  49.444  0.00  0.00    +0.251 C 
ATOM      3  N   UNL     1      25.757   5.617  49.366  0.00  0.00    -0.248 N 
ATOM      4  C   UNL     1      24.692   5.408  50.291  0.00  0.00    +0.251 C 
ATOM      5  O   UNL     1      23.778   6.246  50.515  0.00  0.00    -0.270 OA
ATOM      6  C   UNL     1      24.822   4.100  50.924  0.00  0.00    +0.051 A 
ATOM      7  C   UNL     1      24.028   3.468  51.874  0.00  0.00    -0.026 A 
ATOM      8  C   UNL     1      24.396   2.172  52.307  0.00  0.00    +0.054 A 
ATOM      9  C   UNL     1      25.579   1.563  51.795  0.00  0.00    +0.054 A 
ATOM     10  C   UNL     1      26.350   2.234  50.818  0.00  0.00    -0.026 A 
ATOM     11  C   UNL     1      25.946   3.500  50.409  0.00  0.00    +0.051 A 
ATOM     12  H   UNL     1      25.919   6.406  48.800  0.00  0.00    +0.000 HD
ENDROOT
BRANCH   8  13
ATOM     13  N   UNL     1      23.627   1.507  53.323  0.00  0.00    -0.313 N 
ATOM     14  H   UNL     1      23.988   1.489  54.238  0.00  0.00    +0.000 HD
BRANCH  13  15
ATOM     15  C   UNL     1      22.361   0.864  53.085  0.00  0.00    +0.032 A 
ATOM     16  C   UNL     1      21.623   0.288  54.136  0.00  0.00    -0.038 A 
ATOM     17  C   UNL     1      20.385  -0.311  53.883  0.00  0.00    -0.025 A 
ATOM     18  C   UNL     1      19.868  -0.327  52.585  0.00  0.00    +0.124 A 
ATOM     19  F   UNL     1      18.666  -0.906  52.341  0.00  0.00    -0.205 F 
ATOM     20  C   UNL     1      20.584   0.262  51.540  0.00  0.00    -0.025 A 
ATOM     21  C   UNL     1      21.822   0.861  51.789  0.00  0.00    -0.038 A 
ENDBRANCH  13  15
ENDBRANCH   8  13
BRANCH   9  22
ATOM     22  N   UNL     1      25.939   0.233  52.207  0.00  0.00    -0.313 N 
ATOM     23  H   UNL     1      25.251  -0.470  52.152  0.00  0.00    +0.000 HD
BRANCH  22  24
ATOM     24  C   UNL     1      27.241  -0.134  52.695  0.00  0.00    +0.032 A 
ATOM     25  C   UNL     1      27.625  -1.484  52.686  0.00  0.00    -0.038 A 
ATOM     26  C   UNL     1      28.879  -1.866  53.177  0.00  0.00    -0.025 A 
ATOM     27  C   UNL     1      29.752  -0.905  53.692  0.00  0.00    +0.124 A 
ATOM     28  F   UNL     1      30.965  -1.277  54.170  0.00  0.00    -0.205 F 
ATOM     29  C   UNL     1      29.370   0.439  53.725  0.00  0.00    -0.025 A 
ATOM     30  C   UNL     1      28.119   0.825  53.235  0.00  0.00    -0.038 A 
ENDBRANCH  22  24
ENDBRANCH   9  22
TORSDOF 4
ENDMDL
MODEL 5
REMARK VINA RESULT:    -9.127      3.447      5.806
REMARK INTER + INTRA:         -11.971
REMARK INTER:                 -11.335
REMARK INTRA:                  -0.636
REMARK UNBOUND:                -0.709
REMARK  Name = 
REMARK  4 active torsions:
REMARK  status: ('A' for Active; 'I' for Inactive)
REMARK    1  A    between atoms: C_8  and  N_9
REMARK    2  A    between atoms: N_9  and  C_10
REMARK    3  A    between atoms: C_17  and  N_18
REMARK    4  A    between atoms: N_18  and  C_19
REMARK                            x       y       z     vdW  Elec       q    Type
REMARK                         _______ _______ _______ _____ _____    ______ ____
ROOT
ATOM      1  O   UNL     1      23.310   5.781  51.634  0.00  0.00    -0.270 OA
ATOM      2  C   UNL     1      24.214   5.049  51.153  0.00  0.00    +0.251 C 
ATOM      3  N   UNL     1      25.082   5.447  50.093  0.00  0.00    -0.248 N 
ATOM      4  C   UNL     1      25.928   4.318  49.885  0.00  0.00    +0.251 C 
ATOM      5  O   UNL     1      26.843   4.273  49.021  0.00  0.00    -0.270 OA
ATOM      6  C   UNL     1      25.576   3.246  50.810  0.00  0.00    +0.051 A 
ATOM      7  C   UNL     1      26.119   1.977  50.979  0.00  0.00    -0.026 A 
ATOM      8  C   UNL     1      25.574   1.138  51.979  0.00  0.00    +0.054 A 
ATOM      9  C   UNL     1      24.470   1.589  52.759  0.00  0.00    +0.054 A 
ATOM     10  C   UNL     1      23.957   2.892  52.566  0.00  0.00    -0.026 A 
ATOM     11  C   UNL     1      24.530   3.691  51.582  0.00  0.00    +0.051 A 
ATOM     12  H   UNL     1      25.095   6.307  49.615  0.00  0.00    +0.000 HD
ENDROOT
BRANCH   8  13
ATOM     13  N   UNL     1      26.078  -0.198  52.150  0.00  0.00    -0.313 N 
ATOM     14  H   UNL     1      25.501  -0.947  51.879  0.00  0.00    +0.000 HD
BRANCH  13  15
ATOM     15  C   UNL     1      27.373  -0.508  52.695  0.00  0.00    +0.032 A 
ATOM     16  C   UNL     1      28.179   0.487  53.279  0.00  0.00    -0.038 A 
ATOM     17  C   UNL     1      29.425   0.157  53.822  0.00  0.00    -0.025 A 
ATOM     18  C   UNL     1      29.870  -1.167  53.800  0.00  0.00    +0.124 A 
ATOM     19  F   UNL     1      31.077  -1.486  54.329  0.00  0.00    -0.205 F 
ATOM     20  C   UNL     1      29.067  -2.165  53.241  0.00  0.00    -0.025 A 
ATOM     21  C   UNL     1      27.821  -1.838  52.697  0.00  0.00    -0.038 A 
ENDBRANCH  13  15
ENDBRANCH   8  13
BRANCH   9  22
ATOM     22  N   UNL     1      23.934   0.751  53.798  0.00  0.00    -0.313 N 
ATOM     23  H   UNL     1      24.484   0.604  54.602  0.00  0.00    +0.000 HD
BRANCH  22  24
ATOM     24  C   UNL     1      22.645   0.116  53.737  0.00  0.00    +0.032 A 
ATOM     25  C   UNL     1      21.612   0.721  53.004  0.00  0.00    -0.038 A 
ATOM     26  C   UNL     1      20.344   0.132  52.950  0.00  0.00    -0.025 A 
ATOM     27  C   UNL     1      20.095  -1.059  53.637  0.00  0.00    +0.124 A 
ATOM     28  F   UNL     1      18.865  -1.627  53.586  0.00  0.00    -0.205 F 
ATOM     29  C   UNL     1      21.111  -1.657  54.387  0.00  0.00    -0.025 A 
ATOM     30  C   UNL     1      22.379  -1.072  54.444  0.00  0.00    -0.038 A 
ENDBRANCH  22  24
ENDBRANCH   9  22
TORSDOF 4
ENDMDL
MODEL 6
REMARK VINA RESULT:    -9.026      3.644      5.943
REMARK INTER + INTRA:         -11.846
REMARK INTER:                 -11.067
REMARK INTRA:                  -0.778
REMARK UNBOUND:                -0.709
REMARK  Name = 
REMARK  4 active torsions:
REMARK  status: ('A' for Active; 'I' for Inactive)
REMARK    1  A    between atoms: C_8  and  N_9
REMARK    2  A    between atoms: N_9  and  C_10
REMARK    3  A    between atoms: C_17  and  N_18
REMARK    4  A    between atoms: N_18  and  C_19
REMARK                            x       y       z     vdW  Elec       q    Type
REMARK                         _______ _______ _______ _____ _____    ______ ____
ROOT
ATOM      1  O   UNL     1      24.189   6.870  50.149  0.00  0.00    -0.270 OA
ATOM      2  C   UNL     1      25.033   5.960  49.940  0.00  0.00    +0.251 C 
ATOM      3  N   UNL     1      26.133   6.085  49.040  0.00  0.00    -0.248 N 
ATOM      4  C   UNL     1      26.806   4.831  49.128  0.00  0.00    +0.251 C 
ATOM      5  O   UNL     1      27.844   4.541  48.475  0.00  0.00    -0.270 OA
ATOM      6  C   UNL     1      26.122   3.955  50.072  0.00  0.00    +0.051 A 
ATOM      7  C   UNL     1      26.410   2.658  50.482  0.00  0.00    -0.026 A 
ATOM      8  C   UNL     1      25.563   2.047  51.436  0.00  0.00    +0.054 A 
ATOM      9  C   UNL     1      24.424   2.750  51.925  0.00  0.00    +0.054 A 
ATOM     10  C   UNL     1      24.175   4.074  51.495  0.00  0.00    -0.026 A 
ATOM     11  C   UNL     1      25.040   4.643  50.566  0.00  0.00    +0.051 A 
ATOM     12  H   UNL     1      26.373   6.861  48.484  0.00  0.00    +0.000 HD
ENDROOT
BRANCH   8  13
ATOM     13  N   UNL     1      25.802   0.690  51.846  0.00  0.00    -0.313 N 
ATOM     14  H   UNL     1      25.083   0.033  51.709  0.00  0.00    +0.000 HD
BRANCH  13  15
ATOM     15  C   UNL     1      27.027   0.233  52.447  0.00  0.00    +0.032 A 
ATOM     16  C   UNL     1      27.962   1.138  52.984  0.00  0.00    -0.038 A 
ATOM     17  C   UNL     1      29.135   0.669  53.583  0.00  0.00    -0.025 A 
ATOM     18  C   UNL     1      29.379  -0.705  53.663  0.00  0.00    +0.124 A 
ATOM     19  F   UNL     1      30.515  -1.159  54.246  0.00  0.00    -0.205 F 
ATOM     20  C   UNL     1      28.446  -1.611  53.152  0.00  0.00    -0.025 A 
ATOM     21  C   UNL     1      27.272  -1.145  52.553  0.00  0.00    -0.038 A 
ENDBRANCH  13  15
ENDBRANCH   8  13
BRANCH   9  22
ATOM     22  N   UNL     1      23.579   2.146  52.919  0.00  0.00    -0.313 N 
ATOM     23  H   UNL     1      23.851   2.218  53.863  0.00  0.00    +0.000 HD
BRANCH  22  24
ATOM     24  C   UNL     1      22.360   1.443  52.621  0.00  0.00    +0.032 A 
ATOM     25  C   UNL     1      21.768   0.637  53.607  0.00  0.00    -0.038 A 
ATOM     26  C   UNL     1      20.595  -0.073  53.331  0.00  0.00    -0.025 A 
ATOM     27  C   UNL     1      20.010   0.005  52.064  0.00  0.00    +0.124 A 
ATOM     28  F   UNL     1      18.875  -0.685  51.798  0.00  0.00    -0.205 F 
ATOM     29  C   UNL     1      20.603   0.787  51.069  0.00  0.00    -0.025 A 
ATOM     30  C   UNL     1      21.776   1.499  51.341  0.00  0.00    -0.038 A 
ENDBRANCH  22  24
ENDBRANCH   9  22
TORSDOF 4
ENDMDL
MODEL 7
REMARK VINA RESULT:    -8.832      3.403      5.751
REMARK INTER + INTRA:         -11.607
REMARK INTER:                 -10.732
REMARK INTRA:                  -0.875
REMARK UNBOUND:                -0.709
REMARK  Name = 
REMARK  4 active torsions:
REMARK  status: ('A' for Active; 'I' for Inactive)
REMARK    1  A    between atoms: C_8  and  N_9
REMARK    2  A    between atoms: N_9  and  C_10
REMARK    3  A    between atoms: C_17  and  N_18
REMARK    4  A    between atoms: N_18  and  C_19
REMARK                            x       y       z     vdW  Elec       q    Type
REMARK                         _______ _______ _______ _____ _____    ______ ____
ROOT
ATOM      1  O   UNL     1      29.532   1.744  54.769  0.00  0.00    -0.270 OA
ATOM      2  C   UNL     1      28.827   0.894  54.165  0.00  0.00    +0.251 C 
ATOM      3  N   UNL     1      29.210  -0.466  53.970  0.00  0.00    -0.248 N 
ATOM      4  C   UNL     1      28.122  -1.041  53.250  0.00  0.00    +0.251 C 
ATOM      5  O   UNL     1      28.078  -2.245  52.882  0.00  0.00    -0.270 OA
ATOM      6  C   UNL     1      27.088  -0.040  53.012  0.00  0.00    +0.051 A 
ATOM      7  C   UNL     1      25.862  -0.136  52.365  0.00  0.00    -0.026 A 
ATOM      8  C   UNL     1      25.045   1.016  52.292  0.00  0.00    +0.054 A 
ATOM      9  C   UNL     1      25.505   2.247  52.843  0.00  0.00    +0.054 A 
ATOM     10  C   UNL     1      26.752   2.299  53.506  0.00  0.00    -0.026 A 
ATOM     11  C   UNL     1      27.519   1.140  53.568  0.00  0.00    +0.051 A 
ATOM     12  H   UNL     1      30.039  -0.908  54.266  0.00  0.00    +0.000 HD
ENDROOT
BRANCH   8  13
ATOM     13  N   UNL     1      23.792   0.967  51.588  0.00  0.00    -0.313 N 
ATOM     14  H   UNL     1      23.778   1.255  50.648  0.00  0.00    +0.000 HD
BRANCH  13  15
ATOM     15  C   UNL     1      22.555   0.523  52.175  0.00  0.00    +0.032 A 
ATOM     16  C   UNL     1      22.480   0.147  53.530  0.00  0.00    -0.038 A 
ATOM     17  C   UNL     1      21.261  -0.259  54.083  0.00  0.00    -0.025 A 
ATOM     18  C   UNL     1      20.107  -0.280  53.295  0.00  0.00    +0.124 A 
ATOM     19  F   UNL     1      18.926  -0.672  53.833  0.00  0.00    -0.205 F 
ATOM     20  C   UNL     1      20.169   0.112  51.955  0.00  0.00    -0.025 A 
ATOM     21  C   UNL     1      21.385   0.518  51.399  0.00  0.00    -0.038 A 
ENDBRANCH  13  15
ENDBRANCH   8  13
BRANCH   9  22
ATOM     22  N   UNL     1      24.664   3.413  52.799  0.00  0.00    -0.313 N 
ATOM     23  H   UNL     1      24.348   3.787  53.653  0.00  0.00    +0.000 HD
BRANCH  22  24
ATOM     24  C   UNL     1      24.256   4.067  51.584  0.00  0.00    +0.032 A 
ATOM     25  C   UNL     1      25.169   4.187  50.525  0.00  0.00    -0.038 A 
ATOM     26  C   UNL     1      24.801   4.839  49.343  0.00  0.00    -0.025 A 
ATOM     27  C   UNL     1      23.523   5.389  49.215  0.00  0.00    +0.124 A 
ATOM     28  F   UNL     1      23.168   6.022  48.071  0.00  0.00    -0.205 F 
ATOM     29  C   UNL     1      22.613   5.293  50.272  0.00  0.00    -0.025 A 
ATOM     30  C   UNL     1      22.978   4.642  51.455  0.00  0.00    -0.038 A 
ENDBRANCH  22  24
ENDBRANCH   9  22
TORSDOF 4
ENDMDL
MODEL 8
REMARK VINA RESULT:    -8.819      2.558      6.471
REMARK INTER + INTRA:         -11.590
REMARK INTER:                 -10.782
REMARK INTRA:                  -0.808
REMARK UNBOUND:                -0.709
REMARK  Name = 
REMARK  4 active torsions:
REMARK  status: ('A' for Active; 'I' for Inactive)
REMARK    1  A    between atoms: C_8  and  N_9
REMARK    2  A    between atoms: N_9  and  C_10
REMARK    3  A    between atoms: C_17  and  N_18
REMARK    4  A    between atoms: N_18  and  C_19
REMARK                            x       y       z     vdW  Elec       q    Type
REMARK                         _______ _______ _______ _____ _____    ______ ____
ROOT
ATOM      1  O   UNL     1      19.852   0.393  50.620  0.00  0.00    -0.270 OA
ATOM      2  C   UNL     1      20.608   1.134  49.938  0.00  0.00    +0.251 C 
ATOM      3  N   UNL     1      20.304   1.586  48.620  0.00  0.00    -0.248 N 
ATOM      4  C   UNL     1      21.427   2.384  48.251  0.00  0.00    +0.251 C 
ATOM      5  O   UNL     1      21.541   2.970  47.142  0.00  0.00    -0.270 OA
ATOM      6  C   UNL     1      22.402   2.416  49.335  0.00  0.00    +0.051 A 
ATOM      7  C   UNL     1      23.631   3.058  49.433  0.00  0.00    -0.026 A 
ATOM      8  C   UNL     1      24.372   2.919  50.630  0.00  0.00    +0.054 A 
ATOM      9  C   UNL     1      23.869   2.103  51.684  0.00  0.00    +0.054 A 
ATOM     10  C   UNL     1      22.607   1.479  51.551  0.00  0.00    -0.026 A 
ATOM     11  C   UNL     1      21.904   1.653  50.363  0.00  0.00    +0.051 A 
ATOM     12  H   UNL     1      19.500   1.391  48.086  0.00  0.00    +0.000 HD
ENDROOT
BRANCH   8  13
ATOM     13  N   UNL     1      25.669   3.529  50.749  0.00  0.00    -0.313 N 
ATOM     14  H   UNL     1      26.276   3.191  51.445  0.00  0.00    +0.000 HD
BRANCH  13  15
ATOM     15  C   UNL     1      26.133   4.605  49.913  0.00  0.00    +0.032 A 
ATOM     16  C   UNL     1      25.513   5.868  49.933  0.00  0.00    -0.038 A 
ATOM     17  C   UNL     1      25.997   6.904  49.128  0.00  0.00    -0.025 A 
ATOM     18  C   UNL     1      27.110   6.694  48.310  0.00  0.00    +0.124 A 
ATOM     19  F   UNL     1      27.580   7.700  47.532  0.00  0.00    -0.205 F 
ATOM     20  C   UNL     1      27.745   5.449  48.301  0.00  0.00    -0.025 A 
ATOM     21  C   UNL     1      27.264   4.411  49.104  0.00  0.00    -0.038 A 
ENDBRANCH  13  15
ENDBRANCH   8  13
BRANCH   9  22
ATOM     22  N   UNL     1      24.603   1.985  52.915  0.00  0.00    -0.313 N 
ATOM     23  H   UNL     1      24.284   2.495  53.694  0.00  0.00    +0.000 HD
BRANCH  22  24
ATOM     24  C   UNL     1      25.776   1.167  53.078  0.00  0.00    +0.032 A 
ATOM     25  C   UNL     1      25.749  -0.170  52.652  0.00  0.00    -0.038 A 
ATOM     26  C   UNL     1      26.870  -0.990  52.821  0.00  0.00    -0.025 A 
ATOM     27  C   UNL     1      28.022  -0.484  53.430  0.00  0.00    +0.124 A 
ATOM     28  F   UNL     1      29.106  -1.280  53.596  0.00  0.00    -0.205 F 
ATOM     29  C   UNL     1      28.051   0.840  53.877  0.00  0.00    -0.025 A 
ATOM     30  C   UNL     1      26.932   1.662  53.709  0.00  0.00    -0.038 A 
ENDBRANCH  22  24
ENDBRANCH   9  22
TORSDOF 4
ENDMDL
MODEL 9
REMARK VINA RESULT:    -8.514      3.438      6.876
REMARK INTER + INTRA:         -11.214
REMARK INTER:                  -9.973
REMARK INTRA:                  -1.241
REMARK UNBOUND:                -0.709
REMARK  Name = 
REMARK  4 active torsions:
REMARK  status: ('A' for Active; 'I' for Inactive)
REMARK    1  A    between atoms: C_8  and  N_9
REMARK    2  A    between atoms: N_9  and  C_10
REMARK    3  A    between atoms: C_17  and  N_18
REMARK    4  A    between atoms: N_18  and  C_19
REMARK                            x       y       z     vdW  Elec       q    Type
REMARK                         _______ _______ _______ _____ _____    ______ ____
ROOT
ATOM      1  O   UNL     1      25.718   7.667  50.647  0.00  0.00    -0.270 OA
ATOM      2  C   UNL     1      24.642   7.015  50.687  0.00  0.00    +0.251 C 
ATOM      3  N   UNL     1      23.350   7.613  50.771  0.00  0.00    -0.248 N 
ATOM      4  C   UNL     1      22.449   6.508  50.790  0.00  0.00    +0.251 C 
ATOM      5  O   UNL     1      21.196   6.622  50.858  0.00  0.00    -0.270 OA
ATOM      6  C   UNL     1      23.187   5.252  50.719  0.00  0.00    +0.051 A 
ATOM      7  C   UNL     1      22.742   3.935  50.705  0.00  0.00    -0.026 A 
ATOM      8  C   UNL     1      23.700   2.899  50.619  0.00  0.00    +0.054 A 
ATOM      9  C   UNL     1      25.089   3.219  50.586  0.00  0.00    +0.054 A 
ATOM     10  C   UNL     1      25.500   4.572  50.587  0.00  0.00    -0.026 A 
ATOM     11  C   UNL     1      24.525   5.561  50.658  0.00  0.00    +0.051 A 
ATOM     12  H   UNL     1      23.130   8.572  50.805  0.00  0.00    +0.000 HD
ENDROOT
BRANCH   8  13
ATOM     13  N   UNL     1      23.280   1.525  50.650  0.00  0.00    -0.313 N 
ATOM     14  H   UNL     1      23.389   0.989  49.832  0.00  0.00    +0.000 HD
BRANCH  13  15
ATOM     15  C   UNL     1      22.708   0.883  51.804  0.00  0.00    +0.032 A 
ATOM     16  C   UNL     1      23.475   0.632  52.958  0.00  0.00    -0.038 A 
ATOM     17  C   UNL     1      22.890   0.027  54.075  0.00  0.00    -0.025 A 
ATOM     18  C   UNL     1      21.536  -0.319  54.057  0.00  0.00    +0.124 A 
ATOM     19  F   UNL     1      20.971  -0.903  55.141  0.00  0.00    -0.205 F 
ATOM     20  C   UNL     1      20.763  -0.054  52.923  0.00  0.00    -0.025 A 
ATOM     21  C   UNL     1      21.344   0.551  51.804  0.00  0.00    -0.038 A 
ENDBRANCH  13  15
ENDBRANCH   8  13
BRANCH   9  22
ATOM     22  N   UNL     1      26.065   2.170  50.465  0.00  0.00    -0.313 N 
ATOM     23  H   UNL     1      26.296   1.855  49.561  0.00  0.00    +0.000 HD
BRANCH  22  24
ATOM     24  C   UNL     1      26.727   1.553  51.584  0.00  0.00    +0.032 A 
ATOM     25  C   UNL     1      26.608   0.168  51.777  0.00  0.00    -0.038 A 
ATOM     26  C   UNL     1      27.225  -0.450  52.871  0.00  0.00    -0.025 A 
ATOM     27  C   UNL     1      27.954   0.313  53.787  0.00  0.00    +0.124 A 
ATOM     28  F   UNL     1      28.548  -0.286  54.847  0.00  0.00    -0.205 F 
ATOM     29  C   UNL     1      28.060   1.696  53.615  0.00  0.00    -0.025 A 
ATOM     30  C   UNL     1      27.445   2.317  52.523  0.00  0.00    -0.038 A 
ENDBRANCH  22  24
ENDBRANCH   9  22
TORSDOF 4
ENDMDL
