MODEL 1
REMARK VINA RESULT:   -10.614      0.000      0.000
REMARK INTER + INTRA:         -17.006
REMARK INTER:                 -14.958
REMARK INTRA:                  -2.048
REMARK UNBOUND:                -2.048
REMARK  Name = 
REMARK  9 active torsions:
REMARK  status: ('A' for Active; 'I' for Inactive)
REMARK    1  A    between atoms: C_1  and  N_2
REMARK    2  A    between atoms: C_3  and  S_4
REMARK    3  A    between atoms: S_4  and  S_5
REMARK    4  A    between atoms: S_5  and  C_6
REMARK    5  A    between atoms: C_7  and  C_8
REMARK    6  A    between atoms: N_10  and  C_11
REMARK    7  A    between atoms: N_24  and  C_25
REMARK    8  A    between atoms: C_26  and  C_27
REMARK    9  A    between atoms: N_29  and  C_30
REMARK                            x       y       z     vdW  Elec       q    Type
REMARK                         _______ _______ _______ _____ _____    ______ ____
ROOT
ATOM      1  S   UNL     1      22.808   3.500  48.732  0.00  0.00    -0.032 S 
ENDROOT
BRANCH   1   4
ATOM      2  C   UNL     1      20.351   5.391  47.679  0.00  0.00    +0.013 C 
ATOM      3  N   UNL     1      20.157   4.382  48.722  0.00  0.00    -0.337 N 
ATOM      4  C   UNL     1      21.073   3.501  49.201  0.00  0.00    +0.100 A 
ATOM      5  C   UNL     1      20.486   2.637  50.126  0.00  0.00    +0.077 A 
ATOM      6  C   UNL     1      19.156   3.019  50.194  0.00  0.00    +0.015 A 
ATOM      7  C   UNL     1      18.078   2.490  50.909  0.00  0.00    -0.033 A 
ATOM      8  C   UNL     1      16.816   3.086  50.743  0.00  0.00    +0.042 A 
ATOM      9 CL   UNL     1      15.434   2.461  51.624  0.00  0.00    -0.084 Cl
ATOM     10  C   UNL     1      16.652   4.181  49.866  0.00  0.00    -0.041 A 
ATOM     11  C   UNL     1      17.747   4.682  49.142  0.00  0.00    -0.036 A 
ATOM     12  C   UNL     1      18.993   4.076  49.328  0.00  0.00    +0.050 A 
BRANCH   5  13
ATOM     13  C   UNL     1      21.152   1.555  50.879  0.00  0.00    +0.251 C 
ATOM     14  O   UNL     1      21.348   0.442  50.322  0.00  0.00    -0.270 OA
ATOM     15  N   UNL     1      21.638   1.789  52.209  0.00  0.00    -0.281 N 
ATOM     16  H   UNL     1      21.750   2.721  52.506  0.00  0.00    +0.000 HD
BRANCH  15  17
ATOM     17  C   UNL     1      21.972   0.739  53.135  0.00  0.00    +0.034 A 
ATOM     18  C   UNL     1      20.985   0.111  53.921  0.00  0.00    -0.040 A 
ATOM     19  C   UNL     1      21.340  -0.892  54.828  0.00  0.00    -0.060 A 
ATOM     20  C   UNL     1      22.677  -1.271  54.968  0.00  0.00    -0.062 A 
ATOM     21  C   UNL     1      23.665  -0.639  54.208  0.00  0.00    -0.060 A 
ATOM     22  C   UNL     1      23.316   0.368  53.302  0.00  0.00    -0.040 A 
ENDBRANCH  15  17
ENDBRANCH   5  13
ENDBRANCH   1   4
BRANCH   1  23
ATOM     23  S   UNL     1      23.409   4.626  50.446  0.00  0.00    -0.032 S 
BRANCH  23  24
ATOM     24  C   UNL     1      24.820   5.361  49.608  0.00  0.00    +0.100 A 
ATOM     25  C   UNL     1      26.086   4.787  49.518  0.00  0.00    +0.077 A 
ATOM     26  C   UNL     1      26.840   5.668  48.762  0.00  0.00    +0.015 A 
ATOM     27  C   UNL     1      28.187   5.644  48.392  0.00  0.00    -0.033 A 
ATOM     28  C   UNL     1      28.680   6.717  47.629  0.00  0.00    +0.042 A 
ATOM     29 CL   UNL     1      30.363   6.733  47.133  0.00  0.00    -0.084 Cl
ATOM     30  C   UNL     1      27.832   7.788  47.269  0.00  0.00    -0.041 A 
ATOM     31  C   UNL     1      26.487   7.800  47.677  0.00  0.00    -0.036 A 
ATOM     32  C   UNL     1      26.020   6.719  48.430  0.00  0.00    +0.050 A 
ATOM     33  N   UNL     1      24.781   6.540  48.934  0.00  0.00    -0.337 N 
ATOM     34  C   UNL     1      23.663   7.479  48.841  0.00  0.00    +0.013 C 
BRANCH  25  35
ATOM     35  C   UNL     1      26.503   3.489  50.077  0.00  0.00    +0.251 C 
ATOM     36  O   UNL     1      26.821   2.557  49.289  0.00  0.00    -0.270 OA
ATOM     37  N   UNL     1      26.553   3.292  51.499  0.00  0.00    -0.281 N 
ATOM     38  H   UNL     1      26.218   4.016  52.078  0.00  0.00    +0.000 HD
BRANCH  37  39
ATOM     39  C   UNL     1      27.061   2.107  52.132  0.00  0.00    +0.034 A 
ATOM     40  C   UNL     1      28.075   2.170  53.107  0.00  0.00    -0.040 A 
ATOM     41  C   UNL     1      28.528   1.003  53.729  0.00  0.00    -0.060 A 
ATOM     42  C   UNL     1      27.967  -0.232  53.396  0.00  0.00    -0.062 A 
ATOM     43  C   UNL     1      26.943  -0.301  52.448  0.00  0.00    -0.060 A 
ATOM     44  C   UNL     1      26.487   0.864  51.824  0.00  0.00    -0.040 A 
ENDBRANCH  37  39
ENDBRANCH  25  35
ENDBRANCH  23  24
ENDBRANCH   1  23
TORSDOF 7
ENDMDL
MODEL 2
REMARK VINA RESULT:   -10.394      0.413      7.773
REMARK INTER + INTRA:         -16.695
REMARK INTER:                 -14.700
REMARK INTRA:                  -1.996
REMARK UNBOUND:                -2.048
REMARK  Name = 
REMARK  9 active torsions:
REMARK  status: ('A' for Active; 'I' for Inactive)
REMARK    1  A    between atoms: C_1  and  N_2
REMARK    2  A    between atoms: C_3  and  S_4
REMARK    3  A    between atoms: S_4  and  S_5
REMARK    4  A    between atoms: S_5  and  C_6
REMARK    5  A    between atoms: C_7  and  C_8
REMARK    6  A    between atoms: N_10  and  C_11
REMARK    7  A    between atoms: N_24  and  C_25
REMARK    8  A    between atoms: C_26  and  C_27
REMARK    9  A    between atoms: N_29  and  C_30
REMARK                            x       y       z     vdW  Elec       q    Type
REMARK                         _______ _______ _______ _____ _____    ______ ____
ROOT
ATOM      1  S   UNL     1      23.478   4.298  50.480  0.00  0.00    -0.032 S 
ENDROOT
BRANCH   1   4
ATOM      2  C   UNL     1      23.565   7.218  49.000  0.00  0.00    +0.013 C 
ATOM      3  N   UNL     1      24.725   6.327  49.019  0.00  0.00    -0.337 N 
ATOM      4  C   UNL     1      24.837   5.126  49.643  0.00  0.00    +0.100 A 
ATOM      5  C   UNL     1      26.130   4.619  49.508  0.00  0.00    +0.077 A 
ATOM      6  C   UNL     1      26.822   5.569  48.772  0.00  0.00    +0.015 A 
ATOM      7  C   UNL     1      28.159   5.633  48.372  0.00  0.00    -0.033 A 
ATOM      8  C   UNL     1      28.581   6.762  47.649  0.00  0.00    +0.042 A 
ATOM      9 CL   UNL     1      30.248   6.885  47.119  0.00  0.00    -0.084 Cl
ATOM     10  C   UNL     1      27.673   7.802  47.354  0.00  0.00    -0.041 A 
ATOM     11  C   UNL     1      26.338   7.725  47.786  0.00  0.00    -0.036 A 
ATOM     12  C   UNL     1      25.941   6.590  48.498  0.00  0.00    +0.050 A 
BRANCH   5  13
ATOM     13  C   UNL     1      26.641   3.335  50.028  0.00  0.00    +0.251 C 
ATOM     14  O   UNL     1      26.805   2.368  49.237  0.00  0.00    -0.270 OA
ATOM     15  N   UNL     1      27.015   3.207  51.408  0.00  0.00    -0.281 N 
ATOM     16  H   UNL     1      27.167   4.031  51.926  0.00  0.00    +0.000 HD
BRANCH  15  17
ATOM     17  C   UNL     1      27.181   1.945  52.078  0.00  0.00    +0.034 A 
ATOM     18  C   UNL     1      26.462   0.801  51.680  0.00  0.00    -0.040 A 
ATOM     19  C   UNL     1      26.628  -0.408  52.363  0.00  0.00    -0.060 A 
ATOM     20  C   UNL     1      27.500  -0.486  53.450  0.00  0.00    -0.062 A 
ATOM     21  C   UNL     1      28.201   0.648  53.866  0.00  0.00    -0.060 A 
ATOM     22  C   UNL     1      28.037   1.862  53.189  0.00  0.00    -0.040 A 
ENDBRANCH  15  17
ENDBRANCH   5  13
ENDBRANCH   1   4
BRANCH   1  23
ATOM     23  S   UNL     1      22.945   3.148  48.760  0.00  0.00    -0.032 S 
BRANCH  23  24
ATOM     24  C   UNL     1      21.180   3.372  49.017  0.00  0.00    +0.100 A 
ATOM     25  C   UNL     1      20.397   2.623  49.893  0.00  0.00    +0.077 A 
ATOM     26  C   UNL     1      19.123   3.156  49.801  0.00  0.00    +0.015 A 
ATOM     27  C   UNL     1      17.921   2.779  50.405  0.00  0.00    -0.033 A 
ATOM     28  C   UNL     1      16.764   3.512  50.085  0.00  0.00    +0.042 A 
ATOM     29 CL   UNL     1      15.231   3.083  50.821  0.00  0.00    -0.084 Cl
ATOM     30  C   UNL     1      16.827   4.583  49.167  0.00  0.00    -0.041 A 
ATOM     31  C   UNL     1      18.044   4.925  48.553  0.00  0.00    -0.036 A 
ATOM     32  C   UNL     1      19.181   4.185  48.892  0.00  0.00    +0.050 A 
ATOM     33  N   UNL     1      20.434   4.332  48.412  0.00  0.00    -0.337 N 
ATOM     34  C   UNL     1      20.861   5.279  47.382  0.00  0.00    +0.013 C 
BRANCH  25  35
ATOM     35  C   UNL     1      20.858   1.527  50.764  0.00  0.00    +0.251 C 
ATOM     36  O   UNL     1      21.106   0.402  50.252  0.00  0.00    -0.270 OA
ATOM     37  N   UNL     1      21.031   1.743  52.174  0.00  0.00    -0.281 N 
ATOM     38  H   UNL     1      20.749   2.610  52.547  0.00  0.00    +0.000 HD
BRANCH  37  39
ATOM     39  C   UNL     1      21.590   0.774  53.075  0.00  0.00    +0.034 A 
ATOM     40  C   UNL     1      20.772  -0.034  53.887  0.00  0.00    -0.040 A 
ATOM     41  C   UNL     1      21.343  -0.991  54.731  0.00  0.00    -0.060 A 
ATOM     42  C   UNL     1      22.728  -1.160  54.765  0.00  0.00    -0.062 A 
ATOM     43  C   UNL     1      23.547  -0.379  53.945  0.00  0.00    -0.060 A 
ATOM     44  C   UNL     1      22.979   0.578  53.098  0.00  0.00    -0.040 A 
ENDBRANCH  37  39
ENDBRANCH  25  35
ENDBRANCH  23  24
ENDBRANCH   1  23
TORSDOF 7
ENDMDL
MODEL 3
REMARK VINA RESULT:   -10.072      1.214      7.890
REMARK INTER + INTRA:         -16.241
REMARK INTER:                 -14.146
REMARK INTRA:                  -2.095
REMARK UNBOUND:                -2.048
REMARK  Name = 
REMARK  9 active torsions:
REMARK  status: ('A' for Active; 'I' for Inactive)
REMARK    1  A    between atoms: C_1  and  N_2
REMARK    2  A    between atoms: C_3  and  S_4
REMARK    3  A    between atoms: S_4  and  S_5
REMARK    4  A    between atoms: S_5  and  C_6
REMARK    5  A    between atoms: C_7  and  C_8
REMARK    6  A    between atoms: N_10  and  C_11
REMARK    7  A    between atoms: N_24  and  C_25
REMARK    8  A    between atoms: C_26  and  C_27
REMARK    9  A    between atoms: N_29  and  C_30
REMARK                            x       y       z     vdW  Elec       q    Type
REMARK                         _______ _______ _______ _____ _____    ______ ____
ROOT
ATOM      1  S   UNL     1      22.221   4.401  51.008  0.00  0.00    -0.032 S 
ENDROOT
BRANCH   1   4
ATOM      2  C   UNL     1      22.943   7.154  49.388  0.00  0.00    +0.013 C 
ATOM      3  N   UNL     1      23.909   6.063  49.526  0.00  0.00    -0.337 N 
ATOM      4  C   UNL     1      23.755   4.904  50.218  0.00  0.00    +0.100 A 
ATOM      5  C   UNL     1      24.933   4.156  50.191  0.00  0.00    +0.077 A 
ATOM      6  C   UNL     1      25.831   4.910  49.452  0.00  0.00    +0.015 A 
ATOM      7  C   UNL     1      27.174   4.696  49.135  0.00  0.00    -0.033 A 
ATOM      8  C   UNL     1      27.843   5.678  48.382  0.00  0.00    +0.042 A 
ATOM      9 CL   UNL     1      29.527   5.451  47.953  0.00  0.00    -0.084 Cl
ATOM     10  C   UNL     1      27.167   6.850  47.977  0.00  0.00    -0.041 A 
ATOM     11  C   UNL     1      25.821   7.052  48.327  0.00  0.00    -0.036 A 
ATOM     12  C   UNL     1      25.177   6.059  49.070  0.00  0.00    +0.050 A 
BRANCH   5  13
ATOM     13  C   UNL     1      25.160   2.834  50.808  0.00  0.00    +0.251 C 
ATOM     14  O   UNL     1      24.262   1.952  50.732  0.00  0.00    -0.270 OA
ATOM     15  N   UNL     1      26.418   2.528  51.427  0.00  0.00    -0.281 N 
ATOM     16  H   UNL     1      27.192   3.098  51.215  0.00  0.00    +0.000 HD
BRANCH  15  17
ATOM     17  C   UNL     1      26.615   1.435  52.342  0.00  0.00    +0.034 A 
ATOM     18  C   UNL     1      26.753   1.651  53.727  0.00  0.00    -0.040 A 
ATOM     19  C   UNL     1      26.963   0.571  54.591  0.00  0.00    -0.060 A 
ATOM     20  C   UNL     1      27.048  -0.727  54.085  0.00  0.00    -0.062 A 
ATOM     21  C   UNL     1      26.934  -0.949  52.710  0.00  0.00    -0.060 A 
ATOM     22  C   UNL     1      26.727   0.128  51.841  0.00  0.00    -0.040 A 
ENDBRANCH  15  17
ENDBRANCH   5  13
ENDBRANCH   1   4
BRANCH   1  23
ATOM     23  S   UNL     1      21.440   3.514  49.229  0.00  0.00    -0.032 S 
BRANCH  23  24
ATOM     24  C   UNL     1      19.754   3.476  49.852  0.00  0.00    +0.100 A 
ATOM     25  C   UNL     1      19.258   2.545  50.763  0.00  0.00    +0.077 A 
ATOM     26  C   UNL     1      17.943   2.912  50.989  0.00  0.00    +0.015 A 
ATOM     27  C   UNL     1      16.942   2.319  51.764  0.00  0.00    -0.033 A 
ATOM     28  C   UNL     1      15.672   2.922  51.773  0.00  0.00    +0.042 A 
ATOM     29 CL   UNL     1      14.382   2.221  52.734  0.00  0.00    -0.084 Cl
ATOM     30  C   UNL     1      15.425   4.080  51.004  0.00  0.00    -0.041 A 
ATOM     31  C   UNL     1      16.442   4.641  50.212  0.00  0.00    -0.036 A 
ATOM     32  C   UNL     1      17.697   4.027  50.225  0.00  0.00    +0.050 A 
ATOM     33  N   UNL     1      18.798   4.386  49.532  0.00  0.00    -0.337 N 
ATOM     34  C   UNL     1      18.895   5.481  48.567  0.00  0.00    +0.013 C 
BRANCH  25  35
ATOM     35  C   UNL     1      20.007   1.436  51.380  0.00  0.00    +0.251 C 
ATOM     36  O   UNL     1      20.246   0.404  50.696  0.00  0.00    -0.270 OA
ATOM     37  N   UNL     1      20.466   1.536  52.737  0.00  0.00    -0.281 N 
ATOM     38  H   UNL     1      20.189   2.322  53.262  0.00  0.00    +0.000 HD
BRANCH  37  39
ATOM     39  C   UNL     1      21.305   0.561  53.379  0.00  0.00    +0.034 A 
ATOM     40  C   UNL     1      22.708   0.625  53.288  0.00  0.00    -0.040 A 
ATOM     41  C   UNL     1      23.500  -0.319  53.949  0.00  0.00    -0.060 A 
ATOM     42  C   UNL     1      22.903  -1.322  54.715  0.00  0.00    -0.062 A 
ATOM     43  C   UNL     1      21.512  -1.378  54.830  0.00  0.00    -0.060 A 
ATOM     44  C   UNL     1      20.717  -0.435  54.172  0.00  0.00    -0.040 A 
ENDBRANCH  37  39
ENDBRANCH  25  35
ENDBRANCH  23  24
ENDBRANCH   1  23
TORSDOF 7
ENDMDL
MODEL 4
REMARK VINA RESULT:    -9.987      2.433      3.334
REMARK INTER + INTRA:         -16.122
REMARK INTER:                 -14.063
REMARK INTRA:                  -2.059
REMARK UNBOUND:                -2.048
REMARK  Name = 
REMARK  9 active torsions:
REMARK  status: ('A' for Active; 'I' for Inactive)
REMARK    1  A    between atoms: C_1  and  N_2
REMARK    2  A    between atoms: C_3  and  S_4
REMARK    3  A    between atoms: S_4  and  S_5
REMARK    4  A    between atoms: S_5  and  C_6
REMARK    5  A    between atoms: C_7  and  C_8
REMARK    6  A    between atoms: N_10  and  C_11
REMARK    7  A    between atoms: N_24  and  C_25
REMARK    8  A    between atoms: C_26  and  C_27
REMARK    9  A    between atoms: N_29  and  C_30
REMARK                            x       y       z     vdW  Elec       q    Type
REMARK                         _______ _______ _______ _____ _____    ______ ____
ROOT
ATOM      1  S   UNL     1      20.736   2.960  51.660  0.00  0.00    -0.032 S 
ENDROOT
BRANCH   1   4
ATOM      2  C   UNL     1      18.063   2.619  49.799  0.00  0.00    +0.013 C 
ATOM      3  N   UNL     1      18.368   1.692  50.890  0.00  0.00    -0.337 N 
ATOM      4  C   UNL     1      19.465   1.689  51.690  0.00  0.00    +0.100 A 
ATOM      5  C   UNL     1      19.441   0.592  52.553  0.00  0.00    +0.077 A 
ATOM      6  C   UNL     1      18.275  -0.092  52.245  0.00  0.00    +0.015 A 
ATOM      7  C   UNL     1      17.747  -1.286  52.743  0.00  0.00    -0.033 A 
ATOM      8  C   UNL     1      16.538  -1.754  52.198  0.00  0.00    +0.042 A 
ATOM      9 CL   UNL     1      15.832  -3.244  52.794  0.00  0.00    -0.084 Cl
ATOM     10  C   UNL     1      15.893  -1.034  51.168  0.00  0.00    -0.041 A 
ATOM     11  C   UNL     1      16.455   0.154  50.671  0.00  0.00    -0.036 A 
ATOM     12  C   UNL     1      17.654   0.600  51.232  0.00  0.00    +0.050 A 
BRANCH   5  13
ATOM     13  C   UNL     1      20.442   0.249  53.583  0.00  0.00    +0.251 C 
ATOM     14  O   UNL     1      20.375   0.795  54.718  0.00  0.00    -0.270 OA
ATOM     15  N   UNL     1      21.440  -0.749  53.324  0.00  0.00    -0.281 N 
ATOM     16  H   UNL     1      21.294  -1.366  52.571  0.00  0.00    +0.000 HD
BRANCH  15  17
ATOM     17  C   UNL     1      22.641  -0.900  54.100  0.00  0.00    +0.034 A 
ATOM     18  C   UNL     1      22.643  -1.597  55.324  0.00  0.00    -0.040 A 
ATOM     19  C   UNL     1      23.822  -1.711  56.068  0.00  0.00    -0.060 A 
ATOM     20  C   UNL     1      25.003  -1.126  55.607  0.00  0.00    -0.062 A 
ATOM     21  C   UNL     1      25.006  -0.414  54.404  0.00  0.00    -0.060 A 
ATOM     22  C   UNL     1      23.829  -0.295  53.657  0.00  0.00    -0.040 A 
ENDBRANCH  15  17
ENDBRANCH   5  13
ENDBRANCH   1   4
BRANCH   1  23
ATOM     23  S   UNL     1      22.075   1.780  50.484  0.00  0.00    -0.032 S 
BRANCH  23  24
ATOM     24  C   UNL     1      23.012   3.205  49.917  0.00  0.00    +0.100 A 
ATOM     25  C   UNL     1      24.260   3.590  50.406  0.00  0.00    +0.077 A 
ATOM     26  C   UNL     1      24.621   4.702  49.666  0.00  0.00    +0.015 A 
ATOM     27  C   UNL     1      25.737   5.539  49.748  0.00  0.00    -0.033 A 
ATOM     28  C   UNL     1      25.811   6.627  48.860  0.00  0.00    +0.042 A 
ATOM     29 CL   UNL     1      27.194   7.704  48.917  0.00  0.00    -0.084 Cl
ATOM     30  C   UNL     1      24.774   6.864  47.931  0.00  0.00    -0.041 A 
ATOM     31  C   UNL     1      23.649   6.023  47.888  0.00  0.00    -0.036 A 
ATOM     32  C   UNL     1      23.602   4.944  48.777  0.00  0.00    +0.050 A 
ATOM     33  N   UNL     1      22.617   4.032  48.915  0.00  0.00    -0.337 N 
ATOM     34  C   UNL     1      21.348   4.011  48.187  0.00  0.00    +0.013 C 
BRANCH  25  35
ATOM     35  C   UNL     1      25.037   2.911  51.458  0.00  0.00    +0.251 C 
ATOM     36  O   UNL     1      24.549   2.823  52.618  0.00  0.00    -0.270 OA
ATOM     37  N   UNL     1      26.326   2.351  51.163  0.00  0.00    -0.281 N 
ATOM     38  H   UNL     1      26.707   2.513  50.269  0.00  0.00    +0.000 HD
BRANCH  37  39
ATOM     39  C   UNL     1      27.097   1.570  52.090  0.00  0.00    +0.034 A 
ATOM     40  C   UNL     1      27.128   0.164  52.019  0.00  0.00    -0.040 A 
ATOM     41  C   UNL     1      27.913  -0.569  52.914  0.00  0.00    -0.060 A 
ATOM     42  C   UNL     1      28.680   0.090  53.876  0.00  0.00    -0.062 A 
ATOM     43  C   UNL     1      28.674   1.486  53.938  0.00  0.00    -0.060 A 
ATOM     44  C   UNL     1      27.892   2.222  53.044  0.00  0.00    -0.040 A 
ENDBRANCH  37  39
ENDBRANCH  25  35
ENDBRANCH  23  24
ENDBRANCH   1  23
TORSDOF 7
ENDMDL
MODEL 5
REMARK VINA RESULT:    -9.891      2.703      8.426
REMARK INTER + INTRA:         -15.987
REMARK INTER:                 -14.622
REMARK INTRA:                  -1.364
REMARK UNBOUND:                -2.048
REMARK  Name = 
REMARK  9 active torsions:
REMARK  status: ('A' for Active; 'I' for Inactive)
REMARK    1  A    between atoms: C_1  and  N_2
REMARK    2  A    between atoms: C_3  and  S_4
REMARK    3  A    between atoms: S_4  and  S_5
REMARK    4  A    between atoms: S_5  and  C_6
REMARK    5  A    between atoms: C_7  and  C_8
REMARK    6  A    between atoms: N_10  and  C_11
REMARK    7  A    between atoms: N_24  and  C_25
REMARK    8  A    between atoms: C_26  and  C_27
REMARK    9  A    between atoms: N_29  and  C_30
REMARK                            x       y       z     vdW  Elec       q    Type
REMARK                         _______ _______ _______ _____ _____    ______ ____
ROOT
ATOM      1  S   UNL     1      23.952   3.962  49.441  0.00  0.00    -0.032 S 
ENDROOT
BRANCH   1   4
ATOM      2  C   UNL     1      27.210   3.928  49.116  0.00  0.00    +0.013 C 
ATOM      3  N   UNL     1      26.423   5.140  48.882  0.00  0.00    -0.337 N 
ATOM      4  C   UNL     1      25.072   5.270  48.925  0.00  0.00    +0.100 A 
ATOM      5  C   UNL     1      24.691   6.560  48.554  0.00  0.00    +0.077 A 
ATOM      6  C   UNL     1      25.873   7.226  48.270  0.00  0.00    +0.015 A 
ATOM      7  C   UNL     1      26.115   8.520  47.804  0.00  0.00    -0.033 A 
ATOM      8  C   UNL     1      27.448   8.905  47.576  0.00  0.00    +0.042 A 
ATOM      9 CL   UNL     1      27.802  10.521  46.997  0.00  0.00    -0.084 Cl
ATOM     10  C   UNL     1      28.503   7.993  47.802  0.00  0.00    -0.041 A 
ATOM     11  C   UNL     1      28.233   6.690  48.251  0.00  0.00    -0.036 A 
ATOM     12  C   UNL     1      26.900   6.334  48.476  0.00  0.00    +0.050 A 
BRANCH   5  13
ATOM     13  C   UNL     1      23.317   7.098  48.493  0.00  0.00    +0.251 C 
ATOM     14  O   UNL     1      22.560   6.758  47.544  0.00  0.00    -0.270 OA
ATOM     15  N   UNL     1      22.821   7.944  49.541  0.00  0.00    -0.281 N 
ATOM     16  H   UNL     1      23.302   7.950  50.400  0.00  0.00    +0.000 HD
BRANCH  15  17
ATOM     17  C   UNL     1      21.660   8.783  49.409  0.00  0.00    +0.034 A 
ATOM     18  C   UNL     1      21.720  10.021  48.740  0.00  0.00    -0.040 A 
ATOM     19  C   UNL     1      20.581  10.827  48.644  0.00  0.00    -0.060 A 
ATOM     20  C   UNL     1      19.379  10.414  49.221  0.00  0.00    -0.062 A 
ATOM     21  C   UNL     1      19.314   9.198  49.906  0.00  0.00    -0.060 A 
ATOM     22  C   UNL     1      20.452   8.389  50.008  0.00  0.00    -0.040 A 
ENDBRANCH  15  17
ENDBRANCH   5  13
ENDBRANCH   1   4
BRANCH   1  23
ATOM     23  S   UNL     1      23.860   4.656  51.460  0.00  0.00    -0.032 S 
BRANCH  23  24
ATOM     24  C   UNL     1      22.921   3.231  52.026  0.00  0.00    +0.100 A 
ATOM     25  C   UNL     1      23.457   2.135  52.699  0.00  0.00    +0.077 A 
ATOM     26  C   UNL     1      22.382   1.307  52.974  0.00  0.00    +0.015 A 
ATOM     27  C   UNL     1      22.320   0.049  53.580  0.00  0.00    -0.033 A 
ATOM     28  C   UNL     1      21.060  -0.565  53.695  0.00  0.00    +0.042 A 
ATOM     29 CL   UNL     1      20.927  -2.142  54.452  0.00  0.00    -0.084 Cl
ATOM     30  C   UNL     1      19.904   0.074  53.194  0.00  0.00    -0.041 A 
ATOM     31  C   UNL     1      19.998   1.327  52.566  0.00  0.00    -0.036 A 
ATOM     32  C   UNL     1      21.261   1.920  52.469  0.00  0.00    +0.050 A 
ATOM     33  N   UNL     1      21.576   3.100  51.894  0.00  0.00    -0.337 N 
ATOM     34  C   UNL     1      20.655   3.996  51.196  0.00  0.00    +0.013 C 
BRANCH  25  35
ATOM     35  C   UNL     1      24.869   1.939  53.073  0.00  0.00    +0.251 C 
ATOM     36  O   UNL     1      25.375   2.678  53.961  0.00  0.00    -0.270 OA
ATOM     37  N   UNL     1      25.652   0.915  52.441  0.00  0.00    -0.281 N 
ATOM     38  H   UNL     1      25.245   0.414  51.696  0.00  0.00    +0.000 HD
BRANCH  37  39
ATOM     39  C   UNL     1      26.994   0.572  52.826  0.00  0.00    +0.034 A 
ATOM     40  C   UNL     1      27.925   1.559  53.203  0.00  0.00    -0.040 A 
ATOM     41  C   UNL     1      29.214   1.194  53.603  0.00  0.00    -0.060 A 
ATOM     42  C   UNL     1      29.580  -0.153  53.644  0.00  0.00    -0.062 A 
ATOM     43  C   UNL     1      28.655  -1.140  53.296  0.00  0.00    -0.060 A 
ATOM     44  C   UNL     1      27.365  -0.779  52.896  0.00  0.00    -0.040 A 
ENDBRANCH  37  39
ENDBRANCH  25  35
ENDBRANCH  23  24
ENDBRANCH   1  23
TORSDOF 7
ENDMDL
MODEL 6
REMARK VINA RESULT:    -9.819      2.397      8.115
REMARK INTER + INTRA:         -15.885
REMARK INTER:                 -13.756
REMARK INTRA:                  -2.129
REMARK UNBOUND:                -2.048
REMARK  Name = 
REMARK  9 active torsions:
REMARK  status: ('A' for Active; 'I' for Inactive)
REMARK    1  A    between atoms: C_1  and  N_2
REMARK    2  A    between atoms: C_3  and  S_4
REMARK    3  A    between atoms: S_4  and  S_5
REMARK    4  A    between atoms: S_5  and  C_6
REMARK    5  A    between atoms: C_7  and  C_8
REMARK    6  A    between atoms: N_10  and  C_11
REMARK    7  A    between atoms: N_24  and  C_25
REMARK    8  A    between atoms: C_26  and  C_27
REMARK    9  A    between atoms: N_29  and  C_30
REMARK                            x       y       z     vdW  Elec       q    Type
REMARK                         _______ _______ _______ _____ _____    ______ ____
ROOT
ATOM      1  S   UNL     1      21.826   1.985  49.894  0.00  0.00    -0.032 S 
ENDROOT
BRANCH   1   4
ATOM      2  C   UNL     1      21.391   4.418  47.746  0.00  0.00    +0.013 C 
ATOM      3  N   UNL     1      22.612   4.302  48.546  0.00  0.00    -0.337 N 
ATOM      4  C   UNL     1      22.888   3.382  49.506  0.00  0.00    +0.100 A 
ATOM      5  C   UNL     1      24.116   3.655  50.109  0.00  0.00    +0.077 A 
ATOM      6  C   UNL     1      24.589   4.796  49.480  0.00  0.00    +0.015 A 
ATOM      7  C   UNL     1      25.739   5.559  49.696  0.00  0.00    -0.033 A 
ATOM      8  C   UNL     1      25.932   6.706  48.905  0.00  0.00    +0.042 A 
ATOM      9 CL   UNL     1      27.364   7.692  49.134  0.00  0.00    -0.084 Cl
ATOM     10  C   UNL     1      24.976   7.072  47.933  0.00  0.00    -0.041 A 
ATOM     11  C   UNL     1      23.816   6.299  47.749  0.00  0.00    -0.036 A 
ATOM     12  C   UNL     1      23.650   5.162  48.544  0.00  0.00    +0.050 A 
BRANCH   5  13
ATOM     13  C   UNL     1      24.773   2.878  51.179  0.00  0.00    +0.251 C 
ATOM     14  O   UNL     1      24.318   2.933  52.353  0.00  0.00    -0.270 OA
ATOM     15  N   UNL     1      25.876   2.011  50.875  0.00  0.00    -0.281 N 
ATOM     16  H   UNL     1      26.018   1.752  49.936  0.00  0.00    +0.000 HD
BRANCH  15  17
ATOM     17  C   UNL     1      26.787   1.499  51.864  0.00  0.00    +0.034 A 
ATOM     18  C   UNL     1      27.515   2.360  52.709  0.00  0.00    -0.040 A 
ATOM     19  C   UNL     1      28.409   1.836  53.648  0.00  0.00    -0.060 A 
ATOM     20  C   UNL     1      28.594   0.455  53.747  0.00  0.00    -0.062 A 
ATOM     21  C   UNL     1      27.893  -0.406  52.898  0.00  0.00    -0.060 A 
ATOM     22  C   UNL     1      26.999   0.114  51.955  0.00  0.00    -0.040 A 
ENDBRANCH  15  17
ENDBRANCH   5  13
ENDBRANCH   1   4
BRANCH   1  23
ATOM     23  S   UNL     1      20.483   3.161  51.068  0.00  0.00    -0.032 S 
BRANCH  23  24
ATOM     24  C   UNL     1      19.297   1.823  51.257  0.00  0.00    +0.100 A 
ATOM     25  C   UNL     1      19.409   0.778  52.173  0.00  0.00    +0.077 A 
ATOM     26  C   UNL     1      18.269   0.011  52.001  0.00  0.00    +0.015 A 
ATOM     27  C   UNL     1      17.865  -1.183  52.603  0.00  0.00    -0.033 A 
ATOM     28  C   UNL     1      16.644  -1.747  52.191  0.00  0.00    +0.042 A 
ATOM     29 CL   UNL     1      16.087  -3.243  52.919  0.00  0.00    -0.084 Cl
ATOM     30  C   UNL     1      15.870  -1.124  51.187  0.00  0.00    -0.041 A 
ATOM     31  C   UNL     1      16.314   0.063  50.580  0.00  0.00    -0.036 A 
ATOM     32  C   UNL     1      17.527   0.607  51.010  0.00  0.00    +0.050 A 
ATOM     33  N   UNL     1      18.140   1.719  50.553  0.00  0.00    -0.337 N 
ATOM     34  C   UNL     1      17.681   2.574  49.459  0.00  0.00    +0.013 C 
BRANCH  25  35
ATOM     35  C   UNL     1      20.497   0.576  53.145  0.00  0.00    +0.251 C 
ATOM     36  O   UNL     1      20.460   1.197  54.243  0.00  0.00    -0.270 OA
ATOM     37  N   UNL     1      21.579  -0.321  52.850  0.00  0.00    -0.281 N 
ATOM     38  H   UNL     1      21.614  -0.723  51.951  0.00  0.00    +0.000 HD
BRANCH  37  39
ATOM     39  C   UNL     1      22.614  -0.671  53.783  0.00  0.00    +0.034 A 
ATOM     40  C   UNL     1      23.935  -0.211  53.623  0.00  0.00    -0.040 A 
ATOM     41  C   UNL     1      24.914  -0.542  54.564  0.00  0.00    -0.060 A 
ATOM     42  C   UNL     1      24.585  -1.320  55.675  0.00  0.00    -0.062 A 
ATOM     43  C   UNL     1      23.271  -1.761  55.854  0.00  0.00    -0.060 A 
ATOM     44  C   UNL     1      22.289  -1.432  54.916  0.00  0.00    -0.040 A 
ENDBRANCH  37  39
ENDBRANCH  25  35
ENDBRANCH  23  24
ENDBRANCH   1  23
TORSDOF 7
ENDMDL
MODEL 7
REMARK VINA RESULT:    -9.390      2.837      5.947
REMARK INTER + INTRA:         -15.281
REMARK INTER:                 -13.870
REMARK INTRA:                  -1.411
REMARK UNBOUND:                -2.048
REMARK  Name = 
REMARK  9 active torsions:
REMARK  status: ('A' for Active; 'I' for Inactive)
REMARK    1  A    between atoms: C_1  and  N_2
REMARK    2  A    between atoms: C_3  and  S_4
REMARK    3  A    between atoms: S_4  and  S_5
REMARK    4  A    between atoms: S_5  and  C_6
REMARK    5  A    between atoms: C_7  and  C_8
REMARK    6  A    between atoms: N_10  and  C_11
REMARK    7  A    between atoms: N_24  and  C_25
REMARK    8  A    between atoms: C_26  and  C_27
REMARK    9  A    between atoms: N_29  and  C_30
REMARK                            x       y       z     vdW  Elec       q    Type
REMARK                         _______ _______ _______ _____ _____    ______ ____
ROOT
ATOM      1  S   UNL     1      23.999   4.691  51.442  0.00  0.00    -0.032 S 
ENDROOT
BRANCH   1   4
ATOM      2  C   UNL     1      20.811   4.135  51.945  0.00  0.00    +0.013 C 
ATOM      3  N   UNL     1      21.832   3.143  52.287  0.00  0.00    -0.337 N 
ATOM      4  C   UNL     1      23.171   3.227  52.075  0.00  0.00    +0.100 A 
ATOM      5  C   UNL     1      23.803   2.042  52.453  0.00  0.00    +0.077 A 
ATOM      6  C   UNL     1      22.789   1.211  52.904  0.00  0.00    +0.015 A 
ATOM      7  C   UNL     1      22.811  -0.109  53.359  0.00  0.00    -0.033 A 
ATOM      8  C   UNL     1      21.591  -0.705  53.725  0.00  0.00    +0.042 A 
ATOM      9 CL   UNL     1      21.568  -2.359  54.307  0.00  0.00    -0.084 Cl
ATOM     10  C   UNL     1      20.383   0.018  53.616  0.00  0.00    -0.041 A 
ATOM     11  C   UNL     1      20.384   1.338  53.136  0.00  0.00    -0.036 A 
ATOM     12  C   UNL     1      21.610   1.910  52.785  0.00  0.00    +0.050 A 
BRANCH   5  13
ATOM     13  C   UNL     1      25.249   1.748  52.395  0.00  0.00    +0.251 C 
ATOM     14  O   UNL     1      25.859   1.853  51.296  0.00  0.00    -0.270 OA
ATOM     15  N   UNL     1      25.972   1.416  53.589  0.00  0.00    -0.281 N 
ATOM     16  H   UNL     1      25.560   1.632  54.457  0.00  0.00    +0.000 HD
BRANCH  15  17
ATOM     17  C   UNL     1      27.265   0.784  53.593  0.00  0.00    +0.034 A 
ATOM     18  C   UNL     1      28.443   1.522  53.819  0.00  0.00    -0.040 A 
ATOM     19  C   UNL     1      29.688   0.886  53.796  0.00  0.00    -0.060 A 
ATOM     20  C   UNL     1      29.772  -0.484  53.540  0.00  0.00    -0.062 A 
ATOM     21  C   UNL     1      28.611  -1.221  53.293  0.00  0.00    -0.060 A 
ATOM     22  C   UNL     1      27.362  -0.588  53.311  0.00  0.00    -0.040 A 
ENDBRANCH  15  17
ENDBRANCH   5  13
ENDBRANCH   1   4
BRANCH   1  23
ATOM     23  S   UNL     1      23.559   4.223  49.405  0.00  0.00    -0.032 S 
BRANCH  23  24
ATOM     24  C   UNL     1      22.902   5.859  49.053  0.00  0.00    +0.100 A 
ATOM     25  C   UNL     1      23.663   7.021  48.940  0.00  0.00    +0.077 A 
ATOM     26  C   UNL     1      22.763   8.025  48.627  0.00  0.00    +0.015 A 
ATOM     27  C   UNL     1      22.943   9.399  48.448  0.00  0.00    -0.033 A 
ATOM     28  C   UNL     1      21.810  10.180  48.159  0.00  0.00    +0.042 A 
ATOM     29 CL   UNL     1      21.982  11.909  47.920  0.00  0.00    -0.084 Cl
ATOM     30  C   UNL     1      20.533   9.582  48.072  0.00  0.00    -0.041 A 
ATOM     31  C   UNL     1      20.376   8.201  48.283  0.00  0.00    -0.036 A 
ATOM     32  C   UNL     1      21.519   7.446  48.562  0.00  0.00    +0.050 A 
ATOM     33  N   UNL     1      21.591   6.122  48.813  0.00  0.00    -0.337 N 
ATOM     34  C   UNL     1      20.464   5.193  48.895  0.00  0.00    +0.013 C 
BRANCH  25  35
ATOM     35  C   UNL     1      25.126   7.128  49.082  0.00  0.00    +0.251 C 
ATOM     36  O   UNL     1      25.607   7.513  50.182  0.00  0.00    -0.270 OA
ATOM     37  N   UNL     1      25.989   6.790  47.985  0.00  0.00    -0.281 N 
ATOM     38  H   UNL     1      25.572   6.573  47.118  0.00  0.00    +0.000 HD
BRANCH  37  39
ATOM     39  C   UNL     1      27.423   6.747  48.070  0.00  0.00    +0.034 A 
ATOM     40  C   UNL     1      28.109   5.545  48.325  0.00  0.00    -0.040 A 
ATOM     41  C   UNL     1      29.506   5.528  48.371  0.00  0.00    -0.060 A 
ATOM     42  C   UNL     1      30.229   6.701  48.151  0.00  0.00    -0.062 A 
ATOM     43  C   UNL     1      29.557   7.894  47.872  0.00  0.00    -0.060 A 
ATOM     44  C   UNL     1      28.160   7.915  47.825  0.00  0.00    -0.040 A 
ENDBRANCH  37  39
ENDBRANCH  25  35
ENDBRANCH  23  24
ENDBRANCH   1  23
TORSDOF 7
ENDMDL
MODEL 8
REMARK VINA RESULT:    -9.386      2.944      9.785
REMARK INTER + INTRA:         -15.275
REMARK INTER:                 -13.556
REMARK INTRA:                  -1.719
REMARK UNBOUND:                -2.048
REMARK  Name = 
REMARK  9 active torsions:
REMARK  status: ('A' for Active; 'I' for Inactive)
REMARK    1  A    between atoms: C_1  and  N_2
REMARK    2  A    between atoms: C_3  and  S_4
REMARK    3  A    between atoms: S_4  and  S_5
REMARK    4  A    between atoms: S_5  and  C_6
REMARK    5  A    between atoms: C_7  and  C_8
REMARK    6  A    between atoms: N_10  and  C_11
REMARK    7  A    between atoms: N_24  and  C_25
REMARK    8  A    between atoms: C_26  and  C_27
REMARK    9  A    between atoms: N_29  and  C_30
REMARK                            x       y       z     vdW  Elec       q    Type
REMARK                         _______ _______ _______ _____ _____    ______ ____
ROOT
ATOM      1  S   UNL     1      21.666   0.474  50.919  0.00  0.00    -0.032 S 
ENDROOT
BRANCH   1   4
ATOM      2  C   UNL     1      20.605   2.522  48.595  0.00  0.00    +0.013 C 
ATOM      3  N   UNL     1      21.907   2.696  49.242  0.00  0.00    -0.337 N 
ATOM      4  C   UNL     1      22.433   1.957  50.253  0.00  0.00    +0.100 A 
ATOM      5  C   UNL     1      23.656   2.488  50.664  0.00  0.00    +0.077 A 
ATOM      6  C   UNL     1      23.863   3.600  49.863  0.00  0.00    +0.015 A 
ATOM      7  C   UNL     1      24.886   4.551  49.849  0.00  0.00    -0.033 A 
ATOM      8  C   UNL     1      24.800   5.604  48.922  0.00  0.00    +0.042 A 
ATOM      9 CL   UNL     1      26.063   6.819  48.862  0.00  0.00    -0.084 Cl
ATOM     10  C   UNL     1      23.697   5.695  48.044  0.00  0.00    -0.041 A 
ATOM     11  C   UNL     1      22.670   4.737  48.091  0.00  0.00    -0.036 A 
ATOM     12  C   UNL     1      22.781   3.697  49.017  0.00  0.00    +0.050 A 
BRANCH   5  13
ATOM     13  C   UNL     1      24.544   1.961  51.720  0.00  0.00    +0.251 C 
ATOM     14  O   UNL     1      24.173   2.012  52.924  0.00  0.00    -0.270 OA
ATOM     15  N   UNL     1      25.787   1.330  51.377  0.00  0.00    -0.281 N 
ATOM     16  H   UNL     1      25.915   1.032  50.448  0.00  0.00    +0.000 HD
BRANCH  15  17
ATOM     17  C   UNL     1      26.857   1.110  52.313  0.00  0.00    +0.034 A 
ATOM     18  C   UNL     1      27.141  -0.175  52.816  0.00  0.00    -0.040 A 
ATOM     19  C   UNL     1      28.175  -0.357  53.740  0.00  0.00    -0.060 A 
ATOM     20  C   UNL     1      28.925   0.735  54.179  0.00  0.00    -0.062 A 
ATOM     21  C   UNL     1      28.637   2.017  53.702  0.00  0.00    -0.060 A 
ATOM     22  C   UNL     1      27.602   2.205  52.779  0.00  0.00    -0.040 A 
ENDBRANCH  15  17
ENDBRANCH   5  13
ENDBRANCH   1   4
BRANCH   1  23
ATOM     23  S   UNL     1      20.537   1.551  52.378  0.00  0.00    -0.032 S 
BRANCH  23  24
ATOM     24  C   UNL     1      19.340   0.228  52.594  0.00  0.00    +0.100 A 
ATOM     25  C   UNL     1      18.111   0.146  51.942  0.00  0.00    +0.077 A 
ATOM     26  C   UNL     1      17.541  -1.040  52.372  0.00  0.00    +0.015 A 
ATOM     27  C   UNL     1      16.299  -1.617  52.098  0.00  0.00    -0.033 A 
ATOM     28  C   UNL     1      15.989  -2.840  52.719  0.00  0.00    +0.042 A 
ATOM     29 CL   UNL     1      14.444  -3.609  52.403  0.00  0.00    -0.084 Cl
ATOM     30  C   UNL     1      16.908  -3.447  53.602  0.00  0.00    -0.041 A 
ATOM     31  C   UNL     1      18.141  -2.831  53.881  0.00  0.00    -0.036 A 
ATOM     32  C   UNL     1      18.428  -1.619  53.247  0.00  0.00    +0.050 A 
ATOM     33  N   UNL     1      19.534  -0.858  53.386  0.00  0.00    -0.337 N 
ATOM     34  C   UNL     1      20.661  -1.121  54.280  0.00  0.00    +0.013 C 
BRANCH  25  35
ATOM     35  C   UNL     1      17.569   1.109  50.967  0.00  0.00    +0.251 C 
ATOM     36  O   UNL     1      17.655   0.847  49.736  0.00  0.00    -0.270 OA
ATOM     37  N   UNL     1      16.944   2.323  51.413  0.00  0.00    -0.281 N 
ATOM     38  H   UNL     1      16.970   2.529  52.376  0.00  0.00    +0.000 HD
BRANCH  37  39
ATOM     39  C   UNL     1      16.283   3.257  50.544  0.00  0.00    +0.034 A 
ATOM     40  C   UNL     1      16.971   3.904  49.500  0.00  0.00    -0.040 A 
ATOM     41  C   UNL     1      16.294   4.784  48.650  0.00  0.00    -0.060 A 
ATOM     42  C   UNL     1      14.928   5.015  48.824  0.00  0.00    -0.062 A 
ATOM     43  C   UNL     1      14.232   4.358  49.842  0.00  0.00    -0.060 A 
ATOM     44  C   UNL     1      14.906   3.477  50.694  0.00  0.00    -0.040 A 
ENDBRANCH  37  39
ENDBRANCH  25  35
ENDBRANCH  23  24
ENDBRANCH   1  23
TORSDOF 7
ENDMDL
MODEL 9
REMARK VINA RESULT:    -9.317      2.946      6.317
REMARK INTER + INTRA:         -15.177
REMARK INTER:                 -13.602
REMARK INTRA:                  -1.575
REMARK UNBOUND:                -2.048
REMARK  Name = 
REMARK  9 active torsions:
REMARK  status: ('A' for Active; 'I' for Inactive)
REMARK    1  A    between atoms: C_1  and  N_2
REMARK    2  A    between atoms: C_3  and  S_4
REMARK    3  A    between atoms: S_4  and  S_5
REMARK    4  A    between atoms: S_5  and  C_6
REMARK    5  A    between atoms: C_7  and  C_8
REMARK    6  A    between atoms: N_10  and  C_11
REMARK    7  A    between atoms: N_24  and  C_25
REMARK    8  A    between atoms: C_26  and  C_27
REMARK    9  A    between atoms: N_29  and  C_30
REMARK                            x       y       z     vdW  Elec       q    Type
REMARK                         _______ _______ _______ _____ _____    ______ ____
ROOT
ATOM      1  S   UNL     1      21.268   2.819  52.423  0.00  0.00    -0.032 S 
ENDROOT
BRANCH   1   4
ATOM      2  C   UNL     1      23.419   5.285  52.288  0.00  0.00    +0.013 C 
ATOM      3  N   UNL     1      22.131   5.345  51.596  0.00  0.00    -0.337 N 
ATOM      4  C   UNL     1      21.184   4.374  51.525  0.00  0.00    +0.100 A 
ATOM      5  C   UNL     1      20.134   4.772  50.696  0.00  0.00    +0.077 A 
ATOM      6  C   UNL     1      20.478   6.037  50.248  0.00  0.00    +0.015 A 
ATOM      7  C   UNL     1      19.841   6.907  49.359  0.00  0.00    -0.033 A 
ATOM      8  C   UNL     1      20.464   8.134  49.071  0.00  0.00    +0.042 A 
ATOM      9 CL   UNL     1      19.700   9.261  47.966  0.00  0.00    -0.084 Cl
ATOM     10  C   UNL     1      21.705   8.460  49.660  0.00  0.00    -0.041 A 
ATOM     11  C   UNL     1      22.336   7.560  50.535  0.00  0.00    -0.036 A 
ATOM     12  C   UNL     1      21.694   6.349  50.810  0.00  0.00    +0.050 A 
BRANCH   5  13
ATOM     13  C   UNL     1      18.911   4.005  50.380  0.00  0.00    +0.251 C 
ATOM     14  O   UNL     1      17.802   4.394  50.836  0.00  0.00    -0.270 OA
ATOM     15  N   UNL     1      18.971   2.869  49.505  0.00  0.00    -0.281 N 
ATOM     16  H   UNL     1      19.764   2.766  48.932  0.00  0.00    +0.000 HD
BRANCH  15  17
ATOM     17  C   UNL     1      17.938   1.871  49.418  0.00  0.00    +0.034 A 
ATOM     18  C   UNL     1      16.771   2.086  48.659  0.00  0.00    -0.040 A 
ATOM     19  C   UNL     1      15.774   1.107  48.608  0.00  0.00    -0.060 A 
ATOM     20  C   UNL     1      15.925  -0.086  49.318  0.00  0.00    -0.062 A 
ATOM     21  C   UNL     1      17.069  -0.299  50.090  0.00  0.00    -0.060 A 
ATOM     22  C   UNL     1      18.069   0.679  50.147  0.00  0.00    -0.040 A 
ENDBRANCH  15  17
ENDBRANCH   5  13
ENDBRANCH   1   4
BRANCH   1  23
ATOM     23  S   UNL     1      22.104   1.755  50.770  0.00  0.00    -0.032 S 
BRANCH  23  24
ATOM     24  C   UNL     1      23.626   1.367  51.644  0.00  0.00    +0.100 A 
ATOM     25  C   UNL     1      24.871   1.934  51.375  0.00  0.00    +0.077 A 
ATOM     26  C   UNL     1      25.738   1.382  52.302  0.00  0.00    +0.015 A 
ATOM     27  C   UNL     1      27.115   1.535  52.479  0.00  0.00    -0.033 A 
ATOM     28  C   UNL     1      27.732   0.806  53.512  0.00  0.00    +0.042 A 
ATOM     29 CL   UNL     1      29.458   0.967  53.780  0.00  0.00    -0.084 Cl
ATOM     30  C   UNL     1      26.972  -0.062  54.326  0.00  0.00    -0.041 A 
ATOM     31  C   UNL     1      25.592  -0.218  54.109  0.00  0.00    -0.036 A 
ATOM     32  C   UNL     1      25.002   0.522  53.081  0.00  0.00    +0.050 A 
ATOM     33  N   UNL     1      23.709   0.509  52.693  0.00  0.00    -0.337 N 
ATOM     34  C   UNL     1      22.647  -0.332  53.246  0.00  0.00    +0.013 C 
BRANCH  25  35
ATOM     35  C   UNL     1      25.171   2.943  50.344  0.00  0.00    +0.251 C 
ATOM     36  O   UNL     1      24.503   2.943  49.274  0.00  0.00    -0.270 OA
ATOM     37  N   UNL     1      26.203   3.919  50.561  0.00  0.00    -0.281 N 
ATOM     38  H   UNL     1      26.756   3.834  51.372  0.00  0.00    +0.000 HD
BRANCH  37  39
ATOM     39  C   UNL     1      26.481   5.011  49.669  0.00  0.00    +0.034 A 
ATOM     40  C   UNL     1      25.673   6.163  49.644  0.00  0.00    -0.040 A 
ATOM     41  C   UNL     1      25.986   7.223  48.788  0.00  0.00    -0.060 A 
ATOM     42  C   UNL     1      27.110   7.150  47.963  0.00  0.00    -0.062 A 
ATOM     43  C   UNL     1      27.931   6.021  47.999  0.00  0.00    -0.060 A 
ATOM     44  C   UNL     1      27.621   4.959  48.854  0.00  0.00    -0.040 A 
ENDBRANCH  37  39
ENDBRANCH  25  35
ENDBRANCH  23  24
ENDBRANCH   1  23
TORSDOF 7
ENDMDL
