MODEL 1
REMARK VINA RESULT:    -7.353      0.000      0.000
REMARK INTER + INTRA:          -8.822
REMARK INTER:                  -8.643
REMARK INTRA:                  -0.179
REMARK UNBOUND:                -0.179
REMARK  Name = 
REMARK  4 active torsions:
REMARK  status: ('A' for Active; 'I' for Inactive)
REMARK    1  A    between atoms: C_1  and  N_2
REMARK    2  A    between atoms: N_2  and  C_3
REMARK    3  A    between atoms: C_9  and  N_10
REMARK    4  A    between atoms: N_10  and  C_11
REMARK                            x       y       z     vdW  Elec       q    Type
REMARK                         _______ _______ _______ _____ _____    ______ ____
ROOT
ATOM      1  C   UNL     1      19.731  -0.146  52.546  0.00  0.00    +0.120 A 
ATOM      2  C   UNL     1      20.233  -0.815  53.668  0.00  0.00    +0.004 A 
ATOM      3  C   UNL     1      21.601  -0.761  53.946  0.00  0.00    +0.081 A 
ATOM      4  N   UNL     1      22.095  -1.392  55.043  0.00  0.00    -0.235 NA
ATOM      5  C   UNL     1      23.419  -1.349  55.335  0.00  0.00    +0.119 A 
ATOM      6  N   UNL     1      24.274  -0.674  54.526  0.00  0.00    -0.220 NA
ATOM      7  C   UNL     1      23.841  -0.019  53.413  0.00  0.00    +0.135 A 
ATOM      8  C   UNL     1      22.468  -0.046  53.093  0.00  0.00    +0.059 A 
ATOM      9  C   UNL     1      21.917   0.622  51.984  0.00  0.00    +0.042 A 
ATOM     10  N   UNL     1      20.581   0.553  51.742  0.00  0.00    -0.240 NA
ENDROOT
BRANCH   1  12
ATOM     11  C   UNL     1      17.423  -1.094  52.950  0.00  0.00    -0.001 C 
ATOM     12  N   UNL     1      18.329  -0.192  52.248  0.00  0.00    -0.332 N 
ATOM     13  H   UNL     1      17.968   0.401  51.551  0.00  0.00    +0.000 HD
ENDBRANCH   1  12
BRANCH   7  14
ATOM     14  N   UNL     1      24.799   0.635  52.562  0.00  0.00    -0.299 N 
ATOM     15  H   UNL     1      24.487   1.008  51.707  0.00  0.00    +0.000 HD
BRANCH  14  16
ATOM     16  C   UNL     1      26.192   0.773  52.898  0.00  0.00    +0.033 A 
ATOM     17  C   UNL     1      26.697   2.035  53.248  0.00  0.00    -0.040 A 
ATOM     18  C   UNL     1      28.042   2.188  53.596  0.00  0.00    -0.059 A 
ATOM     19  C   UNL     1      28.892   1.079  53.610  0.00  0.00    -0.048 A 
ATOM     20  C   UNL     1      28.396  -0.187  53.285  0.00  0.00    +0.020 A 
ATOM     21 BR   UNL     1      29.553  -1.705  53.327  0.00  0.00    -0.050 Br
ATOM     22  C   UNL     1      27.050  -0.343  52.935  0.00  0.00    -0.027 A 
ENDBRANCH  14  16
ENDBRANCH   7  14
TORSDOF 3
ENDMDL
MODEL 2
REMARK VINA RESULT:    -7.323      1.626      2.870
REMARK INTER + INTRA:          -8.786
REMARK INTER:                  -8.342
REMARK INTRA:                  -0.444
REMARK UNBOUND:                -0.179
REMARK  Name = 
REMARK  4 active torsions:
REMARK  status: ('A' for Active; 'I' for Inactive)
REMARK    1  A    between atoms: C_1  and  N_2
REMARK    2  A    between atoms: N_2  and  C_3
REMARK    3  A    between atoms: C_9  and  N_10
REMARK    4  A    between atoms: N_10  and  C_11
REMARK                            x       y       z     vdW  Elec       q    Type
REMARK                         _______ _______ _______ _____ _____    ______ ____
ROOT
ATOM      1  C   UNL     1      19.391  -0.511  53.319  0.00  0.00    +0.120 A 
ATOM      2  C   UNL     1      19.610  -0.080  52.005  0.00  0.00    +0.004 A 
ATOM      3  C   UNL     1      20.835   0.499  51.666  0.00  0.00    +0.081 A 
ATOM      4  N   UNL     1      21.063   0.904  50.390  0.00  0.00    -0.235 NA
ATOM      5  C   UNL     1      22.247   1.464  50.038  0.00  0.00    +0.119 A 
ATOM      6  N   UNL     1      23.224   1.635  50.964  0.00  0.00    -0.220 NA
ATOM      7  C   UNL     1      23.058   1.248  52.259  0.00  0.00    +0.135 A 
ATOM      8  C   UNL     1      21.837   0.658  52.647  0.00  0.00    +0.059 A 
ATOM      9  C   UNL     1      21.577   0.198  53.951  0.00  0.00    +0.042 A 
ATOM     10  N   UNL     1      20.377  -0.364  54.249  0.00  0.00    -0.240 NA
ENDROOT
BRANCH   1  12
ATOM     11  C   UNL     1      17.948  -2.554  53.684  0.00  0.00    -0.001 C 
ATOM     12  N   UNL     1      18.138  -1.108  53.681  0.00  0.00    -0.332 N 
ATOM     13  H   UNL     1      17.387  -0.526  53.934  0.00  0.00    +0.000 HD
ENDBRANCH   1  12
BRANCH   7  14
ATOM     14  N   UNL     1      24.107   1.501  53.211  0.00  0.00    -0.299 N 
ATOM     15  H   UNL     1      23.970   2.211  53.878  0.00  0.00    +0.000 HD
BRANCH  14  16
ATOM     16  C   UNL     1      25.346   0.769  53.237  0.00  0.00    +0.033 A 
ATOM     17  C   UNL     1      25.371  -0.562  52.792  0.00  0.00    -0.040 A 
ATOM     18  C   UNL     1      26.567  -1.285  52.791  0.00  0.00    -0.059 A 
ATOM     19  C   UNL     1      27.751  -0.681  53.223  0.00  0.00    -0.048 A 
ATOM     20  C   UNL     1      27.742   0.651  53.648  0.00  0.00    +0.020 A 
ATOM     21 BR   UNL     1      29.365   1.481  54.217  0.00  0.00    -0.050 Br
ATOM     22  C   UNL     1      26.546   1.377  53.652  0.00  0.00    -0.027 A 
ENDBRANCH  14  16
ENDBRANCH   7  14
TORSDOF 3
ENDMDL
MODEL 3
REMARK VINA RESULT:    -7.155      4.326      6.798
REMARK INTER + INTRA:          -8.589
REMARK INTER:                  -8.108
REMARK INTRA:                  -0.482
REMARK UNBOUND:                -0.179
REMARK  Name = 
REMARK  4 active torsions:
REMARK  status: ('A' for Active; 'I' for Inactive)
REMARK    1  A    between atoms: C_1  and  N_2
REMARK    2  A    between atoms: N_2  and  C_3
REMARK    3  A    between atoms: C_9  and  N_10
REMARK    4  A    between atoms: N_10  and  C_11
REMARK                            x       y       z     vdW  Elec       q    Type
REMARK                         _______ _______ _______ _____ _____    ______ ____
ROOT
ATOM      1  C   UNL     1      27.382  -0.202  53.722  0.00  0.00    +0.120 A 
ATOM      2  C   UNL     1      26.084  -0.725  53.666  0.00  0.00    +0.004 A 
ATOM      3  C   UNL     1      25.010   0.127  53.401  0.00  0.00    +0.081 A 
ATOM      4  N   UNL     1      23.750  -0.373  53.328  0.00  0.00    -0.235 NA
ATOM      5  C   UNL     1      22.692   0.435  53.065  0.00  0.00    +0.119 A 
ATOM      6  N   UNL     1      22.881   1.766  52.878  0.00  0.00    -0.220 NA
ATOM      7  C   UNL     1      24.120   2.329  52.936  0.00  0.00    +0.135 A 
ATOM      8  C   UNL     1      25.234   1.506  53.202  0.00  0.00    +0.059 A 
ATOM      9  C   UNL     1      26.556   1.984  53.253  0.00  0.00    +0.042 A 
ATOM     10  N   UNL     1      27.581   1.130  53.510  0.00  0.00    -0.240 NA
ENDROOT
BRANCH   1  12
ATOM     11  C   UNL     1      29.854  -0.716  53.598  0.00  0.00    -0.001 C 
ATOM     12  N   UNL     1      28.494  -1.065  53.993  0.00  0.00    -0.332 N 
ATOM     13  H   UNL     1      28.336  -1.918  54.457  0.00  0.00    +0.000 HD
ENDBRANCH   1  12
BRANCH   7  14
ATOM     14  N   UNL     1      24.255   3.753  52.782  0.00  0.00    -0.299 N 
ATOM     15  H   UNL     1      24.449   4.292  53.581  0.00  0.00    +0.000 HD
BRANCH  14  16
ATOM     16  C   UNL     1      24.121   4.428  51.519  0.00  0.00    +0.033 A 
ATOM     17  C   UNL     1      24.734   3.887  50.378  0.00  0.00    -0.040 A 
ATOM     18  C   UNL     1      24.601   4.518  49.137  0.00  0.00    -0.059 A 
ATOM     19  C   UNL     1      23.844   5.687  49.023  0.00  0.00    -0.048 A 
ATOM     20  C   UNL     1      23.212   6.223  50.148  0.00  0.00    +0.020 A 
ATOM     21 BR   UNL     1      22.160   7.809  49.986  0.00  0.00    -0.050 Br
ATOM     22  C   UNL     1      23.344   5.596  51.392  0.00  0.00    -0.027 A 
ENDBRANCH  14  16
ENDBRANCH   7  14
TORSDOF 3
ENDMDL
MODEL 4
REMARK VINA RESULT:    -7.119      3.595      6.089
REMARK INTER + INTRA:          -8.547
REMARK INTER:                  -8.155
REMARK INTRA:                  -0.393
REMARK UNBOUND:                -0.179
REMARK  Name = 
REMARK  4 active torsions:
REMARK  status: ('A' for Active; 'I' for Inactive)
REMARK    1  A    between atoms: C_1  and  N_2
REMARK    2  A    between atoms: N_2  and  C_3
REMARK    3  A    between atoms: C_9  and  N_10
REMARK    4  A    between atoms: N_10  and  C_11
REMARK                            x       y       z     vdW  Elec       q    Type
REMARK                         _______ _______ _______ _____ _____    ______ ____
ROOT
ATOM      1  C   UNL     1      27.000   0.014  53.894  0.00  0.00    +0.120 A 
ATOM      2  C   UNL     1      25.737  -0.391  54.345  0.00  0.00    +0.004 A 
ATOM      3  C   UNL     1      24.599  -0.017  53.627  0.00  0.00    +0.081 A 
ATOM      4  N   UNL     1      23.371  -0.419  54.046  0.00  0.00    -0.235 NA
ATOM      5  C   UNL     1      22.253  -0.073  53.362  0.00  0.00    +0.119 A 
ATOM      6  N   UNL     1      22.346   0.691  52.244  0.00  0.00    -0.220 NA
ATOM      7  C   UNL     1      23.547   1.123  51.771  0.00  0.00    +0.135 A 
ATOM      8  C   UNL     1      24.724   0.771  52.463  0.00  0.00    +0.059 A 
ATOM      9  C   UNL     1      26.013   1.142  52.041  0.00  0.00    +0.042 A 
ATOM     10  N   UNL     1      27.102   0.760  52.759  0.00  0.00    -0.240 NA
ENDROOT
BRANCH   1  12
ATOM     11  C   UNL     1      29.445  -0.626  53.949  0.00  0.00    -0.001 C 
ATOM     12  N   UNL     1      28.177  -0.363  54.621  0.00  0.00    -0.332 N 
ATOM     13  H   UNL     1      28.129  -0.447  55.599  0.00  0.00    +0.000 HD
ENDBRANCH   1  12
BRANCH   7  14
ATOM     14  N   UNL     1      23.582   1.975  50.612  0.00  0.00    -0.299 N 
ATOM     15  H   UNL     1      23.383   1.578  49.734  0.00  0.00    +0.000 HD
BRANCH  14  16
ATOM     16  C   UNL     1      23.893   3.379  50.670  0.00  0.00    +0.033 A 
ATOM     17  C   UNL     1      23.243   4.191  51.612  0.00  0.00    -0.040 A 
ATOM     18  C   UNL     1      23.544   5.554  51.699  0.00  0.00    -0.059 A 
ATOM     19  C   UNL     1      24.506   6.114  50.854  0.00  0.00    -0.048 A 
ATOM     20  C   UNL     1      25.175   5.310  49.926  0.00  0.00    +0.020 A 
ATOM     21 BR   UNL     1      26.505   6.073  48.787  0.00  0.00    -0.050 Br
ATOM     22  C   UNL     1      24.875   3.947  49.836  0.00  0.00    -0.027 A 
ENDBRANCH  14  16
ENDBRANCH   7  14
TORSDOF 3
ENDMDL
MODEL 5
REMARK VINA RESULT:    -7.077      4.596      7.387
REMARK INTER + INTRA:          -8.498
REMARK INTER:                  -8.010
REMARK INTRA:                  -0.488
REMARK UNBOUND:                -0.179
REMARK  Name = 
REMARK  4 active torsions:
REMARK  status: ('A' for Active; 'I' for Inactive)
REMARK    1  A    between atoms: C_1  and  N_2
REMARK    2  A    between atoms: N_2  and  C_3
REMARK    3  A    between atoms: C_9  and  N_10
REMARK    4  A    between atoms: N_10  and  C_11
REMARK                            x       y       z     vdW  Elec       q    Type
REMARK                         _______ _______ _______ _____ _____    ______ ____
ROOT
ATOM      1  C   UNL     1      26.847   5.736  49.239  0.00  0.00    +0.120 A 
ATOM      2  C   UNL     1      25.783   6.386  49.875  0.00  0.00    +0.004 A 
ATOM      3  C   UNL     1      24.738   5.631  50.413  0.00  0.00    +0.081 A 
ATOM      4  N   UNL     1      23.710   6.252  51.047  0.00  0.00    -0.235 NA
ATOM      5  C   UNL     1      22.688   5.538  51.582  0.00  0.00    +0.119 A 
ATOM      6  N   UNL     1      22.676   4.185  51.483  0.00  0.00    -0.220 NA
ATOM      7  C   UNL     1      23.678   3.503  50.861  0.00  0.00    +0.135 A 
ATOM      8  C   UNL     1      24.754   4.224  50.303  0.00  0.00    +0.059 A 
ATOM      9  C   UNL     1      25.850   3.614  49.667  0.00  0.00    +0.042 A 
ATOM     10  N   UNL     1      26.853   4.376  49.157  0.00  0.00    -0.240 NA
ENDROOT
BRANCH   1  12
ATOM     11  C   UNL     1      29.099   5.859  48.096  0.00  0.00    -0.001 C 
ATOM     12  N   UNL     1      27.927   6.499  48.682  0.00  0.00    -0.332 N 
ATOM     13  H   UNL     1      27.876   7.481  48.697  0.00  0.00    +0.000 HD
ENDBRANCH   1  12
BRANCH   7  14
ATOM     14  N   UNL     1      23.587   2.073  50.739  0.00  0.00    -0.299 N 
ATOM     15  H   UNL     1      23.320   1.694  49.871  0.00  0.00    +0.000 HD
BRANCH  14  16
ATOM     16  C   UNL     1      23.868   1.166  51.821  0.00  0.00    +0.033 A 
ATOM     17  C   UNL     1      25.201   0.900  52.170  0.00  0.00    -0.040 A 
ATOM     18  C   UNL     1      25.495   0.037  53.230  0.00  0.00    -0.059 A 
ATOM     19  C   UNL     1      24.461  -0.557  53.958  0.00  0.00    -0.048 A 
ATOM     20  C   UNL     1      23.130  -0.282  53.633  0.00  0.00    +0.020 A 
ATOM     21 BR   UNL     1      21.717  -1.077  54.643  0.00  0.00    -0.050 Br
ATOM     22  C   UNL     1      22.831   0.580  52.572  0.00  0.00    -0.027 A 
ENDBRANCH  14  16
ENDBRANCH   7  14
TORSDOF 3
ENDMDL
MODEL 6
REMARK VINA RESULT:    -7.052      3.493      7.338
REMARK INTER + INTRA:          -8.468
REMARK INTER:                  -8.000
REMARK INTRA:                  -0.469
REMARK UNBOUND:                -0.179
REMARK  Name = 
REMARK  4 active torsions:
REMARK  status: ('A' for Active; 'I' for Inactive)
REMARK    1  A    between atoms: C_1  and  N_2
REMARK    2  A    between atoms: N_2  and  C_3
REMARK    3  A    between atoms: C_9  and  N_10
REMARK    4  A    between atoms: N_10  and  C_11
REMARK                            x       y       z     vdW  Elec       q    Type
REMARK                         _______ _______ _______ _____ _____    ______ ____
ROOT
ATOM      1  C   UNL     1      26.532   0.930  54.177  0.00  0.00    +0.120 A 
ATOM      2  C   UNL     1      26.089   2.251  54.038  0.00  0.00    +0.004 A 
ATOM      3  C   UNL     1      24.916   2.512  53.326  0.00  0.00    +0.081 A 
ATOM      4  N   UNL     1      24.468   3.788  53.200  0.00  0.00    -0.235 NA
ATOM      5  C   UNL     1      23.329   4.063  52.518  0.00  0.00    +0.119 A 
ATOM      6  N   UNL     1      22.620   3.060  51.941  0.00  0.00    -0.220 NA
ATOM      7  C   UNL     1      23.014   1.760  52.033  0.00  0.00    +0.135 A 
ATOM      8  C   UNL     1      24.193   1.449  52.742  0.00  0.00    +0.059 A 
ATOM      9  C   UNL     1      24.669   0.138  52.920  0.00  0.00    +0.042 A 
ATOM     10  N   UNL     1      25.812  -0.084  53.621  0.00  0.00    -0.240 NA
ENDROOT
BRANCH   1  12
ATOM     11  C   UNL     1      28.804  -0.165  54.341  0.00  0.00    -0.001 C 
ATOM     12  N   UNL     1      27.734   0.648  54.906  0.00  0.00    -0.332 N 
ATOM     13  H   UNL     1      27.840   1.014  55.813  0.00  0.00    +0.000 HD
ENDBRANCH   1  12
BRANCH   7  14
ATOM     14  N   UNL     1      22.253   0.743  51.357  0.00  0.00    -0.299 N 
ATOM     15  H   UNL     1      22.601   0.384  50.510  0.00  0.00    +0.000 HD
BRANCH  14  16
ATOM     16  C   UNL     1      21.008   0.222  51.858  0.00  0.00    +0.033 A 
ATOM     17  C   UNL     1      20.967  -0.361  53.134  0.00  0.00    -0.040 A 
ATOM     18  C   UNL     1      19.765  -0.856  53.648  0.00  0.00    -0.059 A 
ATOM     19  C   UNL     1      18.590  -0.761  52.896  0.00  0.00    -0.048 A 
ATOM     20  C   UNL     1      18.615  -0.163  51.633  0.00  0.00    +0.020 A 
ATOM     21 BR   UNL     1      17.005  -0.013  50.617  0.00  0.00    -0.050 Br
ATOM     22  C   UNL     1      19.817   0.332  51.116  0.00  0.00    -0.027 A 
ENDBRANCH  14  16
ENDBRANCH   7  14
TORSDOF 3
ENDMDL
MODEL 7
REMARK VINA RESULT:    -7.048      4.407      5.537
REMARK INTER + INTRA:          -8.463
REMARK INTER:                  -8.150
REMARK INTRA:                  -0.314
REMARK UNBOUND:                -0.179
REMARK  Name = 
REMARK  4 active torsions:
REMARK  status: ('A' for Active; 'I' for Inactive)
REMARK    1  A    between atoms: C_1  and  N_2
REMARK    2  A    between atoms: N_2  and  C_3
REMARK    3  A    between atoms: C_9  and  N_10
REMARK    4  A    between atoms: N_10  and  C_11
REMARK                            x       y       z     vdW  Elec       q    Type
REMARK                         _______ _______ _______ _____ _____    ______ ____
ROOT
ATOM      1  C   UNL     1      22.568   0.367  52.834  0.00  0.00    +0.120 A 
ATOM      2  C   UNL     1      23.860   0.377  53.373  0.00  0.00    +0.004 A 
ATOM      3  C   UNL     1      24.863   1.118  52.744  0.00  0.00    +0.081 A 
ATOM      4  N   UNL     1      26.115   1.147  53.269  0.00  0.00    -0.235 NA
ATOM      5  C   UNL     1      27.102   1.864  52.678  0.00  0.00    +0.119 A 
ATOM      6  N   UNL     1      26.852   2.562  51.541  0.00  0.00    -0.220 NA
ATOM      7  C   UNL     1      25.618   2.575  50.967  0.00  0.00    +0.135 A 
ATOM      8  C   UNL     1      24.574   1.841  51.567  0.00  0.00    +0.059 A 
ATOM      9  C   UNL     1      23.259   1.813  51.069  0.00  0.00    +0.042 A 
ATOM     10  N   UNL     1      22.304   1.086  51.706  0.00  0.00    -0.240 NA
ENDROOT
BRANCH   1  12
ATOM     11  C   UNL     1      21.725  -1.029  54.765  0.00  0.00    -0.001 C 
ATOM     12  N   UNL     1      21.528  -0.389  53.470  0.00  0.00    -0.332 N 
ATOM     13  H   UNL     1      20.659  -0.479  53.019  0.00  0.00    +0.000 HD
ENDBRANCH   1  12
BRANCH   7  14
ATOM     14  N   UNL     1      25.422   3.289  49.733  0.00  0.00    -0.299 N 
ATOM     15  H   UNL     1      24.789   2.922  49.076  0.00  0.00    +0.000 HD
BRANCH  14  16
ATOM     16  C   UNL     1      26.106   4.513  49.410  0.00  0.00    +0.033 A 
ATOM     17  C   UNL     1      27.342   4.460  48.748  0.00  0.00    -0.040 A 
ATOM     18  C   UNL     1      28.014   5.639  48.408  0.00  0.00    -0.059 A 
ATOM     19  C   UNL     1      27.451   6.880  48.716  0.00  0.00    -0.048 A 
ATOM     20  C   UNL     1      26.210   6.945  49.356  0.00  0.00    +0.020 A 
ATOM     21 BR   UNL     1      25.431   8.642  49.756  0.00  0.00    -0.050 Br
ATOM     22  C   UNL     1      25.536   5.768  49.699  0.00  0.00    -0.027 A 
ENDBRANCH  14  16
ENDBRANCH   7  14
TORSDOF 3
ENDMDL
MODEL 8
REMARK VINA RESULT:    -7.033      4.375      7.133
REMARK INTER + INTRA:          -8.446
REMARK INTER:                  -7.954
REMARK INTRA:                  -0.492
REMARK UNBOUND:                -0.179
REMARK  Name = 
REMARK  4 active torsions:
REMARK  status: ('A' for Active; 'I' for Inactive)
REMARK    1  A    between atoms: C_1  and  N_2
REMARK    2  A    between atoms: N_2  and  C_3
REMARK    3  A    between atoms: C_9  and  N_10
REMARK    4  A    between atoms: N_10  and  C_11
REMARK                            x       y       z     vdW  Elec       q    Type
REMARK                         _______ _______ _______ _____ _____    ______ ____
ROOT
ATOM      1  C   UNL     1      27.012   5.889  48.761  0.00  0.00    +0.120 A 
ATOM      2  C   UNL     1      25.965   6.422  49.522  0.00  0.00    +0.004 A 
ATOM      3  C   UNL     1      25.167   5.569  50.288  0.00  0.00    +0.081 A 
ATOM      4  N   UNL     1      24.160   6.079  51.043  0.00  0.00    -0.235 NA
ATOM      5  C   UNL     1      23.377   5.270  51.798  0.00  0.00    +0.119 A 
ATOM      6  N   UNL     1      23.586   3.929  51.805  0.00  0.00    -0.220 NA
ATOM      7  C   UNL     1      24.581   3.357  51.072  0.00  0.00    +0.135 A 
ATOM      8  C   UNL     1      25.412   4.179  50.283  0.00  0.00    +0.059 A 
ATOM      9  C   UNL     1      26.483   3.691  49.515  0.00  0.00    +0.042 A 
ATOM     10  N   UNL     1      27.244   4.547  48.782  0.00  0.00    -0.240 NA
ENDROOT
BRANCH   1  12
ATOM     11  C   UNL     1      28.491   7.927  48.540  0.00  0.00    -0.001 C 
ATOM     12  N   UNL     1      27.839   6.754  47.971  0.00  0.00    -0.332 N 
ATOM     13  H   UNL     1      27.970   6.550  47.017  0.00  0.00    +0.000 HD
ENDBRANCH   1  12
BRANCH   7  14
ATOM     14  N   UNL     1      24.725   1.925  51.075  0.00  0.00    -0.299 N 
ATOM     15  H   UNL     1      24.402   1.422  50.294  0.00  0.00    +0.000 HD
BRANCH  14  16
ATOM     16  C   UNL     1      25.318   1.191  52.162  0.00  0.00    +0.033 A 
ATOM     17  C   UNL     1      24.500   0.419  53.001  0.00  0.00    -0.040 A 
ATOM     18  C   UNL     1      25.058  -0.316  54.051  0.00  0.00    -0.059 A 
ATOM     19  C   UNL     1      26.439  -0.297  54.264  0.00  0.00    -0.048 A 
ATOM     20  C   UNL     1      27.265   0.452  53.421  0.00  0.00    +0.020 A 
ATOM     21 BR   UNL     1      29.155   0.459  53.699  0.00  0.00    -0.050 Br
ATOM     22  C   UNL     1      26.710   1.190  52.370  0.00  0.00    -0.027 A 
ENDBRANCH  14  16
ENDBRANCH   7  14
TORSDOF 3
ENDMDL
MODEL 9
REMARK VINA RESULT:    -6.841      3.353      3.965
REMARK INTER + INTRA:          -8.220
REMARK INTER:                  -7.832
REMARK INTRA:                  -0.387
REMARK UNBOUND:                -0.179
REMARK  Name = 
REMARK  4 active torsions:
REMARK  status: ('A' for Active; 'I' for Inactive)
REMARK    1  A    between atoms: C_1  and  N_2
REMARK    2  A    between atoms: N_2  and  C_3
REMARK    3  A    between atoms: C_9  and  N_10
REMARK    4  A    between atoms: N_10  and  C_11
REMARK                            x       y       z     vdW  Elec       q    Type
REMARK                         _______ _______ _______ _____ _____    ______ ____
ROOT
ATOM      1  C   UNL     1      19.795  -0.766  53.630  0.00  0.00    +0.120 A 
ATOM      2  C   UNL     1      20.914  -1.153  54.377  0.00  0.00    +0.004 A 
ATOM      3  C   UNL     1      22.180  -0.691  54.009  0.00  0.00    +0.081 A 
ATOM      4  N   UNL     1      23.270  -1.047  54.738  0.00  0.00    -0.235 NA
ATOM      5  C   UNL     1      24.507  -0.606  54.402  0.00  0.00    +0.119 A 
ATOM      6  N   UNL     1      24.676   0.197  53.321  0.00  0.00    -0.220 NA
ATOM      7  C   UNL     1      23.624   0.591  52.551  0.00  0.00    +0.135 A 
ATOM      8  C   UNL     1      22.326   0.149  52.885  0.00  0.00    +0.059 A 
ATOM      9  C   UNL     1      21.173   0.522  52.172  0.00  0.00    +0.042 A 
ATOM     10  N   UNL     1      19.954   0.059  52.558  0.00  0.00    -0.240 NA
ENDROOT
BRANCH   1  12
ATOM     11  C   UNL     1      18.007  -2.553  53.611  0.00  0.00    -0.001 C 
ATOM     12  N   UNL     1      18.490  -1.232  53.997  0.00  0.00    -0.332 N 
ATOM     13  H   UNL     1      17.902  -0.644  54.523  0.00  0.00    +0.000 HD
ENDBRANCH   1  12
BRANCH   7  14
ATOM     14  N   UNL     1      23.866   1.399  51.386  0.00  0.00    -0.299 N 
ATOM     15  H   UNL     1      24.061   0.945  50.535  0.00  0.00    +0.000 HD
BRANCH  14  16
ATOM     16  C   UNL     1      23.838   2.837  51.400  0.00  0.00    +0.033 A 
ATOM     17  C   UNL     1      23.440   3.509  52.567  0.00  0.00    -0.040 A 
ATOM     18  C   UNL     1      23.423   4.906  52.608  0.00  0.00    -0.059 A 
ATOM     19  C   UNL     1      23.815   5.645  51.489  0.00  0.00    -0.048 A 
ATOM     20  C   UNL     1      24.234   4.987  50.328  0.00  0.00    +0.020 A 
ATOM     21 BR   UNL     1      24.792   5.998  48.807  0.00  0.00    -0.050 Br
ATOM     22  C   UNL     1      24.251   3.589  50.283  0.00  0.00    -0.027 A 
ENDBRANCH  14  16
ENDBRANCH   7  14
TORSDOF 3
ENDMDL
