MODEL 1
REMARK VINA RESULT:    -8.259      0.000      0.000
REMARK INTER + INTRA:         -12.967
REMARK INTER:                 -11.639
REMARK INTRA:                  -1.328
REMARK UNBOUND:                -1.328
REMARK  Name = 
REMARK  9 active torsions:
REMARK  status: ('A' for Active; 'I' for Inactive)
REMARK    1  A    between atoms: C_1  and  N_2
REMARK    2  A    between atoms: C_3  and  S_4
REMARK    3  A    between atoms: S_4  and  S_5
REMARK    4  A    between atoms: S_5  and  C_6
REMARK    5  A    between atoms: C_7  and  C_8
REMARK    6  A    between atoms: C_8  and  C_9
REMARK    7  A    between atoms: N_18  and  C_19
REMARK    8  A    between atoms: C_20  and  C_21
REMARK    9  A    between atoms: C_21  and  C_22
REMARK                            x       y       z     vdW  Elec       q    Type
REMARK                         _______ _______ _______ _____ _____    ______ ____
ROOT
ATOM      1  S   UNL     1      23.827   3.843  51.980  0.00  0.00    -0.032 S 
ENDROOT
BRANCH   1   4
ATOM      2  C   UNL     1      20.660   3.171  52.512  0.00  0.00    +0.013 C 
ATOM      3  N   UNL     1      21.713   2.191  52.778  0.00  0.00    -0.337 N 
ATOM      4  C   UNL     1      23.048   2.331  52.562  0.00  0.00    +0.091 A 
ATOM      5  C   UNL     1      23.716   1.135  52.829  0.00  0.00    +0.003 A 
ATOM      6  C   UNL     1      22.733   0.242  53.214  0.00  0.00    +0.005 A 
ATOM      7  C   UNL     1      22.813  -1.103  53.579  0.00  0.00    -0.052 A 
ATOM      8  C   UNL     1      21.619  -1.764  53.918  0.00  0.00    -0.061 A 
ATOM      9  C   UNL     1      20.386  -1.079  53.878  0.00  0.00    -0.060 A 
ATOM     10  C   UNL     1      20.333   0.275  53.498  0.00  0.00    -0.038 A 
ATOM     11  C   UNL     1      21.533   0.912  53.172  0.00  0.00    +0.050 A 
BRANCH   5  12
ATOM     12  C   UNL     1      25.177   0.849  52.643  0.00  0.00    +0.073 C 
BRANCH  12  13
ATOM     13  C   UNL     1      25.926   1.166  53.896  0.00  0.00    +0.309 C 
ATOM     14  O   UNL     1      26.390   2.324  54.077  0.00  0.00    -0.251 OA
ATOM     15  O   UNL     1      26.146   0.171  54.843  0.00  0.00    -0.480 OA
ENDBRANCH  12  13
ENDBRANCH   5  12
ENDBRANCH   1   4
BRANCH   1  16
ATOM     16  S   UNL     1      23.524   3.377  49.917  0.00  0.00    -0.032 S 
BRANCH  16  17
ATOM     17  C   UNL     1      24.799   4.513  49.355  0.00  0.00    +0.091 A 
ATOM     18  C   UNL     1      24.563   5.794  48.859  0.00  0.00    +0.003 A 
ATOM     19  C   UNL     1      25.804   6.278  48.491  0.00  0.00    +0.005 A 
ATOM     20  C   UNL     1      26.172   7.491  47.909  0.00  0.00    -0.052 A 
ATOM     21  C   UNL     1      27.530   7.691  47.612  0.00  0.00    -0.061 A 
ATOM     22  C   UNL     1      28.480   6.687  47.894  0.00  0.00    -0.060 A 
ATOM     23  C   UNL     1      28.082   5.472  48.477  0.00  0.00    -0.038 A 
ATOM     24  C   UNL     1      26.725   5.297  48.773  0.00  0.00    +0.050 A 
ATOM     25  N   UNL     1      26.125   4.222  49.323  0.00  0.00    -0.337 N 
ATOM     26  C   UNL     1      26.754   2.950  49.679  0.00  0.00    +0.013 C 
BRANCH  18  27
ATOM     27  C   UNL     1      23.251   6.525  48.786  0.00  0.00    +0.073 C 
BRANCH  27  28
ATOM     28  C   UNL     1      22.896   7.116  50.113  0.00  0.00    +0.309 C 
ATOM     29  O   UNL     1      23.667   7.953  50.662  0.00  0.00    -0.251 OA
ATOM     30  O   UNL     1      21.726   6.718  50.755  0.00  0.00    -0.480 OA
ENDBRANCH  27  28
ENDBRANCH  18  27
ENDBRANCH  16  17
ENDBRANCH   1  16
TORSDOF 7
ENDMDL
MODEL 2
REMARK VINA RESULT:    -7.965      0.241      8.439
REMARK INTER + INTRA:         -12.553
REMARK INTER:                 -11.222
REMARK INTRA:                  -1.331
REMARK UNBOUND:                -1.328
REMARK  Name = 
REMARK  9 active torsions:
REMARK  status: ('A' for Active; 'I' for Inactive)
REMARK    1  A    between atoms: C_1  and  N_2
REMARK    2  A    between atoms: C_3  and  S_4
REMARK    3  A    between atoms: S_4  and  S_5
REMARK    4  A    between atoms: S_5  and  C_6
REMARK    5  A    between atoms: C_7  and  C_8
REMARK    6  A    between atoms: C_8  and  C_9
REMARK    7  A    between atoms: N_18  and  C_19
REMARK    8  A    between atoms: C_20  and  C_21
REMARK    9  A    between atoms: C_21  and  C_22
REMARK                            x       y       z     vdW  Elec       q    Type
REMARK                         _______ _______ _______ _____ _____    ______ ____
ROOT
ATOM      1  S   UNL     1      23.555   3.461  49.839  0.00  0.00    -0.032 S 
ENDROOT
BRANCH   1   4
ATOM      2  C   UNL     1      26.770   2.841  49.641  0.00  0.00    +0.013 C 
ATOM      3  N   UNL     1      26.209   4.138  49.263  0.00  0.00    -0.337 N 
ATOM      4  C   UNL     1      24.900   4.504  49.260  0.00  0.00    +0.091 A 
ATOM      5  C   UNL     1      24.750   5.784  48.722  0.00  0.00    +0.003 A 
ATOM      6  C   UNL     1      26.026   6.193  48.385  0.00  0.00    +0.005 A 
ATOM      7  C   UNL     1      26.481   7.374  47.795  0.00  0.00    -0.052 A 
ATOM      8  C   UNL     1      27.862   7.503  47.562  0.00  0.00    -0.061 A 
ATOM      9  C   UNL     1      28.746   6.461  47.911  0.00  0.00    -0.060 A 
ATOM     10  C   UNL     1      28.260   5.277  48.496  0.00  0.00    -0.038 A 
ATOM     11  C   UNL     1      26.885   5.175  48.724  0.00  0.00    +0.050 A 
BRANCH   5  12
ATOM     12  C   UNL     1      23.467   6.519  48.472  0.00  0.00    +0.073 C 
BRANCH  12  13
ATOM     13  C   UNL     1      23.007   7.190  49.726  0.00  0.00    +0.309 C 
ATOM     14  O   UNL     1      23.664   8.154  50.203  0.00  0.00    -0.251 OA
ATOM     15  O   UNL     1      21.876   6.721  50.389  0.00  0.00    -0.480 OA
ENDBRANCH  12  13
ENDBRANCH   5  12
ENDBRANCH   1   4
BRANCH   1  16
ATOM     16  S   UNL     1      23.885   3.927  51.898  0.00  0.00    -0.032 S 
BRANCH  16  17
ATOM     17  C   UNL     1      23.094   2.423  52.483  0.00  0.00    +0.091 A 
ATOM     18  C   UNL     1      23.745   1.209  52.692  0.00  0.00    +0.003 A 
ATOM     19  C   UNL     1      22.755   0.323  53.073  0.00  0.00    +0.005 A 
ATOM     20  C   UNL     1      22.820  -1.036  53.381  0.00  0.00    -0.052 A 
ATOM     21  C   UNL     1      21.621  -1.692  53.707  0.00  0.00    -0.061 A 
ATOM     22  C   UNL     1      20.398  -0.987  53.715  0.00  0.00    -0.060 A 
ATOM     23  C   UNL     1      20.362   0.381  53.398  0.00  0.00    -0.038 A 
ATOM     24  C   UNL     1      21.569   1.017  53.084  0.00  0.00    +0.050 A 
ATOM     25  N   UNL     1      21.767   2.307  52.747  0.00  0.00    -0.337 N 
ATOM     26  C   UNL     1      20.742   3.335  52.564  0.00  0.00    +0.013 C 
BRANCH  18  27
ATOM     27  C   UNL     1      25.219   0.924  52.582  0.00  0.00    +0.073 C 
BRANCH  27  28
ATOM     28  C   UNL     1      25.914   1.217  53.873  0.00  0.00    +0.309 C 
ATOM     29  O   UNL     1      26.382   2.370  54.095  0.00  0.00    -0.251 OA
ATOM     30  O   UNL     1      26.069   0.206  54.818  0.00  0.00    -0.480 OA
ENDBRANCH  27  28
ENDBRANCH  18  27
ENDBRANCH  16  17
ENDBRANCH   1  16
TORSDOF 7
ENDMDL
MODEL 3
REMARK VINA RESULT:    -7.821      2.086      3.033
REMARK INTER + INTRA:         -12.349
REMARK INTER:                 -11.170
REMARK INTRA:                  -1.179
REMARK UNBOUND:                -1.328
REMARK  Name = 
REMARK  9 active torsions:
REMARK  status: ('A' for Active; 'I' for Inactive)
REMARK    1  A    between atoms: C_1  and  N_2
REMARK    2  A    between atoms: C_3  and  S_4
REMARK    3  A    between atoms: S_4  and  S_5
REMARK    4  A    between atoms: S_5  and  C_6
REMARK    5  A    between atoms: C_7  and  C_8
REMARK    6  A    between atoms: C_8  and  C_9
REMARK    7  A    between atoms: N_18  and  C_19
REMARK    8  A    between atoms: C_20  and  C_21
REMARK    9  A    between atoms: C_21  and  C_22
REMARK                            x       y       z     vdW  Elec       q    Type
REMARK                         _______ _______ _______ _____ _____    ______ ____
ROOT
ATOM      1  S   UNL     1      23.587   4.331  51.891  0.00  0.00    -0.032 S 
ENDROOT
BRANCH   1   4
ATOM      2  C   UNL     1      25.198   1.706  53.020  0.00  0.00    +0.013 C 
ATOM      3  N   UNL     1      23.740   1.722  52.894  0.00  0.00    -0.337 N 
ATOM      4  C   UNL     1      22.957   2.755  52.482  0.00  0.00    +0.091 A 
ATOM      5  C   UNL     1      21.606   2.426  52.610  0.00  0.00    +0.003 A 
ATOM      6  C   UNL     1      21.586   1.144  53.127  0.00  0.00    +0.005 A 
ATOM      7  C   UNL     1      20.518   0.317  53.476  0.00  0.00    -0.052 A 
ATOM      8  C   UNL     1      20.814  -0.957  53.995  0.00  0.00    -0.061 A 
ATOM      9  C   UNL     1      22.154  -1.367  54.159  0.00  0.00    -0.060 A 
ATOM     10  C   UNL     1      23.212  -0.509  53.807  0.00  0.00    -0.038 A 
ATOM     11  C   UNL     1      22.893   0.748  53.288  0.00  0.00    +0.050 A 
BRANCH   5  12
ATOM     12  C   UNL     1      20.427   3.312  52.338  0.00  0.00    +0.073 C 
BRANCH  12  13
ATOM     13  C   UNL     1      19.561   2.703  51.282  0.00  0.00    +0.309 C 
ATOM     14  O   UNL     1      20.066   2.339  50.186  0.00  0.00    -0.251 OA
ATOM     15  O   UNL     1      18.192   2.578  51.495  0.00  0.00    -0.480 OA
ENDBRANCH  12  13
ENDBRANCH   5  12
ENDBRANCH   1   4
BRANCH   1  16
ATOM     16  S   UNL     1      23.313   3.834  49.831  0.00  0.00    -0.032 S 
BRANCH  16  17
ATOM     17  C   UNL     1      24.764   4.750  49.298  0.00  0.00    +0.091 A 
ATOM     18  C   UNL     1      24.742   6.038  48.766  0.00  0.00    +0.003 A 
ATOM     19  C   UNL     1      26.055   6.321  48.438  0.00  0.00    +0.005 A 
ATOM     20  C   UNL     1      26.622   7.450  47.846  0.00  0.00    -0.052 A 
ATOM     21  C   UNL     1      28.005   7.436  47.602  0.00  0.00    -0.061 A 
ATOM     22  C   UNL     1      28.782   6.309  47.944  0.00  0.00    -0.060 A 
ATOM     23  C   UNL     1      28.185   5.184  48.536  0.00  0.00    -0.038 A 
ATOM     24  C   UNL     1      26.807   5.222  48.779  0.00  0.00    +0.050 A 
ATOM     25  N   UNL     1      26.032   4.264  49.327  0.00  0.00    -0.337 N 
ATOM     26  C   UNL     1      26.449   2.923  49.735  0.00  0.00    +0.013 C 
BRANCH  18  27
ATOM     27  C   UNL     1      23.558   6.955  48.623  0.00  0.00    +0.073 C 
BRANCH  27  28
ATOM     28  C   UNL     1      23.252   7.634  49.919  0.00  0.00    +0.309 C 
ATOM     29  O   UNL     1      24.140   8.317  50.504  0.00  0.00    -0.251 OA
ATOM     30  O   UNL     1      21.992   7.487  50.494  0.00  0.00    -0.480 OA
ENDBRANCH  27  28
ENDBRANCH  18  27
ENDBRANCH  16  17
ENDBRANCH   1  16
TORSDOF 7
ENDMDL
MODEL 4
REMARK VINA RESULT:    -7.647      2.058      8.053
REMARK INTER + INTRA:         -12.104
REMARK INTER:                 -10.883
REMARK INTRA:                  -1.221
REMARK UNBOUND:                -1.328
REMARK  Name = 
REMARK  9 active torsions:
REMARK  status: ('A' for Active; 'I' for Inactive)
REMARK    1  A    between atoms: C_1  and  N_2
REMARK    2  A    between atoms: C_3  and  S_4
REMARK    3  A    between atoms: S_4  and  S_5
REMARK    4  A    between atoms: S_5  and  C_6
REMARK    5  A    between atoms: C_7  and  C_8
REMARK    6  A    between atoms: C_8  and  C_9
REMARK    7  A    between atoms: N_18  and  C_19
REMARK    8  A    between atoms: C_20  and  C_21
REMARK    9  A    between atoms: C_21  and  C_22
REMARK                            x       y       z     vdW  Elec       q    Type
REMARK                         _______ _______ _______ _____ _____    ______ ____
ROOT
ATOM      1  S   UNL     1      23.306   3.812  49.748  0.00  0.00    -0.032 S 
ENDROOT
BRANCH   1   4
ATOM      2  C   UNL     1      26.444   2.875  49.554  0.00  0.00    +0.013 C 
ATOM      3  N   UNL     1      26.027   4.245  49.254  0.00  0.00    -0.337 N 
ATOM      4  C   UNL     1      24.763   4.745  49.257  0.00  0.00    +0.091 A 
ATOM      5  C   UNL     1      24.756   6.064  48.802  0.00  0.00    +0.003 A 
ATOM      6  C   UNL     1      26.074   6.360  48.509  0.00  0.00    +0.005 A 
ATOM      7  C   UNL     1      26.660   7.522  48.004  0.00  0.00    -0.052 A 
ATOM      8  C   UNL     1      28.051   7.522  47.799  0.00  0.00    -0.061 A 
ATOM      9  C   UNL     1      28.817   6.374  48.091  0.00  0.00    -0.060 A 
ATOM     10  C   UNL     1      28.200   5.212  48.591  0.00  0.00    -0.038 A 
ATOM     11  C   UNL     1      26.817   5.238  48.793  0.00  0.00    +0.050 A 
BRANCH   5  12
ATOM     12  C   UNL     1      23.561   6.944  48.584  0.00  0.00    +0.073 C 
BRANCH  12  13
ATOM     13  C   UNL     1      23.171   7.608  49.864  0.00  0.00    +0.309 C 
ATOM     14  O   UNL     1      21.960   7.641  50.215  0.00  0.00    -0.251 OA
ATOM     15  O   UNL     1      24.140   8.226  50.649  0.00  0.00    -0.480 OA
ENDBRANCH  12  13
ENDBRANCH   5  12
ENDBRANCH   1   4
BRANCH   1  16
ATOM     16  S   UNL     1      23.476   4.353  51.809  0.00  0.00    -0.032 S 
BRANCH  16  17
ATOM     17  C   UNL     1      22.880   2.761  52.393  0.00  0.00    +0.091 A 
ATOM     18  C   UNL     1      21.538   2.421  52.550  0.00  0.00    +0.003 A 
ATOM     19  C   UNL     1      21.543   1.143  53.077  0.00  0.00    +0.005 A 
ATOM     20  C   UNL     1      20.490   0.314  53.463  0.00  0.00    -0.052 A 
ATOM     21  C   UNL     1      20.810  -0.941  54.007  0.00  0.00    -0.061 A 
ATOM     22  C   UNL     1      22.156  -1.335  54.155  0.00  0.00    -0.060 A 
ATOM     23  C   UNL     1      23.198  -0.479  53.761  0.00  0.00    -0.038 A 
ATOM     24  C   UNL     1      22.857   0.764  53.214  0.00  0.00    +0.050 A 
ATOM     25  N   UNL     1      23.683   1.736  52.778  0.00  0.00    -0.337 N 
ATOM     26  C   UNL     1      25.145   1.741  52.840  0.00  0.00    +0.013 C 
BRANCH  18  27
ATOM     27  C   UNL     1      20.331   3.239  52.178  0.00  0.00    +0.073 C 
BRANCH  27  28
ATOM     28  C   UNL     1      19.943   2.996  50.755  0.00  0.00    +0.309 C 
ATOM     29  O   UNL     1      19.504   3.946  50.045  0.00  0.00    -0.251 OA
ATOM     30  O   UNL     1      20.038   1.713  50.223  0.00  0.00    -0.480 OA
ENDBRANCH  27  28
ENDBRANCH  18  27
ENDBRANCH  16  17
ENDBRANCH   1  16
TORSDOF 7
ENDMDL
MODEL 5
REMARK VINA RESULT:    -7.250      2.593      8.061
REMARK INTER + INTRA:         -11.544
REMARK INTER:                 -10.171
REMARK INTRA:                  -1.373
REMARK UNBOUND:                -1.328
REMARK  Name = 
REMARK  9 active torsions:
REMARK  status: ('A' for Active; 'I' for Inactive)
REMARK    1  A    between atoms: C_1  and  N_2
REMARK    2  A    between atoms: C_3  and  S_4
REMARK    3  A    between atoms: S_4  and  S_5
REMARK    4  A    between atoms: S_5  and  C_6
REMARK    5  A    between atoms: C_7  and  C_8
REMARK    6  A    between atoms: C_8  and  C_9
REMARK    7  A    between atoms: N_18  and  C_19
REMARK    8  A    between atoms: C_20  and  C_21
REMARK    9  A    between atoms: C_21  and  C_22
REMARK                            x       y       z     vdW  Elec       q    Type
REMARK                         _______ _______ _______ _____ _____    ______ ____
ROOT
ATOM      1  S   UNL     1      21.586   3.787  50.780  0.00  0.00    -0.032 S 
ENDROOT
BRANCH   1   4
ATOM      2  C   UNL     1      22.619   6.474  49.208  0.00  0.00    +0.013 C 
ATOM      3  N   UNL     1      23.509   5.343  49.471  0.00  0.00    -0.337 N 
ATOM      4  C   UNL     1      23.216   4.199  50.144  0.00  0.00    +0.091 A 
ATOM      5  C   UNL     1      24.359   3.411  50.291  0.00  0.00    +0.003 A 
ATOM      6  C   UNL     1      25.378   4.122  49.685  0.00  0.00    +0.005 A 
ATOM      7  C   UNL     1      26.736   3.831  49.544  0.00  0.00    -0.052 A 
ATOM      8  C   UNL     1      27.542   4.769  48.873  0.00  0.00    -0.061 A 
ATOM      9  C   UNL     1      26.984   5.963  48.372  0.00  0.00    -0.060 A 
ATOM     10  C   UNL     1      25.613   6.235  48.536  0.00  0.00    -0.038 A 
ATOM     11  C   UNL     1      24.831   5.286  49.200  0.00  0.00    +0.050 A 
BRANCH   5  12
ATOM     12  C   UNL     1      24.478   2.114  51.035  0.00  0.00    +0.073 C 
BRANCH  12  13
ATOM     13  C   UNL     1      24.966   2.362  52.426  0.00  0.00    +0.309 C 
ATOM     14  O   UNL     1      26.033   1.823  52.825  0.00  0.00    -0.251 OA
ATOM     15  O   UNL     1      24.219   3.156  53.292  0.00  0.00    -0.480 OA
ENDBRANCH  12  13
ENDBRANCH   5  12
ENDBRANCH   1   4
BRANCH   1  16
ATOM     16  S   UNL     1      21.264   2.227  49.355  0.00  0.00    -0.032 S 
BRANCH  16  17
ATOM     17  C   UNL     1      19.986   1.436  50.340  0.00  0.00    +0.091 A 
ATOM     18  C   UNL     1      20.211   0.433  51.281  0.00  0.00    +0.003 A 
ATOM     19  C   UNL     1      18.959   0.076  51.744  0.00  0.00    +0.005 A 
ATOM     20  C   UNL     1      18.573  -0.893  52.670  0.00  0.00    -0.052 A 
ATOM     21  C   UNL     1      17.199  -1.052  52.917  0.00  0.00    -0.061 A 
ATOM     22  C   UNL     1      16.252  -0.255  52.240  0.00  0.00    -0.060 A 
ATOM     23  C   UNL     1      16.668   0.711  51.309  0.00  0.00    -0.038 A 
ATOM     24  C   UNL     1      18.042   0.859  51.084  0.00  0.00    +0.050 A 
ATOM     25  N   UNL     1      18.660   1.710  50.240  0.00  0.00    -0.337 N 
ATOM     26  C   UNL     1      18.023   2.638  49.305  0.00  0.00    +0.013 C 
BRANCH  18  27
ATOM     27  C   UNL     1      21.534  -0.115  51.743  0.00  0.00    +0.073 C 
BRANCH  27  28
ATOM     28  C   UNL     1      21.889   0.421  53.093  0.00  0.00    +0.309 C 
ATOM     29  O   UNL     1      21.292   1.436  53.551  0.00  0.00    -0.251 OA
ATOM     30  O   UNL     1      22.902  -0.186  53.832  0.00  0.00    -0.480 OA
ENDBRANCH  27  28
ENDBRANCH  18  27
ENDBRANCH  16  17
ENDBRANCH   1  16
TORSDOF 7
ENDMDL
MODEL 6
REMARK VINA RESULT:    -7.247      2.790      4.344
REMARK INTER + INTRA:         -11.541
REMARK INTER:                 -10.247
REMARK INTRA:                  -1.293
REMARK UNBOUND:                -1.328
REMARK  Name = 
REMARK  9 active torsions:
REMARK  status: ('A' for Active; 'I' for Inactive)
REMARK    1  A    between atoms: C_1  and  N_2
REMARK    2  A    between atoms: C_3  and  S_4
REMARK    3  A    between atoms: S_4  and  S_5
REMARK    4  A    between atoms: S_5  and  C_6
REMARK    5  A    between atoms: C_7  and  C_8
REMARK    6  A    between atoms: C_8  and  C_9
REMARK    7  A    between atoms: N_18  and  C_19
REMARK    8  A    between atoms: C_20  and  C_21
REMARK    9  A    between atoms: C_21  and  C_22
REMARK                            x       y       z     vdW  Elec       q    Type
REMARK                         _______ _______ _______ _____ _____    ______ ____
ROOT
ATOM      1  S   UNL     1      20.755   2.323  49.402  0.00  0.00    -0.032 S 
ENDROOT
BRANCH   1   4
ATOM      2  C   UNL     1      17.476   2.427  49.379  0.00  0.00    +0.013 C 
ATOM      3  N   UNL     1      18.214   1.555  50.292  0.00  0.00    -0.337 N 
ATOM      4  C   UNL     1      19.562   1.390  50.371  0.00  0.00    +0.091 A 
ATOM      5  C   UNL     1      19.880   0.383  51.284  0.00  0.00    +0.003 A 
ATOM      6  C   UNL     1      18.667  -0.076  51.764  0.00  0.00    +0.005 A 
ATOM      7  C   UNL     1      18.371  -1.084  52.683  0.00  0.00    -0.052 A 
ATOM      8  C   UNL     1      17.017  -1.333  52.971  0.00  0.00    -0.061 A 
ATOM      9  C   UNL     1      16.002  -0.586  52.338  0.00  0.00    -0.060 A 
ATOM     10  C   UNL     1      16.328   0.419  51.409  0.00  0.00    -0.038 A 
ATOM     11  C   UNL     1      17.680   0.653  51.143  0.00  0.00    +0.050 A 
BRANCH   5  12
ATOM     12  C   UNL     1      21.243  -0.155  51.604  0.00  0.00    +0.073 C 
BRANCH  12  13
ATOM     13  C   UNL     1      21.515  -0.026  53.068  0.00  0.00    +0.309 C 
ATOM     14  O   UNL     1      21.346   1.082  53.645  0.00  0.00    -0.251 OA
ATOM     15  O   UNL     1      21.995  -1.119  53.783  0.00  0.00    -0.480 OA
ENDBRANCH  12  13
ENDBRANCH   5  12
ENDBRANCH   1   4
BRANCH   1  16
ATOM     16  S   UNL     1      21.257   3.634  51.013  0.00  0.00    -0.032 S 
BRANCH  16  17
ATOM     17  C   UNL     1      22.887   4.004  50.355  0.00  0.00    +0.091 A 
ATOM     18  C   UNL     1      24.021   3.216  50.544  0.00  0.00    +0.003 A 
ATOM     19  C   UNL     1      25.051   3.903  49.928  0.00  0.00    +0.005 A 
ATOM     20  C   UNL     1      26.410   3.604  49.825  0.00  0.00    -0.052 A 
ATOM     21  C   UNL     1      27.234   4.524  49.157  0.00  0.00    -0.061 A 
ATOM     22  C   UNL     1      26.693   5.709  48.615  0.00  0.00    -0.060 A 
ATOM     23  C   UNL     1      25.321   5.987  48.736  0.00  0.00    -0.038 A 
ATOM     24  C   UNL     1      24.516   5.052  49.399  0.00  0.00    +0.050 A 
ATOM     25  N   UNL     1      23.190   5.115  49.634  0.00  0.00    -0.337 N 
ATOM     26  C   UNL     1      22.289   6.219  49.304  0.00  0.00    +0.013 C 
BRANCH  18  27
ATOM     27  C   UNL     1      24.108   1.877  51.223  0.00  0.00    +0.073 C 
BRANCH  27  28
ATOM     28  C   UNL     1      24.524   2.031  52.651  0.00  0.00    +0.309 C 
ATOM     29  O   UNL     1      24.999   1.046  53.284  0.00  0.00    -0.251 OA
ATOM     30  O   UNL     1      24.358   3.257  53.289  0.00  0.00    -0.480 OA
ENDBRANCH  27  28
ENDBRANCH  18  27
ENDBRANCH  16  17
ENDBRANCH   1  16
TORSDOF 7
ENDMDL
MODEL 7
REMARK VINA RESULT:    -7.123      4.160      7.156
REMARK INTER + INTRA:         -11.366
REMARK INTER:                 -10.039
REMARK INTRA:                  -1.327
REMARK UNBOUND:                -1.328
REMARK  Name = 
REMARK  9 active torsions:
REMARK  status: ('A' for Active; 'I' for Inactive)
REMARK    1  A    between atoms: C_1  and  N_2
REMARK    2  A    between atoms: C_3  and  S_4
REMARK    3  A    between atoms: S_4  and  S_5
REMARK    4  A    between atoms: S_5  and  C_6
REMARK    5  A    between atoms: C_7  and  C_8
REMARK    6  A    between atoms: C_8  and  C_9
REMARK    7  A    between atoms: N_18  and  C_19
REMARK    8  A    between atoms: C_20  and  C_21
REMARK    9  A    between atoms: C_21  and  C_22
REMARK                            x       y       z     vdW  Elec       q    Type
REMARK                         _______ _______ _______ _____ _____    ______ ____
ROOT
ATOM      1  S   UNL     1      20.493   1.691  50.539  0.00  0.00    -0.032 S 
ENDROOT
BRANCH   1   4
ATOM      2  C   UNL     1      18.983   4.585  50.210  0.00  0.00    +0.013 C 
ATOM      3  N   UNL     1      18.250   3.366  50.550  0.00  0.00    -0.337 N 
ATOM      4  C   UNL     1      18.749   2.107  50.674  0.00  0.00    +0.091 A 
ATOM      5  C   UNL     1      17.720   1.190  50.891  0.00  0.00    +0.003 A 
ATOM      6  C   UNL     1      16.556   1.936  50.889  0.00  0.00    +0.005 A 
ATOM      7  C   UNL     1      15.223   1.550  51.041  0.00  0.00    -0.052 A 
ATOM      8  C   UNL     1      14.237   2.552  50.984  0.00  0.00    -0.061 A 
ATOM      9  C   UNL     1      14.599   3.899  50.772  0.00  0.00    -0.060 A 
ATOM     10  C   UNL     1      15.950   4.260  50.613  0.00  0.00    -0.038 A 
ATOM     11  C   UNL     1      16.911   3.248  50.680  0.00  0.00    +0.050 A 
BRANCH   5  12
ATOM     12  C   UNL     1      17.840  -0.301  51.003  0.00  0.00    +0.073 C 
BRANCH  12  13
ATOM     13  C   UNL     1      17.780  -0.714  52.438  0.00  0.00    +0.309 C 
ATOM     14  O   UNL     1      18.831  -0.730  53.134  0.00  0.00    -0.251 OA
ATOM     15  O   UNL     1      16.570  -1.120  52.993  0.00  0.00    -0.480 OA
ENDBRANCH  12  13
ENDBRANCH   5  12
ENDBRANCH   1   4
BRANCH   1  16
ATOM     16  S   UNL     1      20.915   2.172  52.578  0.00  0.00    -0.032 S 
BRANCH  16  17
ATOM     17  C   UNL     1      22.637   1.672  52.459  0.00  0.00    +0.091 A 
ATOM     18  C   UNL     1      23.128   0.415  52.807  0.00  0.00    +0.003 A 
ATOM     19  C   UNL     1      24.496   0.492  52.622  0.00  0.00    +0.005 A 
ATOM     20  C   UNL     1      25.498  -0.454  52.839  0.00  0.00    -0.052 A 
ATOM     21  C   UNL     1      26.826  -0.071  52.588  0.00  0.00    -0.061 A 
ATOM     22  C   UNL     1      27.122   1.232  52.135  0.00  0.00    -0.060 A 
ATOM     23  C   UNL     1      26.093   2.166  51.927  0.00  0.00    -0.038 A 
ATOM     24  C   UNL     1      24.776   1.761  52.175  0.00  0.00    +0.050 A 
ATOM     25  N   UNL     1      23.646   2.484  52.051  0.00  0.00    -0.337 N 
ATOM     26  C   UNL     1      23.542   3.898  51.687  0.00  0.00    +0.013 C 
BRANCH  18  27
ATOM     27  C   UNL     1      22.342  -0.792  53.241  0.00  0.00    +0.073 C 
BRANCH  27  28
ATOM     28  C   UNL     1      22.176  -0.812  54.727  0.00  0.00    +0.309 C 
ATOM     29  O   UNL     1      21.239  -0.161  55.270  0.00  0.00    -0.251 OA
ATOM     30  O   UNL     1      23.075  -1.529  55.512  0.00  0.00    -0.480 OA
ENDBRANCH  27  28
ENDBRANCH  18  27
ENDBRANCH  16  17
ENDBRANCH   1  16
TORSDOF 7
ENDMDL
MODEL 8
REMARK VINA RESULT:    -7.046      4.209      7.652
REMARK INTER + INTRA:         -11.258
REMARK INTER:                  -9.968
REMARK INTRA:                  -1.290
REMARK UNBOUND:                -1.328
REMARK  Name = 
REMARK  9 active torsions:
REMARK  status: ('A' for Active; 'I' for Inactive)
REMARK    1  A    between atoms: C_1  and  N_2
REMARK    2  A    between atoms: C_3  and  S_4
REMARK    3  A    between atoms: S_4  and  S_5
REMARK    4  A    between atoms: S_5  and  C_6
REMARK    5  A    between atoms: C_7  and  C_8
REMARK    6  A    between atoms: C_8  and  C_9
REMARK    7  A    between atoms: N_18  and  C_19
REMARK    8  A    between atoms: C_20  and  C_21
REMARK    9  A    between atoms: C_21  and  C_22
REMARK                            x       y       z     vdW  Elec       q    Type
REMARK                         _______ _______ _______ _____ _____    ______ ____
ROOT
ATOM      1  S   UNL     1      21.048   2.114  52.513  0.00  0.00    -0.032 S 
ENDROOT
BRANCH   1   4
ATOM      2  C   UNL     1      23.726   3.937  51.996  0.00  0.00    +0.013 C 
ATOM      3  N   UNL     1      23.808   2.497  52.241  0.00  0.00    -0.337 N 
ATOM      4  C   UNL     1      22.784   1.644  52.508  0.00  0.00    +0.091 A 
ATOM      5  C   UNL     1      23.271   0.369  52.801  0.00  0.00    +0.003 A 
ATOM      6  C   UNL     1      24.647   0.471  52.711  0.00  0.00    +0.005 A 
ATOM      7  C   UNL     1      25.649  -0.478  52.917  0.00  0.00    -0.052 A 
ATOM      8  C   UNL     1      26.986  -0.069  52.757  0.00  0.00    -0.061 A 
ATOM      9  C   UNL     1      27.288   1.264  52.407  0.00  0.00    -0.060 A 
ATOM     10  C   UNL     1      26.259   2.203  52.213  0.00  0.00    -0.038 A 
ATOM     11  C   UNL     1      24.939   1.772  52.371  0.00  0.00    +0.050 A 
BRANCH   5  12
ATOM     12  C   UNL     1      22.478  -0.833  53.221  0.00  0.00    +0.073 C 
BRANCH  12  13
ATOM     13  C   UNL     1      22.300  -0.837  54.704  0.00  0.00    +0.309 C 
ATOM     14  O   UNL     1      23.056  -1.541  55.428  0.00  0.00    -0.251 OA
ATOM     15  O   UNL     1      21.274  -0.096  55.282  0.00  0.00    -0.480 OA
ENDBRANCH  12  13
ENDBRANCH   5  12
ENDBRANCH   1   4
BRANCH   1  16
ATOM     16  S   UNL     1      20.705   1.423  50.521  0.00  0.00    -0.032 S 
BRANCH  16  17
ATOM     17  C   UNL     1      18.997   1.982  50.499  0.00  0.00    +0.091 A 
ATOM     18  C   UNL     1      17.885   1.155  50.642  0.00  0.00    +0.003 A 
ATOM     19  C   UNL     1      16.789   1.985  50.499  0.00  0.00    +0.005 A 
ATOM     20  C   UNL     1      15.423   1.701  50.520  0.00  0.00    -0.052 A 
ATOM     21  C   UNL     1      14.530   2.764  50.309  0.00  0.00    -0.061 A 
ATOM     22  C   UNL     1      15.012   4.071  50.081  0.00  0.00    -0.060 A 
ATOM     23  C   UNL     1      16.393   4.328  50.062  0.00  0.00    -0.038 A 
ATOM     24  C   UNL     1      17.266   3.256  50.283  0.00  0.00    +0.050 A 
ATOM     25  N   UNL     1      18.614   3.270  50.303  0.00  0.00    -0.337 N 
ATOM     26  C   UNL     1      19.485   4.414  50.029  0.00  0.00    +0.013 C 
BRANCH  18  27
ATOM     27  C   UNL     1      17.868  -0.319  50.942  0.00  0.00    +0.073 C 
BRANCH  27  28
ATOM     28  C   UNL     1      17.739  -0.561  52.412  0.00  0.00    +0.309 C 
ATOM     29  O   UNL     1      16.597  -0.622  52.949  0.00  0.00    -0.251 OA
ATOM     30  O   UNL     1      18.885  -0.690  53.193  0.00  0.00    -0.480 OA
ENDBRANCH  27  28
ENDBRANCH  18  27
ENDBRANCH  16  17
ENDBRANCH   1  16
TORSDOF 7
ENDMDL
MODEL 9
REMARK VINA RESULT:    -6.965      2.257      3.733
REMARK INTER + INTRA:         -11.143
REMARK INTER:                 -10.055
REMARK INTRA:                  -1.088
REMARK UNBOUND:                -1.328
REMARK  Name = 
REMARK  9 active torsions:
REMARK  status: ('A' for Active; 'I' for Inactive)
REMARK    1  A    between atoms: C_1  and  N_2
REMARK    2  A    between atoms: C_3  and  S_4
REMARK    3  A    between atoms: S_4  and  S_5
REMARK    4  A    between atoms: S_5  and  C_6
REMARK    5  A    between atoms: C_7  and  C_8
REMARK    6  A    between atoms: C_8  and  C_9
REMARK    7  A    between atoms: N_18  and  C_19
REMARK    8  A    between atoms: C_20  and  C_21
REMARK    9  A    between atoms: C_21  and  C_22
REMARK                            x       y       z     vdW  Elec       q    Type
REMARK                         _______ _______ _______ _____ _____    ______ ____
ROOT
ATOM      1  S   UNL     1      23.743   2.964  50.994  0.00  0.00    -0.032 S 
ENDROOT
BRANCH   1   4
ATOM      2  C   UNL     1      20.973   1.209  51.102  0.00  0.00    +0.013 C 
ATOM      3  N   UNL     1      22.065   0.988  52.051  0.00  0.00    -0.337 N 
ATOM      4  C   UNL     1      23.270   1.616  52.086  0.00  0.00    +0.091 A 
ATOM      5  C   UNL     1      24.090   1.048  53.063  0.00  0.00    +0.003 A 
ATOM      6  C   UNL     1      23.340   0.034  53.629  0.00  0.00    +0.005 A 
ATOM      7  C   UNL     1      23.652  -0.878  54.639  0.00  0.00    -0.052 A 
ATOM      8  C   UNL     1      22.669  -1.816  55.003  0.00  0.00    -0.061 A 
ATOM      9  C   UNL     1      21.417  -1.828  54.355  0.00  0.00    -0.060 A 
ATOM     10  C   UNL     1      21.132  -0.902  53.334  0.00  0.00    -0.038 A 
ATOM     11  C   UNL     1      22.120   0.024  52.994  0.00  0.00    +0.050 A 
BRANCH   5  12
ATOM     12  C   UNL     1      25.516   1.399  53.368  0.00  0.00    +0.073 C 
BRANCH  12  13
ATOM     13  C   UNL     1      26.438   0.569  52.535  0.00  0.00    +0.309 C 
ATOM     14  O   UNL     1      26.756   0.950  51.376  0.00  0.00    -0.251 OA
ATOM     15  O   UNL     1      26.911  -0.645  53.023  0.00  0.00    -0.480 OA
ENDBRANCH  12  13
ENDBRANCH   5  12
ENDBRANCH   1   4
BRANCH   1  16
ATOM     16  S   UNL     1      23.508   4.460  52.502  0.00  0.00    -0.032 S 
BRANCH  16  17
ATOM     17  C   UNL     1      22.787   5.653  51.368  0.00  0.00    +0.091 A 
ATOM     18  C   UNL     1      23.446   6.772  50.863  0.00  0.00    +0.003 A 
ATOM     19  C   UNL     1      22.508   7.434  50.094  0.00  0.00    +0.005 A 
ATOM     20  C   UNL     1      22.597   8.626  49.375  0.00  0.00    -0.052 A 
ATOM     21  C   UNL     1      21.447   9.076  48.706  0.00  0.00    -0.061 A 
ATOM     22  C   UNL     1      20.246   8.337  48.771  0.00  0.00    -0.060 A 
ATOM     23  C   UNL     1      20.183   7.142  49.505  0.00  0.00    -0.038 A 
ATOM     24  C   UNL     1      21.343   6.708  50.157  0.00  0.00    +0.050 A 
ATOM     25  N   UNL     1      21.508   5.605  50.915  0.00  0.00    -0.337 N 
ATOM     26  C   UNL     1      20.481   4.632  51.288  0.00  0.00    +0.013 C 
BRANCH  18  27
ATOM     27  C   UNL     1      24.887   7.159  51.061  0.00  0.00    +0.073 C 
BRANCH  27  28
ATOM     28  C   UNL     1      25.706   6.786  49.867  0.00  0.00    +0.309 C 
ATOM     29  O   UNL     1      26.424   7.653  49.293  0.00  0.00    -0.251 OA
ATOM     30  O   UNL     1      25.652   5.486  49.372  0.00  0.00    -0.480 OA
ENDBRANCH  27  28
ENDBRANCH  18  27
ENDBRANCH  16  17
ENDBRANCH   1  16
TORSDOF 7
ENDMDL
