MODEL 1
REMARK VINA RESULT:    -8.723      0.000      0.000
REMARK INTER + INTRA:         -14.456
REMARK INTER:                 -13.312
REMARK INTRA:                  -1.143
REMARK UNBOUND:                -1.143
REMARK  Name = 
REMARK  10 active torsions:
REMARK  status: ('A' for Active; 'I' for Inactive)
REMARK    1  A    between atoms: C_1  and  O_2
REMARK    2  A    between atoms: O_2  and  C_3
REMARK    3  A    between atoms: C_8  and  C_9
REMARK    4  A    between atoms: C_11  and  N_12
REMARK    5  A    between atoms: N_12  and  C_13
REMARK    6  A    between atoms: C_23  and  O_24
REMARK    7  A    between atoms: O_24  and  C_25
REMARK    8  A    between atoms: C_25  and  C_26
REMARK    9  A    between atoms: C_26  and  C_27
REMARK   10  A    between atoms: C_27  and  N_28
REMARK                            x       y       z     vdW  Elec       q    Type
REMARK                         _______ _______ _______ _____ _____    ______ ____
ROOT
ATOM      1  C   UNL     1      23.490   3.405  49.400  0.00  0.00    +0.164 A 
ATOM      2  C   UNL     1      22.444   2.472  49.517  0.00  0.00    +0.010 A 
ATOM      3  C   UNL     1      22.395   1.594  50.603  0.00  0.00    +0.077 A 
ATOM      4  N   UNL     1      21.387   0.688  50.692  0.00  0.00    -0.253 NA
ATOM      5  C   UNL     1      21.298  -0.191  51.722  0.00  0.00    +0.047 A 
ATOM      6  C   UNL     1      22.258  -0.185  52.739  0.00  0.00    +0.091 A 
ATOM      7  C   UNL     1      23.320   0.738  52.681  0.00  0.00    +0.060 A 
ATOM      8  C   UNL     1      23.391   1.645  51.602  0.00  0.00    +0.026 A 
ATOM      9  C   UNL     1      24.434   2.580  51.484  0.00  0.00    -0.005 A 
ATOM     10  C   UNL     1      24.492   3.455  50.382  0.00  0.00    +0.163 A 
ENDROOT
BRANCH   1  12
ATOM     11  C   UNL     1      22.891   5.539  48.237  0.00  0.00    +0.079 C 
ATOM     12  O   UNL     1      23.579   4.295  48.318  0.00  0.00    -0.491 OA
ENDBRANCH   1  12
BRANCH   6  13
ATOM     13  C   UNL     1      22.131  -1.112  53.836  0.00  0.00    +0.103 C 
ATOM     14  N   UNL     1      22.031  -1.856  54.717  0.00  0.00    -0.191 NA
ENDBRANCH   6  13
BRANCH   7  15
ATOM     15  N   UNL     1      24.310   0.766  53.724  0.00  0.00    -0.313 N 
ATOM     16  H   UNL     1      24.052   1.129  54.603  0.00  0.00    +0.000 HD
BRANCH  15  17
ATOM     17  C   UNL     1      25.657   0.293  53.549  0.00  0.00    +0.033 A 
ATOM     18  C   UNL     1      25.875  -0.949  52.935  0.00  0.00    -0.038 A 
ATOM     19  C   UNL     1      27.174  -1.436  52.761  0.00  0.00    -0.023 A 
ATOM     20  C   UNL     1      28.269  -0.689  53.205  0.00  0.00    +0.142 A 
ATOM     21  F   UNL     1      29.524  -1.172  53.032  0.00  0.00    -0.204 F 
ATOM     22  C   UNL     1      28.064   0.548  53.827  0.00  0.00    +0.078 A 
ATOM     23 CL   UNL     1      29.431   1.491  54.397  0.00  0.00    -0.081 Cl
ATOM     24  C   UNL     1      26.764   1.036  54.001  0.00  0.00    -0.019 A 
ENDBRANCH  15  17
ENDBRANCH   7  15
BRANCH  10  25
ATOM     25  O   UNL     1      25.525   4.391  50.219  0.00  0.00    -0.488 OA
BRANCH  25  26
ATOM     26  C   UNL     1      26.755   4.169  49.526  0.00  0.00    +0.091 C 
BRANCH  26  27
ATOM     27  C   UNL     1      27.220   5.420  48.764  0.00  0.00    -0.006 C 
BRANCH  27  28
ATOM     28  C   UNL     1      28.721   5.441  48.384  0.00  0.00    +0.002 C 
BRANCH  28  29
ATOM     29  N   UNL     1      29.518   6.582  48.893  0.00  0.00    -0.298 N 
ATOM     30  C   UNL     1      29.085   7.911  48.434  0.00  0.00    +0.022 C 
ATOM     31  C   UNL     1      29.874   8.984  49.193  0.00  0.00    +0.060 C 
ATOM     32  O   UNL     1      31.266   8.813  48.996  0.00  0.00    -0.377 OA
ATOM     33  C   UNL     1      31.676   7.558  49.510  0.00  0.00    +0.060 C 
ATOM     34  C   UNL     1      30.976   6.412  48.771  0.00  0.00    +0.022 C 
ATOM     35  H   UNL     1      29.306   6.556  49.890  0.00  0.00    +0.000 HD
ENDBRANCH  28  29
ENDBRANCH  27  28
ENDBRANCH  26  27
ENDBRANCH  25  26
ENDBRANCH  10  25
TORSDOF 9
ENDMDL
MODEL 2
REMARK VINA RESULT:    -8.401      3.319      5.482
REMARK INTER + INTRA:         -13.964
REMARK INTER:                 -12.466
REMARK INTRA:                  -1.499
REMARK UNBOUND:                -1.143
REMARK  Name = 
REMARK  10 active torsions:
REMARK  status: ('A' for Active; 'I' for Inactive)
REMARK    1  A    between atoms: C_1  and  O_2
REMARK    2  A    between atoms: O_2  and  C_3
REMARK    3  A    between atoms: C_8  and  C_9
REMARK    4  A    between atoms: C_11  and  N_12
REMARK    5  A    between atoms: N_12  and  C_13
REMARK    6  A    between atoms: C_23  and  O_24
REMARK    7  A    between atoms: O_24  and  C_25
REMARK    8  A    between atoms: C_25  and  C_26
REMARK    9  A    between atoms: C_26  and  C_27
REMARK   10  A    between atoms: C_27  and  N_28
REMARK                            x       y       z     vdW  Elec       q    Type
REMARK                         _______ _______ _______ _____ _____    ______ ____
ROOT
ATOM      1  C   UNL     1      26.245  -0.057  53.513  0.00  0.00    +0.164 A 
ATOM      2  C   UNL     1      25.331  -0.685  54.380  0.00  0.00    +0.010 A 
ATOM      3  C   UNL     1      23.960  -0.648  54.111  0.00  0.00    +0.077 A 
ATOM      4  N   UNL     1      23.090  -1.244  54.968  0.00  0.00    -0.253 NA
ATOM      5  C   UNL     1      21.749  -1.231  54.756  0.00  0.00    +0.047 A 
ATOM      6  C   UNL     1      21.219  -0.593  53.630  0.00  0.00    +0.091 A 
ATOM      7  C   UNL     1      22.088   0.039  52.721  0.00  0.00    +0.060 A 
ATOM      8  C   UNL     1      23.479   0.010  52.958  0.00  0.00    +0.026 A 
ATOM      9  C   UNL     1      24.396   0.633  52.093  0.00  0.00    -0.005 A 
ATOM     10  C   UNL     1      25.776   0.610  52.371  0.00  0.00    +0.163 A 
ENDROOT
BRANCH   1  12
ATOM     11  C   UNL     1      28.240   0.423  54.945  0.00  0.00    +0.079 C 
ATOM     12  O   UNL     1      27.627  -0.064  53.756  0.00  0.00    -0.491 OA
ENDBRANCH   1  12
BRANCH   6  13
ATOM     13  C   UNL     1      19.793  -0.612  53.413  0.00  0.00    +0.103 C 
ATOM     14  N   UNL     1      18.650  -0.628  53.237  0.00  0.00    -0.191 NA
ENDBRANCH   6  13
BRANCH   7  15
ATOM     15  N   UNL     1      21.562   0.689  51.551  0.00  0.00    -0.313 N 
ATOM     16  H   UNL     1      21.047   0.149  50.908  0.00  0.00    +0.000 HD
BRANCH  15  17
ATOM     17  C   UNL     1      21.750   2.088  51.272  0.00  0.00    +0.033 A 
ATOM     18  C   UNL     1      21.480   3.031  52.275  0.00  0.00    -0.038 A 
ATOM     19  C   UNL     1      21.646   4.397  52.026  0.00  0.00    -0.023 A 
ATOM     20  C   UNL     1      22.077   4.835  50.771  0.00  0.00    +0.142 A 
ATOM     21  F   UNL     1      22.233   6.162  50.541  0.00  0.00    -0.204 F 
ATOM     22  C   UNL     1      22.341   3.904  49.760  0.00  0.00    +0.078 A 
ATOM     23 CL   UNL     1      22.875   4.443  48.176  0.00  0.00    -0.081 Cl
ATOM     24  C   UNL     1      22.176   2.537  50.007  0.00  0.00    -0.019 A 
ENDBRANCH  15  17
ENDBRANCH   7  15
BRANCH  10  25
ATOM     25  O   UNL     1      26.720   1.234  51.541  0.00  0.00    -0.488 OA
BRANCH  25  26
ATOM     26  C   UNL     1      26.890   2.643  51.378  0.00  0.00    +0.091 C 
BRANCH  26  27
ATOM     27  C   UNL     1      26.107   3.181  50.170  0.00  0.00    -0.006 C 
BRANCH  27  28
ATOM     28  C   UNL     1      26.926   4.059  49.191  0.00  0.00    +0.002 C 
BRANCH  28  29
ATOM     29  N   UNL     1      26.915   5.519  49.443  0.00  0.00    -0.298 N 
ATOM     30  C   UNL     1      25.617   6.081  49.849  0.00  0.00    +0.022 C 
ATOM     31  C   UNL     1      25.813   7.546  50.258  0.00  0.00    +0.060 C 
ATOM     32  O   UNL     1      26.372   8.291  49.192  0.00  0.00    -0.377 OA
ATOM     33  C   UNL     1      27.652   7.781  48.864  0.00  0.00    +0.060 C 
ATOM     34  C   UNL     1      27.552   6.326  48.389  0.00  0.00    +0.022 C 
ATOM     35  H   UNL     1      27.513   5.594  50.266  0.00  0.00    +0.000 HD
ENDBRANCH  28  29
ENDBRANCH  27  28
ENDBRANCH  26  27
ENDBRANCH  25  26
ENDBRANCH  10  25
TORSDOF 9
ENDMDL
MODEL 3
REMARK VINA RESULT:    -8.380      2.175      2.781
REMARK INTER + INTRA:         -13.932
REMARK INTER:                 -12.361
REMARK INTRA:                  -1.571
REMARK UNBOUND:                -1.143
REMARK  Name = 
REMARK  10 active torsions:
REMARK  status: ('A' for Active; 'I' for Inactive)
REMARK    1  A    between atoms: C_1  and  O_2
REMARK    2  A    between atoms: O_2  and  C_3
REMARK    3  A    between atoms: C_8  and  C_9
REMARK    4  A    between atoms: C_11  and  N_12
REMARK    5  A    between atoms: N_12  and  C_13
REMARK    6  A    between atoms: C_23  and  O_24
REMARK    7  A    between atoms: O_24  and  C_25
REMARK    8  A    between atoms: C_25  and  C_26
REMARK    9  A    between atoms: C_26  and  C_27
REMARK   10  A    between atoms: C_27  and  N_28
REMARK                            x       y       z     vdW  Elec       q    Type
REMARK                         _______ _______ _______ _____ _____    ______ ____
ROOT
ATOM      1  C   UNL     1      23.036   2.908  48.986  0.00  0.00    +0.164 A 
ATOM      2  C   UNL     1      22.079   1.951  49.368  0.00  0.00    +0.010 A 
ATOM      3  C   UNL     1      22.191   1.283  50.590  0.00  0.00    +0.077 A 
ATOM      4  N   UNL     1      21.267   0.349  50.935  0.00  0.00    -0.253 NA
ATOM      5  C   UNL     1      21.335  -0.332  52.107  0.00  0.00    +0.047 A 
ATOM      6  C   UNL     1      22.377  -0.084  53.007  0.00  0.00    +0.091 A 
ATOM      7  C   UNL     1      23.356   0.874  52.684  0.00  0.00    +0.060 A 
ATOM      8  C   UNL     1      23.264   1.573  51.462  0.00  0.00    +0.026 A 
ATOM      9  C   UNL     1      24.218   2.532  51.078  0.00  0.00    -0.005 A 
ATOM     10  C   UNL     1      24.113   3.194  49.840  0.00  0.00    +0.163 A 
ENDROOT
BRANCH   1  12
ATOM     11  C   UNL     1      21.762   4.107  47.197  0.00  0.00    +0.079 C 
ATOM     12  O   UNL     1      22.962   3.590  47.762  0.00  0.00    -0.491 OA
ENDBRANCH   1  12
BRANCH   6  13
ATOM     13  C   UNL     1      22.416  -0.803  54.257  0.00  0.00    +0.103 C 
ATOM     14  N   UNL     1      22.445  -1.379  55.260  0.00  0.00    -0.191 NA
ENDBRANCH   6  13
BRANCH   7  15
ATOM     15  N   UNL     1      24.427   1.151  53.603  0.00  0.00    -0.313 N 
ATOM     16  H   UNL     1      24.253   1.767  54.351  0.00  0.00    +0.000 HD
BRANCH  15  17
ATOM     17  C   UNL     1      25.740   0.574  53.483  0.00  0.00    +0.033 A 
ATOM     18  C   UNL     1      25.879  -0.708  52.930  0.00  0.00    -0.038 A 
ATOM     19  C   UNL     1      27.142  -1.295  52.812  0.00  0.00    -0.023 A 
ATOM     20  C   UNL     1      28.280  -0.609  53.250  0.00  0.00    +0.142 A 
ATOM     21  F   UNL     1      29.500  -1.189  53.131  0.00  0.00    -0.204 F 
ATOM     22  C   UNL     1      28.152   0.667  53.811  0.00  0.00    +0.078 A 
ATOM     23 CL   UNL     1      29.571   1.534  54.373  0.00  0.00    -0.081 Cl
ATOM     24  C   UNL     1      26.888   1.255  53.930  0.00  0.00    -0.019 A 
ENDBRANCH  15  17
ENDBRANCH   7  15
BRANCH  10  25
ATOM     25  O   UNL     1      25.053   4.145  49.414  0.00  0.00    -0.488 OA
BRANCH  25  26
ATOM     26  C   UNL     1      26.438   4.170  49.766  0.00  0.00    +0.091 C 
BRANCH  26  27
ATOM     27  C   UNL     1      27.280   4.938  48.736  0.00  0.00    -0.006 C 
BRANCH  27  28
ATOM     28  C   UNL     1      26.809   6.384  48.443  0.00  0.00    +0.002 C 
BRANCH  28  29
ATOM     29  N   UNL     1      25.497   6.780  49.006  0.00  0.00    -0.298 N 
ATOM     30  C   UNL     1      24.535   7.334  48.039  0.00  0.00    +0.022 C 
ATOM     31  C   UNL     1      23.177   7.509  48.729  0.00  0.00    +0.060 C 
ATOM     32  O   UNL     1      23.297   8.354  49.859  0.00  0.00    -0.377 OA
ATOM     33  C   UNL     1      24.170   7.770  50.809  0.00  0.00    +0.060 C 
ATOM     34  C   UNL     1      25.577   7.603  50.225  0.00  0.00    +0.022 C 
ATOM     35  H   UNL     1      25.110   5.880  49.289  0.00  0.00    +0.000 HD
ENDBRANCH  28  29
ENDBRANCH  27  28
ENDBRANCH  26  27
ENDBRANCH  25  26
ENDBRANCH  10  25
TORSDOF 9
ENDMDL
MODEL 4
REMARK VINA RESULT:    -8.166      1.690      2.034
REMARK INTER + INTRA:         -13.606
REMARK INTER:                 -12.443
REMARK INTRA:                  -1.163
REMARK UNBOUND:                -1.143
REMARK  Name = 
REMARK  10 active torsions:
REMARK  status: ('A' for Active; 'I' for Inactive)
REMARK    1  A    between atoms: C_1  and  O_2
REMARK    2  A    between atoms: O_2  and  C_3
REMARK    3  A    between atoms: C_8  and  C_9
REMARK    4  A    between atoms: C_11  and  N_12
REMARK    5  A    between atoms: N_12  and  C_13
REMARK    6  A    between atoms: C_23  and  O_24
REMARK    7  A    between atoms: O_24  and  C_25
REMARK    8  A    between atoms: C_25  and  C_26
REMARK    9  A    between atoms: C_26  and  C_27
REMARK   10  A    between atoms: C_27  and  N_28
REMARK                            x       y       z     vdW  Elec       q    Type
REMARK                         _______ _______ _______ _____ _____    ______ ____
ROOT
ATOM      1  C   UNL     1      22.734   4.216  50.601  0.00  0.00    +0.164 A 
ATOM      2  C   UNL     1      21.713   3.818  51.484  0.00  0.00    +0.010 A 
ATOM      3  C   UNL     1      21.795   2.598  52.159  0.00  0.00    +0.077 A 
ATOM      4  N   UNL     1      20.792   2.222  52.995  0.00  0.00    -0.253 NA
ATOM      5  C   UNL     1      20.820   1.044  53.669  0.00  0.00    +0.047 A 
ATOM      6  C   UNL     1      21.903   0.172  53.519  0.00  0.00    +0.091 A 
ATOM      7  C   UNL     1      22.961   0.524  52.659  0.00  0.00    +0.060 A 
ATOM      8  C   UNL     1      22.913   1.756  51.971  0.00  0.00    +0.026 A 
ATOM      9  C   UNL     1      23.933   2.157  51.091  0.00  0.00    -0.005 A 
ATOM     10  C   UNL     1      23.843   3.380  50.398  0.00  0.00    +0.163 A 
ENDROOT
BRANCH   1  12
ATOM     11  C   UNL     1      22.829   6.715  50.492  0.00  0.00    +0.079 C 
ATOM     12  O   UNL     1      22.681   5.429  49.897  0.00  0.00    -0.491 OA
ENDBRANCH   1  12
BRANCH   6  13
ATOM     13  C   UNL     1      21.923  -1.064  54.263  0.00  0.00    +0.103 C 
ATOM     14  N   UNL     1      21.941  -2.056  54.858  0.00  0.00    -0.191 NA
ENDBRANCH   6  13
BRANCH   7  15
ATOM     15  N   UNL     1      24.088  -0.354  52.502  0.00  0.00    -0.313 N 
ATOM     16  H   UNL     1      23.991  -1.138  51.914  0.00  0.00    +0.000 HD
BRANCH  15  17
ATOM     17  C   UNL     1      25.351  -0.146  53.161  0.00  0.00    +0.033 A 
ATOM     18  C   UNL     1      25.483   0.911  54.075  0.00  0.00    -0.038 A 
ATOM     19  C   UNL     1      26.701   1.140  54.721  0.00  0.00    -0.023 A 
ATOM     20  C   UNL     1      27.802   0.320  54.457  0.00  0.00    +0.142 A 
ATOM     21  F   UNL     1      28.979   0.553  55.089  0.00  0.00    -0.204 F 
ATOM     22  C   UNL     1      27.684  -0.731  53.541  0.00  0.00    +0.078 A 
ATOM     23 CL   UNL     1      29.063  -1.762  53.193  0.00  0.00    -0.081 Cl
ATOM     24  C   UNL     1      26.466  -0.962  52.893  0.00  0.00    -0.019 A 
ENDBRANCH  15  17
ENDBRANCH   7  15
BRANCH  10  25
ATOM     25  O   UNL     1      24.832   3.808  49.498  0.00  0.00    -0.488 OA
BRANCH  25  26
ATOM     26  C   UNL     1      26.193   3.376  49.481  0.00  0.00    +0.091 C 
BRANCH  26  27
ATOM     27  C   UNL     1      27.150   4.502  49.063  0.00  0.00    -0.006 C 
BRANCH  27  28
ATOM     28  C   UNL     1      26.502   5.903  48.928  0.00  0.00    +0.002 C 
BRANCH  28  29
ATOM     29  N   UNL     1      27.374   7.067  49.212  0.00  0.00    -0.298 N 
ATOM     30  C   UNL     1      26.673   8.313  49.560  0.00  0.00    +0.022 C 
ATOM     31  C   UNL     1      27.701   9.356  50.011  0.00  0.00    +0.060 C 
ATOM     32  O   UNL     1      28.658   9.586  48.994  0.00  0.00    -0.377 OA
ATOM     33  C   UNL     1      29.373   8.393  48.723  0.00  0.00    +0.060 C 
ATOM     34  C   UNL     1      28.429   7.298  48.212  0.00  0.00    +0.022 C 
ATOM     35  H   UNL     1      27.845   6.772  50.067  0.00  0.00    +0.000 HD
ENDBRANCH  28  29
ENDBRANCH  27  28
ENDBRANCH  26  27
ENDBRANCH  25  26
ENDBRANCH  10  25
TORSDOF 9
ENDMDL
MODEL 5
REMARK VINA RESULT:    -8.003      1.818      2.079
REMARK INTER + INTRA:         -13.358
REMARK INTER:                 -12.283
REMARK INTRA:                  -1.074
REMARK UNBOUND:                -1.143
REMARK  Name = 
REMARK  10 active torsions:
REMARK  status: ('A' for Active; 'I' for Inactive)
REMARK    1  A    between atoms: C_1  and  O_2
REMARK    2  A    between atoms: O_2  and  C_3
REMARK    3  A    between atoms: C_8  and  C_9
REMARK    4  A    between atoms: C_11  and  N_12
REMARK    5  A    between atoms: N_12  and  C_13
REMARK    6  A    between atoms: C_23  and  O_24
REMARK    7  A    between atoms: O_24  and  C_25
REMARK    8  A    between atoms: C_25  and  C_26
REMARK    9  A    between atoms: C_26  and  C_27
REMARK   10  A    between atoms: C_27  and  N_28
REMARK                            x       y       z     vdW  Elec       q    Type
REMARK                         _______ _______ _______ _____ _____    ______ ____
ROOT
ATOM      1  C   UNL     1      23.539   5.827  49.924  0.00  0.00    +0.164 A 
ATOM      2  C   UNL     1      22.360   5.623  50.664  0.00  0.00    +0.010 A 
ATOM      3  C   UNL     1      22.106   4.386  51.264  0.00  0.00    +0.077 A 
ATOM      4  N   UNL     1      20.954   4.200  51.960  0.00  0.00    -0.253 NA
ATOM      5  C   UNL     1      20.656   3.018  52.556  0.00  0.00    +0.047 A 
ATOM      6  C   UNL     1      21.544   1.941  52.467  0.00  0.00    +0.091 A 
ATOM      7  C   UNL     1      22.747   2.093  51.752  0.00  0.00    +0.060 A 
ATOM      8  C   UNL     1      23.038   3.333  51.144  0.00  0.00    +0.026 A 
ATOM      9  C   UNL     1      24.216   3.542  50.406  0.00  0.00    -0.005 A 
ATOM     10  C   UNL     1      24.466   4.783  49.788  0.00  0.00    +0.163 A 
ENDROOT
BRANCH   1  12
ATOM     11  C   UNL     1      23.471   8.327  49.823  0.00  0.00    +0.079 C 
ATOM     12  O   UNL     1      23.823   7.051  49.298  0.00  0.00    -0.491 OA
ENDBRANCH   1  12
BRANCH   6  13
ATOM     13  C   UNL     1      21.218   0.700  53.128  0.00  0.00    +0.103 C 
ATOM     14  N   UNL     1      20.955  -0.293  53.658  0.00  0.00    -0.191 NA
ENDBRANCH   6  13
BRANCH   7  15
ATOM     15  N   UNL     1      23.677   1.001  51.661  0.00  0.00    -0.313 N 
ATOM     16  H   UNL     1      23.594   0.378  50.903  0.00  0.00    +0.000 HD
BRANCH  15  17
ATOM     17  C   UNL     1      24.724   0.772  52.622  0.00  0.00    +0.033 A 
ATOM     18  C   UNL     1      24.597  -0.285  53.536  0.00  0.00    -0.038 A 
ATOM     19  C   UNL     1      25.595  -0.523  54.486  0.00  0.00    -0.023 A 
ATOM     20  C   UNL     1      26.727   0.296  54.536  0.00  0.00    +0.142 A 
ATOM     21  F   UNL     1      27.688   0.057  55.462  0.00  0.00    -0.204 F 
ATOM     22  C   UNL     1      26.860   1.359  53.635  0.00  0.00    +0.078 A 
ATOM     23 CL   UNL     1      28.272   2.400  53.693  0.00  0.00    -0.081 Cl
ATOM     24  C   UNL     1      25.862   1.599  52.684  0.00  0.00    -0.019 A 
ENDBRANCH  15  17
ENDBRANCH   7  15
BRANCH  10  25
ATOM     25  O   UNL     1      25.622   5.025  49.030  0.00  0.00    -0.488 OA
BRANCH  25  26
ATOM     26  C   UNL     1      26.903   4.430  49.241  0.00  0.00    +0.091 C 
BRANCH  26  27
ATOM     27  C   UNL     1      28.008   5.145  48.449  0.00  0.00    -0.006 C 
BRANCH  27  28
ATOM     28  C   UNL     1      27.922   6.691  48.444  0.00  0.00    +0.002 C 
BRANCH  28  29
ATOM     29  N   UNL     1      29.095   7.422  48.981  0.00  0.00    -0.298 N 
ATOM     30  C   UNL     1      29.053   8.884  48.826  0.00  0.00    +0.022 C 
ATOM     31  C   UNL     1      30.226   9.502  49.595  0.00  0.00    +0.060 C 
ATOM     32  O   UNL     1      31.458   8.983  49.129  0.00  0.00    -0.377 OA
ATOM     33  C   UNL     1      31.509   7.585  49.352  0.00  0.00    +0.060 C 
ATOM     34  C   UNL     1      30.398   6.869  48.575  0.00  0.00    +0.022 C 
ATOM     35  H   UNL     1      29.007   7.252  49.982  0.00  0.00    +0.000 HD
ENDBRANCH  28  29
ENDBRANCH  27  28
ENDBRANCH  26  27
ENDBRANCH  25  26
ENDBRANCH  10  25
TORSDOF 9
ENDMDL
MODEL 6
REMARK VINA RESULT:    -7.994      1.950      2.734
REMARK INTER + INTRA:         -13.343
REMARK INTER:                 -12.027
REMARK INTRA:                  -1.316
REMARK UNBOUND:                -1.143
REMARK  Name = 
REMARK  10 active torsions:
REMARK  status: ('A' for Active; 'I' for Inactive)
REMARK    1  A    between atoms: C_1  and  O_2
REMARK    2  A    between atoms: O_2  and  C_3
REMARK    3  A    between atoms: C_8  and  C_9
REMARK    4  A    between atoms: C_11  and  N_12
REMARK    5  A    between atoms: N_12  and  C_13
REMARK    6  A    between atoms: C_23  and  O_24
REMARK    7  A    between atoms: O_24  and  C_25
REMARK    8  A    between atoms: C_25  and  C_26
REMARK    9  A    between atoms: C_26  and  C_27
REMARK   10  A    between atoms: C_27  and  N_28
REMARK                            x       y       z     vdW  Elec       q    Type
REMARK                         _______ _______ _______ _____ _____    ______ ____
ROOT
ATOM      1  C   UNL     1      25.241   6.455  49.754  0.00  0.00    +0.164 A 
ATOM      2  C   UNL     1      24.229   6.213  50.701  0.00  0.00    +0.010 A 
ATOM      3  C   UNL     1      24.059   4.938  51.246  0.00  0.00    +0.077 A 
ATOM      4  N   UNL     1      23.066   4.718  52.146  0.00  0.00    -0.253 NA
ATOM      5  C   UNL     1      22.854   3.497  52.700  0.00  0.00    +0.047 A 
ATOM      6  C   UNL     1      23.668   2.414  52.352  0.00  0.00    +0.091 A 
ATOM      7  C   UNL     1      24.706   2.602  51.419  0.00  0.00    +0.060 A 
ATOM      8  C   UNL     1      24.911   3.881  50.859  0.00  0.00    +0.026 A 
ATOM      9  C   UNL     1      25.923   4.127  49.914  0.00  0.00    -0.005 A 
ATOM     10  C   UNL     1      26.085   5.408  49.354  0.00  0.00    +0.163 A 
ENDROOT
BRANCH   1  12
ATOM     11  C   UNL     1      24.647   8.252  48.115  0.00  0.00    +0.079 C 
ATOM     12  O   UNL     1      25.434   7.720  49.176  0.00  0.00    -0.491 OA
ENDBRANCH   1  12
BRANCH   6  13
ATOM     13  C   UNL     1      23.440   1.131  52.970  0.00  0.00    +0.103 C 
ATOM     14  N   UNL     1      23.257   0.103  53.468  0.00  0.00    -0.191 NA
ENDBRANCH   6  13
BRANCH   7  15
ATOM     15  N   UNL     1      25.561   1.503  51.059  0.00  0.00    -0.313 N 
ATOM     16  H   UNL     1      25.451   1.098  50.169  0.00  0.00    +0.000 HD
BRANCH  15  17
ATOM     17  C   UNL     1      26.570   0.966  51.934  0.00  0.00    +0.033 A 
ATOM     18  C   UNL     1      26.666  -0.424  52.100  0.00  0.00    -0.038 A 
ATOM     19  C   UNL     1      27.631  -0.970  52.951  0.00  0.00    -0.023 A 
ATOM     20  C   UNL     1      28.505  -0.134  53.651  0.00  0.00    +0.142 A 
ATOM     21  F   UNL     1      29.436  -0.675  54.475  0.00  0.00    -0.204 F 
ATOM     22  C   UNL     1      28.412   1.255  53.501  0.00  0.00    +0.078 A 
ATOM     23 CL   UNL     1      29.499   2.316  54.381  0.00  0.00    -0.081 Cl
ATOM     24  C   UNL     1      27.448   1.804  52.649  0.00  0.00    -0.019 A 
ENDBRANCH  15  17
ENDBRANCH   7  15
BRANCH  10  25
ATOM     25  O   UNL     1      27.071   5.690  48.395  0.00  0.00    -0.488 OA
BRANCH  25  26
ATOM     26  C   UNL     1      28.429   5.247  48.436  0.00  0.00    +0.091 C 
BRANCH  26  27
ATOM     27  C   UNL     1      29.385   6.264  47.793  0.00  0.00    -0.006 C 
BRANCH  27  28
ATOM     28  C   UNL     1      30.327   6.999  48.778  0.00  0.00    +0.002 C 
BRANCH  28  29
ATOM     29  N   UNL     1      29.992   8.408  49.089  0.00  0.00    -0.298 N 
ATOM     30  C   UNL     1      28.661   8.854  48.648  0.00  0.00    +0.022 C 
ATOM     31  C   UNL     1      28.391  10.254  49.210  0.00  0.00    +0.060 C 
ATOM     32  O   UNL     1      29.391  11.163  48.788  0.00  0.00    -0.377 OA
ATOM     33  C   UNL     1      30.654  10.757  49.283  0.00  0.00    +0.060 C 
ATOM     34  C   UNL     1      31.038   9.380  48.729  0.00  0.00    +0.022 C 
ATOM     35  H   UNL     1      29.949   8.393  50.108  0.00  0.00    +0.000 HD
ENDBRANCH  28  29
ENDBRANCH  27  28
ENDBRANCH  26  27
ENDBRANCH  25  26
ENDBRANCH  10  25
TORSDOF 9
ENDMDL
MODEL 7
REMARK VINA RESULT:    -7.884      4.532      6.945
REMARK INTER + INTRA:         -13.175
REMARK INTER:                 -11.244
REMARK INTRA:                  -1.931
REMARK UNBOUND:                -1.143
REMARK  Name = 
REMARK  10 active torsions:
REMARK  status: ('A' for Active; 'I' for Inactive)
REMARK    1  A    between atoms: C_1  and  O_2
REMARK    2  A    between atoms: O_2  and  C_3
REMARK    3  A    between atoms: C_8  and  C_9
REMARK    4  A    between atoms: C_11  and  N_12
REMARK    5  A    between atoms: N_12  and  C_13
REMARK    6  A    between atoms: C_23  and  O_24
REMARK    7  A    between atoms: O_24  and  C_25
REMARK    8  A    between atoms: C_25  and  C_26
REMARK    9  A    between atoms: C_26  and  C_27
REMARK   10  A    between atoms: C_27  and  N_28
REMARK                            x       y       z     vdW  Elec       q    Type
REMARK                         _______ _______ _______ _____ _____    ______ ____
ROOT
ATOM      1  C   UNL     1      26.599   0.372  53.658  0.00  0.00    +0.164 A 
ATOM      2  C   UNL     1      25.826  -0.297  54.626  0.00  0.00    +0.010 A 
ATOM      3  C   UNL     1      24.470  -0.546  54.400  0.00  0.00    +0.077 A 
ATOM      4  N   UNL     1      23.734  -1.177  55.352  0.00  0.00    -0.253 NA
ATOM      5  C   UNL     1      22.412  -1.437  55.185  0.00  0.00    +0.047 A 
ATOM      6  C   UNL     1      21.762  -1.054  54.007  0.00  0.00    +0.091 A 
ATOM      7  C   UNL     1      22.490  -0.394  52.999  0.00  0.00    +0.060 A 
ATOM      8  C   UNL     1      23.864  -0.138  53.192  0.00  0.00    +0.026 A 
ATOM      9  C   UNL     1      24.640   0.527  52.226  0.00  0.00    -0.005 A 
ATOM     10  C   UNL     1      26.004   0.791  52.459  0.00  0.00    +0.163 A 
ENDROOT
BRANCH   1  12
ATOM     11  C   UNL     1      28.918  -0.294  54.328  0.00  0.00    +0.079 C 
ATOM     12  O   UNL     1      27.961   0.649  53.854  0.00  0.00    -0.491 OA
ENDBRANCH   1  12
BRANCH   6  13
ATOM     13  C   UNL     1      20.362  -1.360  53.842  0.00  0.00    +0.103 C 
ATOM     14  N   UNL     1      19.239  -1.605  53.711  0.00  0.00    -0.191 NA
ENDBRANCH   6  13
BRANCH   7  15
ATOM     15  N   UNL     1      21.841  -0.005  51.776  0.00  0.00    -0.313 N 
ATOM     16  H   UNL     1      22.058  -0.502  50.954  0.00  0.00    +0.000 HD
BRANCH  15  17
ATOM     17  C   UNL     1      20.891   1.073  51.694  0.00  0.00    +0.033 A 
ATOM     18  C   UNL     1      21.171   2.286  52.340  0.00  0.00    -0.038 A 
ATOM     19  C   UNL     1      20.261   3.346  52.283  0.00  0.00    -0.023 A 
ATOM     20  C   UNL     1      19.058   3.202  51.585  0.00  0.00    +0.142 A 
ATOM     21  F   UNL     1      18.183   4.236  51.538  0.00  0.00    -0.204 F 
ATOM     22  C   UNL     1      18.764   1.993  50.944  0.00  0.00    +0.078 A 
ATOM     23 CL   UNL     1      17.253   1.798  50.071  0.00  0.00    -0.081 Cl
ATOM     24  C   UNL     1      19.674   0.932  51.000  0.00  0.00    -0.019 A 
ENDBRANCH  15  17
ENDBRANCH   7  15
BRANCH  10  25
ATOM     25  O   UNL     1      26.808   1.468  51.528  0.00  0.00    -0.488 OA
BRANCH  25  26
ATOM     26  C   UNL     1      26.737   2.860  51.215  0.00  0.00    +0.091 C 
BRANCH  26  27
ATOM     27  C   UNL     1      26.183   3.104  49.803  0.00  0.00    -0.006 C 
BRANCH  27  28
ATOM     28  C   UNL     1      25.400   4.428  49.621  0.00  0.00    +0.002 C 
BRANCH  28  29
ATOM     29  N   UNL     1      24.024   4.316  49.082  0.00  0.00    -0.298 N 
ATOM     30  C   UNL     1      23.146   5.467  49.346  0.00  0.00    +0.022 C 
ATOM     31  C   UNL     1      21.838   5.287  48.567  0.00  0.00    +0.060 C 
ATOM     32  O   UNL     1      21.202   4.076  48.933  0.00  0.00    -0.377 OA
ATOM     33  C   UNL     1      22.032   2.976  48.605  0.00  0.00    +0.060 C 
ATOM     34  C   UNL     1      23.353   3.040  49.381  0.00  0.00    +0.022 C 
ATOM     35  H   UNL     1      24.191   4.327  48.076  0.00  0.00    +0.000 HD
ENDBRANCH  28  29
ENDBRANCH  27  28
ENDBRANCH  26  27
ENDBRANCH  25  26
ENDBRANCH  10  25
TORSDOF 9
ENDMDL
MODEL 8
REMARK VINA RESULT:    -7.556      4.152      7.542
REMARK INTER + INTRA:         -12.674
REMARK INTER:                 -11.586
REMARK INTRA:                  -1.088
REMARK UNBOUND:                -1.143
REMARK  Name = 
REMARK  10 active torsions:
REMARK  status: ('A' for Active; 'I' for Inactive)
REMARK    1  A    between atoms: C_1  and  O_2
REMARK    2  A    between atoms: O_2  and  C_3
REMARK    3  A    between atoms: C_8  and  C_9
REMARK    4  A    between atoms: C_11  and  N_12
REMARK    5  A    between atoms: N_12  and  C_13
REMARK    6  A    between atoms: C_23  and  O_24
REMARK    7  A    between atoms: O_24  and  C_25
REMARK    8  A    between atoms: C_25  and  C_26
REMARK    9  A    between atoms: C_26  and  C_27
REMARK   10  A    between atoms: C_27  and  N_28
REMARK                            x       y       z     vdW  Elec       q    Type
REMARK                         _______ _______ _______ _____ _____    ______ ____
ROOT
ATOM      1  C   UNL     1      21.249   1.840  52.123  0.00  0.00    +0.164 A 
ATOM      2  C   UNL     1      20.403   2.678  51.374  0.00  0.00    +0.010 A 
ATOM      3  C   UNL     1      20.814   3.965  51.019  0.00  0.00    +0.077 A 
ATOM      4  N   UNL     1      19.978   4.767  50.310  0.00  0.00    -0.253 NA
ATOM      5  C   UNL     1      20.326   6.027  49.945  0.00  0.00    +0.047 A 
ATOM      6  C   UNL     1      21.579   6.542  50.296  0.00  0.00    +0.091 A 
ATOM      7  C   UNL     1      22.473   5.742  51.034  0.00  0.00    +0.060 A 
ATOM      8  C   UNL     1      22.091   4.433  51.398  0.00  0.00    +0.026 A 
ATOM      9  C   UNL     1      22.935   3.592  52.145  0.00  0.00    -0.005 A 
ATOM     10  C   UNL     1      22.515   2.300  52.516  0.00  0.00    +0.163 A 
ENDROOT
BRANCH   1  12
ATOM     11  C   UNL     1      19.549   0.020  52.375  0.00  0.00    +0.079 C 
ATOM     12  O   UNL     1      20.866   0.546  52.508  0.00  0.00    -0.491 OA
ENDBRANCH   1  12
BRANCH   6  13
ATOM     13  C   UNL     1      21.937   7.875  49.879  0.00  0.00    +0.103 C 
ATOM     14  N   UNL     1      22.226   8.944  49.545  0.00  0.00    -0.191 NA
ENDBRANCH   6  13
BRANCH   7  15
ATOM     15  N   UNL     1      23.769   6.249  51.392  0.00  0.00    -0.313 N 
ATOM     16  H   UNL     1      23.897   6.605  52.302  0.00  0.00    +0.000 HD
BRANCH  15  17
ATOM     17  C   UNL     1      24.890   6.264  50.489  0.00  0.00    +0.033 A 
ATOM     18  C   UNL     1      25.301   5.066  49.885  0.00  0.00    -0.038 A 
ATOM     19  C   UNL     1      26.392   5.052  49.012  0.00  0.00    -0.023 A 
ATOM     20  C   UNL     1      27.088   6.233  48.737  0.00  0.00    +0.142 A 
ATOM     21  F   UNL     1      28.146   6.207  47.889  0.00  0.00    -0.204 F 
ATOM     22  C   UNL     1      26.692   7.432  49.341  0.00  0.00    +0.078 A 
ATOM     23 CL   UNL     1      27.564   8.920  49.011  0.00  0.00    -0.081 Cl
ATOM     24  C   UNL     1      25.600   7.448  50.215  0.00  0.00    -0.019 A 
ENDBRANCH  15  17
ENDBRANCH   7  15
BRANCH  10  25
ATOM     25  O   UNL     1      23.321   1.437  53.275  0.00  0.00    -0.488 OA
BRANCH  25  26
ATOM     26  C   UNL     1      24.389   0.632  52.774  0.00  0.00    +0.091 C 
BRANCH  26  27
ATOM     27  C   UNL     1      24.985  -0.275  53.862  0.00  0.00    -0.006 C 
BRANCH  27  28
ATOM     28  C   UNL     1      26.254   0.274  54.558  0.00  0.00    +0.002 C 
BRANCH  28  29
ATOM     29  N   UNL     1      27.529  -0.417  54.254  0.00  0.00    -0.298 N 
ATOM     30  C   UNL     1      28.714   0.452  54.165  0.00  0.00    +0.022 C 
ATOM     31  C   UNL     1      29.967  -0.422  54.042  0.00  0.00    +0.060 C 
ATOM     32  O   UNL     1      29.877  -1.267  52.910  0.00  0.00    -0.377 OA
ATOM     33  C   UNL     1      28.774  -2.145  53.047  0.00  0.00    +0.060 C 
ATOM     34  C   UNL     1      27.460  -1.359  53.125  0.00  0.00    +0.022 C 
ATOM     35  H   UNL     1      27.668  -0.980  55.093  0.00  0.00    +0.000 HD
ENDBRANCH  28  29
ENDBRANCH  27  28
ENDBRANCH  26  27
ENDBRANCH  25  26
ENDBRANCH  10  25
TORSDOF 9
ENDMDL
MODEL 9
REMARK VINA RESULT:    -7.465      5.055      9.443
REMARK INTER + INTRA:         -12.536
REMARK INTER:                 -10.653
REMARK INTRA:                  -1.883
REMARK UNBOUND:                -1.143
REMARK  Name = 
REMARK  10 active torsions:
REMARK  status: ('A' for Active; 'I' for Inactive)
REMARK    1  A    between atoms: C_1  and  O_2
REMARK    2  A    between atoms: O_2  and  C_3
REMARK    3  A    between atoms: C_8  and  C_9
REMARK    4  A    between atoms: C_11  and  N_12
REMARK    5  A    between atoms: N_12  and  C_13
REMARK    6  A    between atoms: C_23  and  O_24
REMARK    7  A    between atoms: O_24  and  C_25
REMARK    8  A    between atoms: C_25  and  C_26
REMARK    9  A    between atoms: C_26  and  C_27
REMARK   10  A    between atoms: C_27  and  N_28
REMARK                            x       y       z     vdW  Elec       q    Type
REMARK                         _______ _______ _______ _____ _____    ______ ____
ROOT
ATOM      1  C   UNL     1      25.801  -0.283  52.768  0.00  0.00    +0.164 A 
ATOM      2  C   UNL     1      26.574   0.655  52.059  0.00  0.00    +0.010 A 
ATOM      3  C   UNL     1      25.980   1.801  51.522  0.00  0.00    +0.077 A 
ATOM      4  N   UNL     1      26.737   2.688  50.826  0.00  0.00    -0.253 NA
ATOM      5  C   UNL     1      26.209   3.812  50.279  0.00  0.00    +0.047 A 
ATOM      6  C   UNL     1      24.846   4.091  50.422  0.00  0.00    +0.091 A 
ATOM      7  C   UNL     1      24.027   3.194  51.134  0.00  0.00    +0.060 A 
ATOM      8  C   UNL     1      24.599   2.034  51.698  0.00  0.00    +0.026 A 
ATOM      9  C   UNL     1      23.831   1.095  52.409  0.00  0.00    -0.005 A 
ATOM     10  C   UNL     1      24.425  -0.067  52.937  0.00  0.00    +0.163 A 
ENDROOT
BRANCH   1  12
ATOM     11  C   UNL     1      27.209  -2.346  52.600  0.00  0.00    +0.079 C 
ATOM     12  O   UNL     1      26.360  -1.450  53.311  0.00  0.00    -0.491 OA
ENDBRANCH   1  12
BRANCH   6  13
ATOM     13  C   UNL     1      24.309   5.303  49.852  0.00  0.00    +0.103 C 
ATOM     14  N   UNL     1      23.881   6.275  49.394  0.00  0.00    -0.191 NA
ENDBRANCH   6  13
BRANCH   7  15
ATOM     15  N   UNL     1      22.626   3.472  51.302  0.00  0.00    -0.313 N 
ATOM     16  H   UNL     1      22.316   3.797  52.178  0.00  0.00    +0.000 HD
BRANCH  15  17
ATOM     17  C   UNL     1      21.655   3.298  50.255  0.00  0.00    +0.033 A 
ATOM     18  C   UNL     1      21.824   2.260  49.326  0.00  0.00    -0.038 A 
ATOM     19  C   UNL     1      20.900   2.076  48.293  0.00  0.00    -0.023 A 
ATOM     20  C   UNL     1      19.800   2.931  48.174  0.00  0.00    +0.142 A 
ATOM     21  F   UNL     1      18.911   2.743  47.168  0.00  0.00    -0.204 F 
ATOM     22  C   UNL     1      19.626   3.975  49.090  0.00  0.00    +0.078 A 
ATOM     23 CL   UNL     1      18.252   5.060  48.946  0.00  0.00    -0.081 Cl
ATOM     24  C   UNL     1      20.550   4.160  50.124  0.00  0.00    -0.019 A 
ENDBRANCH  15  17
ENDBRANCH   7  15
BRANCH  10  25
ATOM     25  O   UNL     1      23.690  -1.036  53.638  0.00  0.00    -0.488 OA
BRANCH  25  26
ATOM     26  C   UNL     1      23.121  -0.876  54.938  0.00  0.00    +0.091 C 
BRANCH  26  27
ATOM     27  C   UNL     1      21.624  -0.534  54.873  0.00  0.00    -0.006 C 
BRANCH  27  28
ATOM     28  C   UNL     1      20.756  -1.523  54.056  0.00  0.00    +0.002 C 
BRANCH  28  29
ATOM     29  N   UNL     1      19.822  -0.928  53.071  0.00  0.00    -0.298 N 
ATOM     30  C   UNL     1      20.069   0.484  52.739  0.00  0.00    +0.022 C 
ATOM     31  C   UNL     1      19.156   0.892  51.577  0.00  0.00    +0.060 C 
ATOM     32  O   UNL     1      17.796   0.685  51.915  0.00  0.00    -0.377 OA
ATOM     33  C   UNL     1      17.562  -0.690  52.160  0.00  0.00    +0.060 C 
ATOM     34  C   UNL     1      18.398  -1.181  53.349  0.00  0.00    +0.022 C 
ATOM     35  H   UNL     1      20.050  -1.450  52.225  0.00  0.00    +0.000 HD
ENDBRANCH  28  29
ENDBRANCH  27  28
ENDBRANCH  26  27
ENDBRANCH  25  26
ENDBRANCH  10  25
TORSDOF 9
ENDMDL
