MODEL 1
REMARK VINA RESULT:    -7.322      0.000      0.000
REMARK INTER + INTRA:          -9.816
REMARK INTER:                  -9.462
REMARK INTRA:                  -0.355
REMARK UNBOUND:                -0.355
REMARK  Name = 
REMARK  9 active torsions:
REMARK  status: ('A' for Active; 'I' for Inactive)
REMARK    1  A    between atoms: C_1  and  O_2
REMARK    2  A    between atoms: O_2  and  C_3
REMARK    3  A    between atoms: C_6  and  N_7
REMARK    4  A    between atoms: C_14  and  O_15
REMARK    5  A    between atoms: O_15  and  C_16
REMARK    6  A    between atoms: C_17  and  O_18
REMARK    7  A    between atoms: O_18  and  C_19
REMARK    8  A    between atoms: C_23  and  O_24
REMARK    9  A    between atoms: O_24  and  C_25
REMARK                            x       y       z     vdW  Elec       q    Type
REMARK                         _______ _______ _______ _____ _____    ______ ____
ROOT
ATOM      1  N   UNL     1      25.817   3.072  50.304  0.00  0.00    -0.299 N 
ATOM      2  C   UNL     1      24.461   2.606  50.422  0.00  0.00    +0.134 A 
ATOM      3  N   UNL     1      23.529   3.042  49.531  0.00  0.00    -0.220 NA
ATOM      4  C   UNL     1      22.248   2.596  49.562  0.00  0.00    +0.119 A 
ATOM      5  N   UNL     1      21.868   1.684  50.491  0.00  0.00    -0.235 NA
ATOM      6  C   UNL     1      22.749   1.208  51.407  0.00  0.00    +0.080 A 
ATOM      7  C   UNL     1      22.325   0.273  52.354  0.00  0.00    +0.010 A 
ATOM      8  C   UNL     1      23.219  -0.218  53.323  0.00  0.00    +0.164 A 
ATOM      9  C   UNL     1      24.546   0.241  53.341  0.00  0.00    +0.162 A 
ATOM     10  C   UNL     1      24.974   1.184  52.384  0.00  0.00    -0.004 A 
ATOM     11  C   UNL     1      24.086   1.662  51.403  0.00  0.00    +0.044 A 
ATOM     12  H   UNL     1      26.544   2.461  50.564  0.00  0.00    +0.000 HD
ENDROOT
BRANCH   1  16
ATOM     13  C   UNL     1      26.775   6.966  48.875  0.00  0.00    +0.162 A 
ATOM     14  C   UNL     1      27.502   5.849  48.426  0.00  0.00    -0.015 A 
ATOM     15  C   UNL     1      27.194   4.570  48.893  0.00  0.00    -0.037 A 
ATOM     16  C   UNL     1      26.163   4.383  49.826  0.00  0.00    +0.036 A 
ATOM     17  C   UNL     1      25.424   5.493  50.260  0.00  0.00    +0.005 A 
ATOM     18  C   UNL     1      25.729   6.788  49.794  0.00  0.00    +0.163 A 
BRANCH  13  20
ATOM     19  C   UNL     1      28.020   9.132  49.024  0.00  0.00    +0.079 C 
ATOM     20  O   UNL     1      27.056   8.267  48.430  0.00  0.00    -0.491 OA
ENDBRANCH  13  20
BRANCH  18  21
ATOM     21  O   UNL     1      25.015   7.920  50.219  0.00  0.00    -0.491 OA
ATOM     22  C   UNL     1      23.661   7.903  50.657  0.00  0.00    +0.079 C 
ENDBRANCH  18  21
ENDBRANCH   1  16
BRANCH   8  23
ATOM     23  O   UNL     1      22.828  -1.158  54.288  0.00  0.00    -0.491 OA
ATOM     24  C   UNL     1      21.528  -1.735  54.375  0.00  0.00    +0.079 C 
ENDBRANCH   8  23
BRANCH   9  25
ATOM     25  O   UNL     1      25.408  -0.262  54.329  0.00  0.00    -0.491 OA
ATOM     26  C   UNL     1      26.603   0.378  54.763  0.00  0.00    +0.079 C 
ENDBRANCH   9  25
TORSDOF 5
ENDMDL
MODEL 2
REMARK VINA RESULT:    -7.159      1.962      2.997
REMARK INTER + INTRA:          -9.606
REMARK INTER:                  -9.548
REMARK INTRA:                  -0.058
REMARK UNBOUND:                -0.355
REMARK  Name = 
REMARK  9 active torsions:
REMARK  status: ('A' for Active; 'I' for Inactive)
REMARK    1  A    between atoms: C_1  and  O_2
REMARK    2  A    between atoms: O_2  and  C_3
REMARK    3  A    between atoms: C_6  and  N_7
REMARK    4  A    between atoms: C_14  and  O_15
REMARK    5  A    between atoms: O_15  and  C_16
REMARK    6  A    between atoms: C_17  and  O_18
REMARK    7  A    between atoms: O_18  and  C_19
REMARK    8  A    between atoms: C_23  and  O_24
REMARK    9  A    between atoms: O_24  and  C_25
REMARK                            x       y       z     vdW  Elec       q    Type
REMARK                         _______ _______ _______ _____ _____    ______ ____
ROOT
ATOM      1  N   UNL     1      27.209   3.813  49.728  0.00  0.00    -0.299 N 
ATOM      2  C   UNL     1      26.011   3.195  50.228  0.00  0.00    +0.134 A 
ATOM      3  N   UNL     1      24.849   3.340  49.534  0.00  0.00    -0.220 NA
ATOM      4  C   UNL     1      23.700   2.737  49.931  0.00  0.00    +0.119 A 
ATOM      5  N   UNL     1      23.690   1.956  51.039  0.00  0.00    -0.235 NA
ATOM      6  C   UNL     1      24.815   1.768  51.774  0.00  0.00    +0.080 A 
ATOM      7  C   UNL     1      24.771   0.962  52.914  0.00  0.00    +0.010 A 
ATOM      8  C   UNL     1      25.922   0.771  53.700  0.00  0.00    +0.164 A 
ATOM      9  C   UNL     1      27.123   1.402  53.338  0.00  0.00    +0.162 A 
ATOM     10  C   UNL     1      27.169   2.215  52.187  0.00  0.00    -0.004 A 
ATOM     11  C   UNL     1      26.022   2.392  51.390  0.00  0.00    +0.044 A 
ATOM     12  H   UNL     1      28.069   3.361  49.888  0.00  0.00    +0.000 HD
ENDROOT
BRANCH   1  16
ATOM     13  C   UNL     1      27.286   7.515  47.627  0.00  0.00    +0.162 A 
ATOM     14  C   UNL     1      26.108   7.090  48.268  0.00  0.00    -0.015 A 
ATOM     15  C   UNL     1      26.076   5.876  48.956  0.00  0.00    -0.037 A 
ATOM     16  C   UNL     1      27.215   5.057  49.007  0.00  0.00    +0.036 A 
ATOM     17  C   UNL     1      28.396   5.489  48.385  0.00  0.00    +0.005 A 
ATOM     18  C   UNL     1      28.436   6.713  47.688  0.00  0.00    +0.163 A 
BRANCH  13  20
ATOM     19  C   UNL     1      27.506  10.006  47.533  0.00  0.00    +0.079 C 
ATOM     20  O   UNL     1      27.356   8.728  46.923  0.00  0.00    -0.491 OA
ENDBRANCH  13  20
BRANCH  18  21
ATOM     21  O   UNL     1      29.599   7.166  47.046  0.00  0.00    -0.491 OA
ATOM     22  C   UNL     1      30.727   7.723  47.714  0.00  0.00    +0.079 C 
ENDBRANCH  18  21
ENDBRANCH   1  16
BRANCH   8  23
ATOM     23  O   UNL     1      25.914  -0.034  54.849  0.00  0.00    -0.491 OA
ATOM     24  C   UNL     1      24.906  -0.992  55.158  0.00  0.00    +0.079 C 
ENDBRANCH   8  23
BRANCH   9  25
ATOM     25  O   UNL     1      28.250   1.198  54.151  0.00  0.00    -0.491 OA
ATOM     26  C   UNL     1      29.298   0.278  53.867  0.00  0.00    +0.079 C 
ENDBRANCH   9  25
TORSDOF 5
ENDMDL
MODEL 3
REMARK VINA RESULT:    -7.128      0.923      2.095
REMARK INTER + INTRA:          -9.566
REMARK INTER:                  -9.309
REMARK INTRA:                  -0.257
REMARK UNBOUND:                -0.355
REMARK  Name = 
REMARK  9 active torsions:
REMARK  status: ('A' for Active; 'I' for Inactive)
REMARK    1  A    between atoms: C_1  and  O_2
REMARK    2  A    between atoms: O_2  and  C_3
REMARK    3  A    between atoms: C_6  and  N_7
REMARK    4  A    between atoms: C_14  and  O_15
REMARK    5  A    between atoms: O_15  and  C_16
REMARK    6  A    between atoms: C_17  and  O_18
REMARK    7  A    between atoms: O_18  and  C_19
REMARK    8  A    between atoms: C_23  and  O_24
REMARK    9  A    between atoms: O_24  and  C_25
REMARK                            x       y       z     vdW  Elec       q    Type
REMARK                         _______ _______ _______ _____ _____    ______ ____
ROOT
ATOM      1  N   UNL     1      25.902   3.175  50.075  0.00  0.00    -0.299 N 
ATOM      2  C   UNL     1      24.533   2.814  50.328  0.00  0.00    +0.134 A 
ATOM      3  N   UNL     1      23.549   3.363  49.564  0.00  0.00    -0.220 NA
ATOM      4  C   UNL     1      22.247   3.020  49.724  0.00  0.00    +0.119 A 
ATOM      5  N   UNL     1      21.895   2.100  50.655  0.00  0.00    -0.235 NA
ATOM      6  C   UNL     1      22.828   1.513  51.447  0.00  0.00    +0.080 A 
ATOM      7  C   UNL     1      22.433   0.572  52.401  0.00  0.00    +0.010 A 
ATOM      8  C   UNL     1      23.383  -0.033  53.244  0.00  0.00    +0.164 A 
ATOM      9  C   UNL     1      24.737   0.317  53.129  0.00  0.00    +0.162 A 
ATOM     10  C   UNL     1      25.137   1.266  52.166  0.00  0.00    -0.004 A 
ATOM     11  C   UNL     1      24.190   1.858  51.310  0.00  0.00    +0.044 A 
ATOM     12  H   UNL     1      26.600   2.498  50.229  0.00  0.00    +0.000 HD
ENDROOT
BRANCH   1  16
ATOM     13  C   UNL     1      27.156   7.013  48.722  0.00  0.00    +0.162 A 
ATOM     14  C   UNL     1      25.988   6.882  49.496  0.00  0.00    -0.015 A 
ATOM     15  C   UNL     1      25.571   5.626  49.940  0.00  0.00    -0.037 A 
ATOM     16  C   UNL     1      26.304   4.476  49.610  0.00  0.00    +0.036 A 
ATOM     17  C   UNL     1      27.479   4.606  48.856  0.00  0.00    +0.005 A 
ATOM     18  C   UNL     1      27.907   5.871  48.403  0.00  0.00    +0.163 A 
BRANCH  13  20
ATOM     19  C   UNL     1      28.318   9.206  49.047  0.00  0.00    +0.079 C 
ATOM     20  O   UNL     1      27.606   8.258  48.256  0.00  0.00    -0.491 OA
ENDBRANCH  13  20
BRANCH  18  21
ATOM     21  O   UNL     1      29.072   6.032  47.637  0.00  0.00    -0.491 OA
ATOM     22  C   UNL     1      30.378   5.658  48.064  0.00  0.00    +0.079 C 
ENDBRANCH  18  21
ENDBRANCH   1  16
BRANCH   8  23
ATOM     23  O   UNL     1      23.022  -0.983  54.212  0.00  0.00    -0.491 OA
ATOM     24  C   UNL     1      21.682  -1.361  54.513  0.00  0.00    +0.079 C 
ENDBRANCH   8  23
BRANCH   9  25
ATOM     25  O   UNL     1      25.657  -0.298  53.994  0.00  0.00    -0.491 OA
ATOM     26  C   UNL     1      26.739   0.371  54.634  0.00  0.00    +0.079 C 
ENDBRANCH   9  25
TORSDOF 5
ENDMDL
MODEL 4
REMARK VINA RESULT:    -7.058      3.778      7.572
REMARK INTER + INTRA:          -9.476
REMARK INTER:                  -9.012
REMARK INTRA:                  -0.463
REMARK UNBOUND:                -0.355
REMARK  Name = 
REMARK  9 active torsions:
REMARK  status: ('A' for Active; 'I' for Inactive)
REMARK    1  A    between atoms: C_1  and  O_2
REMARK    2  A    between atoms: O_2  and  C_3
REMARK    3  A    between atoms: C_6  and  N_7
REMARK    4  A    between atoms: C_14  and  O_15
REMARK    5  A    between atoms: O_15  and  C_16
REMARK    6  A    between atoms: C_17  and  O_18
REMARK    7  A    between atoms: O_18  and  C_19
REMARK    8  A    between atoms: C_23  and  O_24
REMARK    9  A    between atoms: O_24  and  C_25
REMARK                            x       y       z     vdW  Elec       q    Type
REMARK                         _______ _______ _______ _____ _____    ______ ____
ROOT
ATOM      1  N   UNL     1      21.722   0.531  51.643  0.00  0.00    -0.299 N 
ATOM      2  C   UNL     1      22.383   0.010  52.809  0.00  0.00    +0.134 A 
ATOM      3  N   UNL     1      21.655  -0.661  53.742  0.00  0.00    -0.220 NA
ATOM      4  C   UNL     1      22.234  -1.218  54.835  0.00  0.00    +0.119 A 
ATOM      5  N   UNL     1      23.574  -1.125  55.016  0.00  0.00    -0.235 NA
ATOM      6  C   UNL     1      24.358  -0.471  54.122  0.00  0.00    +0.080 A 
ATOM      7  C   UNL     1      25.736  -0.388  54.340  0.00  0.00    +0.010 A 
ATOM      8  C   UNL     1      26.562   0.302  53.434  0.00  0.00    +0.164 A 
ATOM      9  C   UNL     1      25.996   0.916  52.306  0.00  0.00    +0.162 A 
ATOM     10  C   UNL     1      24.606   0.832  52.085  0.00  0.00    -0.004 A 
ATOM     11  C   UNL     1      23.781   0.127  52.981  0.00  0.00    +0.044 A 
ATOM     12  H   UNL     1      22.224   0.561  50.796  0.00  0.00    +0.000 HD
ENDROOT
BRANCH   1  16
ATOM     13  C   UNL     1      17.695   1.913  51.609  0.00  0.00    +0.162 A 
ATOM     14  C   UNL     1      18.756   2.827  51.750  0.00  0.00    -0.015 A 
ATOM     15  C   UNL     1      20.078   2.380  51.765  0.00  0.00    -0.037 A 
ATOM     16  C   UNL     1      20.367   1.011  51.651  0.00  0.00    +0.036 A 
ATOM     17  C   UNL     1      19.312   0.101  51.490  0.00  0.00    +0.005 A 
ATOM     18  C   UNL     1      17.974   0.544  51.475  0.00  0.00    +0.163 A 
BRANCH  13  20
ATOM     19  C   UNL     1      15.886   3.571  52.099  0.00  0.00    +0.079 C 
ATOM     20  O   UNL     1      16.353   2.325  51.592  0.00  0.00    -0.491 OA
ENDBRANCH  13  20
BRANCH  18  21
ATOM     21  O   UNL     1      16.897  -0.344  51.327  0.00  0.00    -0.491 OA
ATOM     22  C   UNL     1      16.336  -1.118  52.383  0.00  0.00    +0.079 C 
ENDBRANCH  18  21
ENDBRANCH   1  16
BRANCH   8  23
ATOM     23  O   UNL     1      27.949   0.404  53.621  0.00  0.00    -0.491 OA
ATOM     24  C   UNL     1      28.634   0.028  54.812  0.00  0.00    +0.079 C 
ENDBRANCH   8  23
BRANCH   9  25
ATOM     25  O   UNL     1      26.849   1.606  51.429  0.00  0.00    -0.491 OA
ATOM     26  C   UNL     1      26.501   2.798  50.732  0.00  0.00    +0.079 C 
ENDBRANCH   9  25
TORSDOF 5
ENDMDL
MODEL 5
REMARK VINA RESULT:    -6.938      1.694      2.985
REMARK INTER + INTRA:          -9.321
REMARK INTER:                  -8.990
REMARK INTRA:                  -0.331
REMARK UNBOUND:                -0.355
REMARK  Name = 
REMARK  9 active torsions:
REMARK  status: ('A' for Active; 'I' for Inactive)
REMARK    1  A    between atoms: C_1  and  O_2
REMARK    2  A    between atoms: O_2  and  C_3
REMARK    3  A    between atoms: C_6  and  N_7
REMARK    4  A    between atoms: C_14  and  O_15
REMARK    5  A    between atoms: O_15  and  C_16
REMARK    6  A    between atoms: C_17  and  O_18
REMARK    7  A    between atoms: O_18  and  C_19
REMARK    8  A    between atoms: C_23  and  O_24
REMARK    9  A    between atoms: O_24  and  C_25
REMARK                            x       y       z     vdW  Elec       q    Type
REMARK                         _______ _______ _______ _____ _____    ______ ____
ROOT
ATOM      1  N   UNL     1      24.661   3.692  51.163  0.00  0.00    -0.299 N 
ATOM      2  C   UNL     1      25.107   2.624  52.018  0.00  0.00    +0.134 A 
ATOM      3  N   UNL     1      26.350   2.688  52.568  0.00  0.00    -0.220 NA
ATOM      4  C   UNL     1      26.803   1.736  53.422  0.00  0.00    +0.119 A 
ATOM      5  N   UNL     1      26.007   0.691  53.758  0.00  0.00    -0.235 NA
ATOM      6  C   UNL     1      24.756   0.569  53.246  0.00  0.00    +0.080 A 
ATOM      7  C   UNL     1      23.963  -0.523  53.608  0.00  0.00    +0.010 A 
ATOM      8  C   UNL     1      22.671  -0.675  53.073  0.00  0.00    +0.164 A 
ATOM      9  C   UNL     1      22.178   0.274  52.164  0.00  0.00    +0.162 A 
ATOM     10  C   UNL     1      22.977   1.376  51.799  0.00  0.00    -0.004 A 
ATOM     11  C   UNL     1      24.263   1.540  52.348  0.00  0.00    +0.044 A 
ATOM     12  H   UNL     1      23.704   3.921  51.163  0.00  0.00    +0.000 HD
ENDROOT
BRANCH   1  16
ATOM     13  C   UNL     1      27.216   5.939  48.603  0.00  0.00    +0.162 A 
ATOM     14  C   UNL     1      27.393   4.549  48.737  0.00  0.00    -0.015 A 
ATOM     15  C   UNL     1      26.560   3.808  49.577  0.00  0.00    -0.037 A 
ATOM     16  C   UNL     1      25.543   4.440  50.309  0.00  0.00    +0.036 A 
ATOM     17  C   UNL     1      25.353   5.822  50.161  0.00  0.00    +0.005 A 
ATOM     18  C   UNL     1      26.190   6.578  49.316  0.00  0.00    +0.163 A 
BRANCH  13  20
ATOM     19  C   UNL     1      29.454   6.786  47.870  0.00  0.00    +0.079 C 
ATOM     20  O   UNL     1      28.035   6.718  47.771  0.00  0.00    -0.491 OA
ENDBRANCH  13  20
BRANCH  18  21
ATOM     21  O   UNL     1      26.031   7.963  49.157  0.00  0.00    -0.491 OA
ATOM     22  C   UNL     1      24.998   8.734  49.762  0.00  0.00    +0.079 C 
ENDBRANCH  18  21
ENDBRANCH   1  16
BRANCH   8  23
ATOM     23  O   UNL     1      21.847  -1.758  53.416  0.00  0.00    -0.491 OA
ATOM     24  C   UNL     1      20.817  -1.710  54.399  0.00  0.00    +0.079 C 
ENDBRANCH   8  23
BRANCH   9  25
ATOM     25  O   UNL     1      20.889   0.083  51.641  0.00  0.00    -0.491 OA
ATOM     26  C   UNL     1      19.765   0.906  51.939  0.00  0.00    +0.079 C 
ENDBRANCH   9  25
TORSDOF 5
ENDMDL
MODEL 6
REMARK VINA RESULT:    -6.863      4.162      7.927
REMARK INTER + INTRA:          -9.223
REMARK INTER:                  -9.102
REMARK INTRA:                  -0.121
REMARK UNBOUND:                -0.355
REMARK  Name = 
REMARK  9 active torsions:
REMARK  status: ('A' for Active; 'I' for Inactive)
REMARK    1  A    between atoms: C_1  and  O_2
REMARK    2  A    between atoms: O_2  and  C_3
REMARK    3  A    between atoms: C_6  and  N_7
REMARK    4  A    between atoms: C_14  and  O_15
REMARK    5  A    between atoms: O_15  and  C_16
REMARK    6  A    between atoms: C_17  and  O_18
REMARK    7  A    between atoms: O_18  and  C_19
REMARK    8  A    between atoms: C_23  and  O_24
REMARK    9  A    between atoms: O_24  and  C_25
REMARK                            x       y       z     vdW  Elec       q    Type
REMARK                         _______ _______ _______ _____ _____    ______ ____
ROOT
ATOM      1  N   UNL     1      21.760   0.291  53.126  0.00  0.00    -0.299 N 
ATOM      2  C   UNL     1      22.642   1.374  52.782  0.00  0.00    +0.134 A 
ATOM      3  N   UNL     1      22.113   2.587  52.463  0.00  0.00    -0.220 NA
ATOM      4  C   UNL     1      22.898   3.657  52.182  0.00  0.00    +0.119 A 
ATOM      5  N   UNL     1      24.248   3.539  52.225  0.00  0.00    -0.235 NA
ATOM      6  C   UNL     1      24.839   2.358  52.539  0.00  0.00    +0.080 A 
ATOM      7  C   UNL     1      26.233   2.269  52.569  0.00  0.00    +0.010 A 
ATOM      8  C   UNL     1      26.864   1.048  52.873  0.00  0.00    +0.164 A 
ATOM      9  C   UNL     1      26.085  -0.088  53.142  0.00  0.00    +0.162 A 
ATOM     10  C   UNL     1      24.679   0.002  53.112  0.00  0.00    -0.004 A 
ATOM     11  C   UNL     1      24.047   1.226  52.826  0.00  0.00    +0.044 A 
ATOM     12  H   UNL     1      22.068  -0.370  53.787  0.00  0.00    +0.000 HD
ENDROOT
BRANCH   1  16
ATOM     13  C   UNL     1      17.893  -0.271  51.436  0.00  0.00    +0.162 A 
ATOM     14  C   UNL     1      18.847   0.522  50.772  0.00  0.00    -0.015 A 
ATOM     15  C   UNL     1      20.116   0.712  51.322  0.00  0.00    -0.037 A 
ATOM     16  C   UNL     1      20.452   0.125  52.552  0.00  0.00    +0.036 A 
ATOM     17  C   UNL     1      19.509  -0.681  53.205  0.00  0.00    +0.005 A 
ATOM     18  C   UNL     1      18.226  -0.878  52.657  0.00  0.00    +0.163 A 
BRANCH  13  20
ATOM     19  C   UNL     1      15.628   0.538  50.743  0.00  0.00    +0.079 C 
ATOM     20  O   UNL     1      16.607  -0.483  50.915  0.00  0.00    -0.491 OA
ENDBRANCH  13  20
BRANCH  18  21
ATOM     21  O   UNL     1      17.257  -1.670  53.293  0.00  0.00    -0.491 OA
ATOM     22  C   UNL     1      17.430  -3.043  53.629  0.00  0.00    +0.079 C 
ENDBRANCH  18  21
ENDBRANCH   1  16
BRANCH   8  23
ATOM     23  O   UNL     1      28.261   0.923  52.914  0.00  0.00    -0.491 OA
ATOM     24  C   UNL     1      29.056   1.127  54.078  0.00  0.00    +0.079 C 
ENDBRANCH   8  23
BRANCH   9  25
ATOM     25  O   UNL     1      26.748  -1.292  53.430  0.00  0.00    -0.491 OA
ATOM     26  C   UNL     1      27.085  -2.283  52.464  0.00  0.00    +0.079 C 
ENDBRANCH   9  25
TORSDOF 5
ENDMDL
MODEL 7
REMARK VINA RESULT:    -6.813      4.324      6.671
REMARK INTER + INTRA:          -9.159
REMARK INTER:                  -8.590
REMARK INTRA:                  -0.570
REMARK UNBOUND:                -0.355
REMARK  Name = 
REMARK  9 active torsions:
REMARK  status: ('A' for Active; 'I' for Inactive)
REMARK    1  A    between atoms: C_1  and  O_2
REMARK    2  A    between atoms: O_2  and  C_3
REMARK    3  A    between atoms: C_6  and  N_7
REMARK    4  A    between atoms: C_14  and  O_15
REMARK    5  A    between atoms: O_15  and  C_16
REMARK    6  A    between atoms: C_17  and  O_18
REMARK    7  A    between atoms: O_18  and  C_19
REMARK    8  A    between atoms: C_23  and  O_24
REMARK    9  A    between atoms: O_24  and  C_25
REMARK                            x       y       z     vdW  Elec       q    Type
REMARK                         _______ _______ _______ _____ _____    ______ ____
ROOT
ATOM      1  N   UNL     1      23.737   1.152  51.695  0.00  0.00    -0.299 N 
ATOM      2  C   UNL     1      22.992   2.366  51.897  0.00  0.00    +0.134 A 
ATOM      3  N   UNL     1      23.662   3.520  52.165  0.00  0.00    -0.220 NA
ATOM      4  C   UNL     1      23.015   4.703  52.314  0.00  0.00    +0.119 A 
ATOM      5  N   UNL     1      21.667   4.761  52.185  0.00  0.00    -0.235 NA
ATOM      6  C   UNL     1      20.940   3.647  51.916  0.00  0.00    +0.080 A 
ATOM      7  C   UNL     1      19.551   3.739  51.795  0.00  0.00    +0.010 A 
ATOM      8  C   UNL     1      18.779   2.592  51.535  0.00  0.00    +0.164 A 
ATOM      9  C   UNL     1      19.410   1.345  51.403  0.00  0.00    +0.162 A 
ATOM     10  C   UNL     1      20.811   1.251  51.525  0.00  0.00    -0.004 A 
ATOM     11  C   UNL     1      21.586   2.401  51.766  0.00  0.00    +0.044 A 
ATOM     12  H   UNL     1      23.382   0.487  51.062  0.00  0.00    +0.000 HD
ENDROOT
BRANCH   1  16
ATOM     13  C   UNL     1      27.374   0.328  53.748  0.00  0.00    +0.162 A 
ATOM     14  C   UNL     1      27.402   0.855  52.444  0.00  0.00    -0.015 A 
ATOM     15  C   UNL     1      26.213   1.125  51.765  0.00  0.00    -0.037 A 
ATOM     16  C   UNL     1      24.974   0.862  52.369  0.00  0.00    +0.036 A 
ATOM     17  C   UNL     1      24.944   0.355  53.676  0.00  0.00    +0.005 A 
ATOM     18  C   UNL     1      26.141   0.079  54.369  0.00  0.00    +0.163 A 
BRANCH  13  20
ATOM     19  C   UNL     1      29.669  -0.655  53.924  0.00  0.00    +0.079 C 
ATOM     20  O   UNL     1      28.549   0.041  54.462  0.00  0.00    -0.491 OA
ENDBRANCH  13  20
BRANCH  18  21
ATOM     21  O   UNL     1      26.143  -0.440  55.673  0.00  0.00    -0.491 OA
ATOM     22  C   UNL     1      25.033  -1.085  56.289  0.00  0.00    +0.079 C 
ENDBRANCH  18  21
ENDBRANCH   1  16
BRANCH   8  23
ATOM     23  O   UNL     1      17.383   2.648  51.405  0.00  0.00    -0.491 OA
ATOM     24  C   UNL     1      16.575   3.741  51.832  0.00  0.00    +0.079 C 
ENDBRANCH   8  23
BRANCH   9  25
ATOM     25  O   UNL     1      18.607   0.219  51.155  0.00  0.00    -0.491 OA
ATOM     26  C   UNL     1      18.094  -0.647  52.163  0.00  0.00    +0.079 C 
ENDBRANCH   9  25
TORSDOF 5
ENDMDL
MODEL 8
REMARK VINA RESULT:    -6.795      4.305      6.512
REMARK INTER + INTRA:          -9.135
REMARK INTER:                  -8.889
REMARK INTRA:                  -0.246
REMARK UNBOUND:                -0.355
REMARK  Name = 
REMARK  9 active torsions:
REMARK  status: ('A' for Active; 'I' for Inactive)
REMARK    1  A    between atoms: C_1  and  O_2
REMARK    2  A    between atoms: O_2  and  C_3
REMARK    3  A    between atoms: C_6  and  N_7
REMARK    4  A    between atoms: C_14  and  O_15
REMARK    5  A    between atoms: O_15  and  C_16
REMARK    6  A    between atoms: C_17  and  O_18
REMARK    7  A    between atoms: O_18  and  C_19
REMARK    8  A    between atoms: C_23  and  O_24
REMARK    9  A    between atoms: O_24  and  C_25
REMARK                            x       y       z     vdW  Elec       q    Type
REMARK                         _______ _______ _______ _____ _____    ______ ____
ROOT
ATOM      1  N   UNL     1      22.493  -0.076  52.426  0.00  0.00    -0.299 N 
ATOM      2  C   UNL     1      21.614   0.476  51.431  0.00  0.00    +0.134 A 
ATOM      3  N   UNL     1      22.143   1.190  50.399  0.00  0.00    -0.220 NA
ATOM      4  C   UNL     1      21.367   1.689  49.405  0.00  0.00    +0.119 A 
ATOM      5  N   UNL     1      20.028   1.473  49.414  0.00  0.00    -0.235 NA
ATOM      6  C   UNL     1      19.439   0.767  50.412  0.00  0.00    +0.080 A 
ATOM      7  C   UNL     1      18.056   0.567  50.395  0.00  0.00    +0.010 A 
ATOM      8  C   UNL     1      17.425  -0.146  51.431  0.00  0.00    +0.164 A 
ATOM      9  C   UNL     1      18.190  -0.654  52.492  0.00  0.00    +0.162 A 
ATOM     10  C   UNL     1      19.586  -0.452  52.509  0.00  0.00    -0.004 A 
ATOM     11  C   UNL     1      20.221   0.244  51.465  0.00  0.00    +0.044 A 
ATOM     12  H   UNL     1      22.244  -0.930  52.847  0.00  0.00    +0.000 HD
ENDROOT
BRANCH   1  16
ATOM     13  C   UNL     1      26.118   1.756  53.703  0.00  0.00    +0.162 A 
ATOM     14  C   UNL     1      25.016   2.549  53.334  0.00  0.00    -0.015 A 
ATOM     15  C   UNL     1      23.826   1.954  52.912  0.00  0.00    -0.037 A 
ATOM     16  C   UNL     1      23.717   0.557  52.838  0.00  0.00    +0.036 A 
ATOM     17  C   UNL     1      24.808  -0.236  53.225  0.00  0.00    +0.005 A 
ATOM     18  C   UNL     1      26.013   0.357  53.651  0.00  0.00    +0.163 A 
BRANCH  13  20
ATOM     19  C   UNL     1      28.467   2.517  53.293  0.00  0.00    +0.079 C 
ATOM     20  O   UNL     1      27.332   2.318  54.130  0.00  0.00    -0.491 OA
ENDBRANCH  13  20
BRANCH  18  21
ATOM     21  O   UNL     1      27.125  -0.409  54.033  0.00  0.00    -0.491 OA
ATOM     22  C   UNL     1      28.001  -1.071  53.125  0.00  0.00    +0.079 C 
ENDBRANCH  18  21
ENDBRANCH   1  16
BRANCH   8  23
ATOM     23  O   UNL     1      16.039  -0.368  51.445  0.00  0.00    -0.491 OA
ATOM     24  C   UNL     1      15.057   0.662  51.508  0.00  0.00    +0.079 C 
ENDBRANCH   8  23
BRANCH   9  25
ATOM     25  O   UNL     1      17.526  -1.350  53.514  0.00  0.00    -0.491 OA
ATOM     26  C   UNL     1      17.523  -2.766  53.660  0.00  0.00    +0.079 C 
ENDBRANCH   9  25
TORSDOF 5
ENDMDL
MODEL 9
REMARK VINA RESULT:    -6.583      3.515      6.027
REMARK INTER + INTRA:          -8.861
REMARK INTER:                  -8.256
REMARK INTRA:                  -0.605
REMARK UNBOUND:                -0.355
REMARK  Name = 
REMARK  9 active torsions:
REMARK  status: ('A' for Active; 'I' for Inactive)
REMARK    1  A    between atoms: C_1  and  O_2
REMARK    2  A    between atoms: O_2  and  C_3
REMARK    3  A    between atoms: C_6  and  N_7
REMARK    4  A    between atoms: C_14  and  O_15
REMARK    5  A    between atoms: O_15  and  C_16
REMARK    6  A    between atoms: C_17  and  O_18
REMARK    7  A    between atoms: O_18  and  C_19
REMARK    8  A    between atoms: C_23  and  O_24
REMARK    9  A    between atoms: O_24  and  C_25
REMARK                            x       y       z     vdW  Elec       q    Type
REMARK                         _______ _______ _______ _____ _____    ______ ____
ROOT
ATOM      1  N   UNL     1      22.880   2.304  52.315  0.00  0.00    -0.299 N 
ATOM      2  C   UNL     1      24.233   2.439  51.847  0.00  0.00    +0.134 A 
ATOM      3  N   UNL     1      24.481   3.186  50.737  0.00  0.00    -0.220 NA
ATOM      4  C   UNL     1      25.742   3.390  50.281  0.00  0.00    +0.119 A 
ATOM      5  N   UNL     1      26.799   2.855  50.941  0.00  0.00    -0.235 NA
ATOM      6  C   UNL     1      26.620   2.102  52.056  0.00  0.00    +0.080 A 
ATOM      7  C   UNL     1      27.729   1.560  52.710  0.00  0.00    +0.010 A 
ATOM      8  C   UNL     1      27.562   0.762  53.857  0.00  0.00    +0.164 A 
ATOM      9  C   UNL     1      26.271   0.504  54.343  0.00  0.00    +0.162 A 
ATOM     10  C   UNL     1      25.152   1.052  53.683  0.00  0.00    -0.004 A 
ATOM     11  C   UNL     1      25.318   1.865  52.547  0.00  0.00    +0.044 A 
ATOM     12  H   UNL     1      22.727   2.222  53.284  0.00  0.00    +0.000 HD
ENDROOT
BRANCH   1  16
ATOM     13  C   UNL     1      19.463   2.263  49.775  0.00  0.00    +0.162 A 
ATOM     14  C   UNL     1      20.302   1.136  49.850  0.00  0.00    -0.015 A 
ATOM     15  C   UNL     1      21.425   1.145  50.679  0.00  0.00    -0.037 A 
ATOM     16  C   UNL     1      21.739   2.282  51.439  0.00  0.00    +0.036 A 
ATOM     17  C   UNL     1      20.893   3.399  51.380  0.00  0.00    +0.005 A 
ATOM     18  C   UNL     1      19.758   3.399  50.545  0.00  0.00    +0.163 A 
BRANCH  13  20
ATOM     19  C   UNL     1      17.066   1.726  49.296  0.00  0.00    +0.079 C 
ATOM     20  O   UNL     1      18.327   2.293  48.951  0.00  0.00    -0.491 OA
ENDBRANCH  13  20
BRANCH  18  21
ATOM     21  O   UNL     1      18.899   4.505  50.455  0.00  0.00    -0.491 OA
ATOM     22  C   UNL     1      19.109   5.625  49.600  0.00  0.00    +0.079 C 
ENDBRANCH  18  21
ENDBRANCH   1  16
BRANCH   8  23
ATOM     23  O   UNL     1      28.653   0.203  54.540  0.00  0.00    -0.491 OA
ATOM     24  C   UNL     1      29.651  -0.615  53.937  0.00  0.00    +0.079 C 
ENDBRANCH   8  23
BRANCH   9  25
ATOM     25  O   UNL     1      26.141  -0.306  55.483  0.00  0.00    -0.491 OA
ATOM     26  C   UNL     1      24.983  -1.069  55.806  0.00  0.00    +0.079 C 
ENDBRANCH   9  25
TORSDOF 5
ENDMDL
