MODEL 1
REMARK VINA RESULT:   -12.812      0.000      0.000
REMARK INTER + INTRA:         -13.325
REMARK INTER:                 -15.059
REMARK INTRA:                   1.734
REMARK UNBOUND:                 1.734
REMARK  Name = 
REMARK  6 active torsions:
REMARK  status: ('A' for Active; 'I' for Inactive)
REMARK    1  A    between atoms: C_1  and  O_2
REMARK    2  A    between atoms: O_2  and  C_3
REMARK    3  A    between atoms: C_4  and  N_5
REMARK    4  A    between atoms: N_5  and  C_6
REMARK    5  A    between atoms: C_7  and  C_9
REMARK    6  A    between atoms: C_19  and  C_20
REMARK                            x       y       z     vdW  Elec       q    Type
REMARK                         _______ _______ _______ _____ _____    ______ ____
ROOT
ATOM      1  C   UNL     1      22.063   4.049  49.180  0.00  0.00    +0.125 C 
ATOM      2  C   UNL     1      23.262   4.914  49.646  0.00  0.00    +0.061 C 
ATOM      3  C   UNL     1      23.969   4.217  50.800  0.00  0.00    +0.014 C 
ATOM      4  C   UNL     1      24.548   2.888  50.295  0.00  0.00    +0.140 C 
ATOM      5  O   UNL     1      23.846   2.296  49.215  0.00  0.00    -0.328 OA
ATOM      6  C   UNL     1      22.434   2.502  49.184  0.00  0.00    +0.174 C 
ATOM      7  C   UNL     1      22.035   1.877  47.822  0.00  0.00    -0.014 C 
ATOM      8  N   UNL     1      21.752   1.745  50.288  0.00  0.00    -0.307 N 
ATOM      9  C   UNL     1      20.428   1.385  50.373  0.00  0.00    +0.053 A 
ATOM     10  C   UNL     1      19.355   1.769  49.549  0.00  0.00    -0.037 A 
ATOM     11  C   UNL     1      18.071   1.272  49.824  0.00  0.00    -0.060 A 
ATOM     12  C   UNL     1      17.856   0.408  50.910  0.00  0.00    -0.061 A 
ATOM     13  C   UNL     1      18.920   0.035  51.738  0.00  0.00    -0.052 A 
ATOM     14  C   UNL     1      20.189   0.542  51.448  0.00  0.00    +0.008 A 
ATOM     15  C   UNL     1      21.391   0.369  52.082  0.00  0.00    +0.015 A 
ATOM     16  C   UNL     1      21.756  -0.362  53.225  0.00  0.00    -0.008 A 
ATOM     17  C   UNL     1      23.074  -0.322  53.674  0.00  0.00    +0.052 A 
ATOM     18  C   UNL     1      24.022   0.469  52.993  0.00  0.00    +0.022 A 
ATOM     19  C   UNL     1      25.341   0.837  53.238  0.00  0.00    +0.008 A 
ATOM     20  C   UNL     1      26.238   0.528  54.266  0.00  0.00    -0.052 A 
ATOM     21  C   UNL     1      27.505   1.135  54.251  0.00  0.00    -0.061 A 
ATOM     22  C   UNL     1      27.849   2.047  53.236  0.00  0.00    -0.060 A 
ATOM     23  C   UNL     1      26.933   2.363  52.222  0.00  0.00    -0.037 A 
ATOM     24  C   UNL     1      25.682   1.736  52.239  0.00  0.00    +0.052 A 
ATOM     25  N   UNL     1      24.651   1.931  51.383  0.00  0.00    -0.311 N 
ATOM     26  C   UNL     1      23.643   1.171  51.844  0.00  0.00    +0.077 A 
ATOM     27  C   UNL     1      22.319   1.120  51.369  0.00  0.00    +0.077 A 
ATOM     28  C   UNL     1      23.126  -1.176  54.848  0.00  0.00    +0.245 C 
ATOM     29  O   UNL     1      24.145  -1.474  55.517  0.00  0.00    -0.270 OA
ATOM     30  N   UNL     1      21.837  -1.708  55.119  0.00  0.00    -0.307 N 
ATOM     31  C   UNL     1      20.901  -1.224  54.110  0.00  0.00    +0.039 C 
ATOM     32  H   UNL     1      21.613  -2.308  55.867  0.00  0.00    +0.000 HD
ENDROOT
BRANCH   2  33
ATOM     33  N   UNL     1      22.907   6.313  49.990  0.00  0.00    -0.295 N 
ATOM     34  C   UNL     1      21.556   6.674  50.444  0.00  0.00    +0.004 C 
ATOM     35  C   UNL     1      23.950   7.300  50.168  0.00  0.00    +0.247 C 
ATOM     36  O   UNL     1      23.815   8.200  51.044  0.00  0.00    -0.270 OA
BRANCH  35  37
ATOM     37  C   UNL     1      25.191   7.281  49.368  0.00  0.00    +0.037 A 
ATOM     38  C   UNL     1      25.432   8.291  48.423  0.00  0.00    -0.048 A 
ATOM     39  C   UNL     1      26.608   8.284  47.668  0.00  0.00    -0.043 A 
ATOM     40  C   UNL     1      27.547   7.262  47.842  0.00  0.00    +0.041 A 
ATOM     41 CL   UNL     1      29.024   7.255  46.895  0.00  0.00    -0.084 Cl
ATOM     42  C   UNL     1      27.303   6.241  48.765  0.00  0.00    -0.043 A 
ATOM     43  C   UNL     1      26.126   6.246  49.522  0.00  0.00    -0.048 A 
ENDBRANCH  35  37
ENDBRANCH   2  33
BRANCH   1  45
ATOM     44  C   UNL     1      19.820   4.737  49.257  0.00  0.00    +0.037 C 
ATOM     45  O   UNL     1      20.929   4.280  50.007  0.00  0.00    -0.373 OA
ENDBRANCH   1  45
TORSDOF 3
ENDMDL
MODEL 2
REMARK VINA RESULT:   -11.798      3.378      7.153
REMARK INTER + INTRA:         -12.134
REMARK INTER:                 -13.138
REMARK INTRA:                   1.004
REMARK UNBOUND:                 1.734
REMARK  Name = 
REMARK  6 active torsions:
REMARK  status: ('A' for Active; 'I' for Inactive)
REMARK    1  A    between atoms: C_1  and  O_2
REMARK    2  A    between atoms: O_2  and  C_3
REMARK    3  A    between atoms: C_4  and  N_5
REMARK    4  A    between atoms: N_5  and  C_6
REMARK    5  A    between atoms: C_7  and  C_9
REMARK    6  A    between atoms: C_19  and  C_20
REMARK                            x       y       z     vdW  Elec       q    Type
REMARK                         _______ _______ _______ _____ _____    ______ ____
ROOT
ATOM      1  C   UNL     1      20.545   4.688  49.649  0.00  0.00    +0.125 C 
ATOM      2  C   UNL     1      19.407   3.648  49.809  0.00  0.00    +0.061 C 
ATOM      3  C   UNL     1      19.940   2.425  50.542  0.00  0.00    +0.014 C 
ATOM      4  C   UNL     1      20.366   2.842  51.957  0.00  0.00    +0.140 C 
ATOM      5  O   UNL     1      20.785   4.190  52.087  0.00  0.00    -0.328 OA
ATOM      6  C   UNL     1      21.443   4.765  50.959  0.00  0.00    +0.174 C 
ATOM      7  C   UNL     1      21.602   6.247  51.384  0.00  0.00    -0.014 C 
ATOM      8  N   UNL     1      22.806   4.163  50.764  0.00  0.00    -0.307 N 
ATOM      9  C   UNL     1      23.866   4.683  50.058  0.00  0.00    +0.053 A 
ATOM     10  C   UNL     1      23.896   5.806  49.213  0.00  0.00    -0.037 A 
ATOM     11  C   UNL     1      25.104   6.158  48.589  0.00  0.00    -0.060 A 
ATOM     12  C   UNL     1      26.266   5.399  48.799  0.00  0.00    -0.061 A 
ATOM     13  C   UNL     1      26.234   4.273  49.631  0.00  0.00    -0.052 A 
ATOM     14  C   UNL     1      25.022   3.940  50.240  0.00  0.00    +0.008 A 
ATOM     15  C   UNL     1      24.693   2.903  51.073  0.00  0.00    +0.015 A 
ATOM     16  C   UNL     1      25.445   1.834  51.589  0.00  0.00    -0.008 A 
ATOM     17  C   UNL     1      24.824   0.885  52.398  0.00  0.00    +0.052 A 
ATOM     18  C   UNL     1      23.444   0.991  52.669  0.00  0.00    +0.022 A 
ATOM     19  C   UNL     1      22.509   0.176  53.298  0.00  0.00    +0.008 A 
ATOM     20  C   UNL     1      22.605  -1.070  53.927  0.00  0.00    -0.052 A 
ATOM     21  C   UNL     1      21.428  -1.665  54.410  0.00  0.00    -0.061 A 
ATOM     22  C   UNL     1      20.183  -1.030  54.243  0.00  0.00    -0.060 A 
ATOM     23  C   UNL     1      20.099   0.210  53.594  0.00  0.00    -0.037 A 
ATOM     24  C   UNL     1      21.282   0.801  53.134  0.00  0.00    +0.052 A 
ATOM     25  N   UNL     1      21.412   1.964  52.453  0.00  0.00    -0.311 N 
ATOM     26  C   UNL     1      22.719   2.075  52.164  0.00  0.00    +0.077 A 
ATOM     27  C   UNL     1      23.342   3.052  51.365  0.00  0.00    +0.077 A 
ATOM     28  C   UNL     1      25.858  -0.065  52.771  0.00  0.00    +0.245 C 
ATOM     29  O   UNL     1      25.738  -1.040  53.553  0.00  0.00    -0.270 OA
ATOM     30  N   UNL     1      27.092   0.299  52.168  0.00  0.00    -0.307 N 
ATOM     31  C   UNL     1      26.900   1.517  51.389  0.00  0.00    +0.039 C 
ATOM     32  H   UNL     1      27.939  -0.193  52.263  0.00  0.00    +0.000 HD
ENDROOT
BRANCH   2  33
ATOM     33  N   UNL     1      18.739   3.274  48.538  0.00  0.00    -0.295 N 
ATOM     34  C   UNL     1      19.483   3.197  47.272  0.00  0.00    +0.004 C 
ATOM     35  C   UNL     1      17.414   2.694  48.562  0.00  0.00    +0.247 C 
ATOM     36  O   UNL     1      17.107   1.804  47.720  0.00  0.00    -0.270 OA
BRANCH  35  37
ATOM     37  C   UNL     1      16.402   3.095  49.560  0.00  0.00    +0.037 A 
ATOM     38  C   UNL     1      16.264   2.365  50.751  0.00  0.00    -0.048 A 
ATOM     39  C   UNL     1      15.314   2.744  51.704  0.00  0.00    -0.043 A 
ATOM     40  C   UNL     1      14.487   3.848  51.469  0.00  0.00    +0.041 A 
ATOM     41 CL   UNL     1      13.296   4.324  52.666  0.00  0.00    -0.084 Cl
ATOM     42  C   UNL     1      14.604   4.565  50.275  0.00  0.00    -0.043 A 
ATOM     43  C   UNL     1      15.554   4.187  49.320  0.00  0.00    -0.048 A 
ENDBRANCH  35  37
ENDBRANCH   2  33
BRANCH   1  45
ATOM     44  C   UNL     1      21.367   5.426  47.578  0.00  0.00    +0.037 C 
ATOM     45  O   UNL     1      21.354   4.373  48.522  0.00  0.00    -0.373 OA
ENDBRANCH   1  45
TORSDOF 3
ENDMDL
MODEL 3
REMARK VINA RESULT:   -11.719      2.026      3.378
REMARK INTER + INTRA:         -12.040
REMARK INTER:                 -12.969
REMARK INTRA:                   0.929
REMARK UNBOUND:                 1.734
REMARK  Name = 
REMARK  6 active torsions:
REMARK  status: ('A' for Active; 'I' for Inactive)
REMARK    1  A    between atoms: C_1  and  O_2
REMARK    2  A    between atoms: O_2  and  C_3
REMARK    3  A    between atoms: C_4  and  N_5
REMARK    4  A    between atoms: N_5  and  C_6
REMARK    5  A    between atoms: C_7  and  C_9
REMARK    6  A    between atoms: C_19  and  C_20
REMARK                            x       y       z     vdW  Elec       q    Type
REMARK                         _______ _______ _______ _____ _____    ______ ____
ROOT
ATOM      1  C   UNL     1      21.763   4.305  48.871  0.00  0.00    +0.125 C 
ATOM      2  C   UNL     1      22.830   4.485  49.981  0.00  0.00    +0.061 C 
ATOM      3  C   UNL     1      22.582   3.472  51.089  0.00  0.00    +0.014 C 
ATOM      4  C   UNL     1      22.765   2.058  50.519  0.00  0.00    +0.140 C 
ATOM      5  O   UNL     1      22.485   1.926  49.135  0.00  0.00    -0.328 OA
ATOM      6  C   UNL     1      21.458   2.766  48.610  0.00  0.00    +0.174 C 
ATOM      7  C   UNL     1      21.538   2.480  47.088  0.00  0.00    -0.014 C 
ATOM      8  N   UNL     1      20.106   2.349  49.116  0.00  0.00    -0.307 N 
ATOM      9  C   UNL     1      18.875   2.641  48.576  0.00  0.00    +0.053 A 
ATOM     10  C   UNL     1      18.559   3.527  47.532  0.00  0.00    -0.037 A 
ATOM     11  C   UNL     1      17.218   3.669  47.139  0.00  0.00    -0.060 A 
ATOM     12  C   UNL     1      16.203   2.940  47.783  0.00  0.00    -0.061 A 
ATOM     13  C   UNL     1      16.516   2.067  48.831  0.00  0.00    -0.052 A 
ATOM     14  C   UNL     1      17.856   1.943  49.206  0.00  0.00    +0.008 A 
ATOM     15  C   UNL     1      18.446   1.194  50.189  0.00  0.00    +0.015 A 
ATOM     16  C   UNL     1      17.918   0.311  51.146  0.00  0.00    -0.008 A 
ATOM     17  C   UNL     1      18.769  -0.294  52.068  0.00  0.00    +0.052 A 
ATOM     18  C   UNL     1      20.147   0.006  52.049  0.00  0.00    +0.022 A 
ATOM     19  C   UNL     1      21.222  -0.297  52.879  0.00  0.00    +0.008 A 
ATOM     20  C   UNL     1      21.333  -1.048  54.054  0.00  0.00    -0.052 A 
ATOM     21  C   UNL     1      22.580  -1.099  54.697  0.00  0.00    -0.061 A 
ATOM     22  C   UNL     1      23.682  -0.393  54.180  0.00  0.00    -0.060 A 
ATOM     23  C   UNL     1      23.553   0.372  53.011  0.00  0.00    -0.037 A 
ATOM     24  C   UNL     1      22.308   0.399  52.370  0.00  0.00    +0.052 A 
ATOM     25  N   UNL     1      21.966   1.101  51.264  0.00  0.00    -0.311 N 
ATOM     26  C   UNL     1      20.656   0.870  51.075  0.00  0.00    +0.077 A 
ATOM     27  C   UNL     1      19.808   1.468  50.124  0.00  0.00    +0.077 A 
ATOM     28  C   UNL     1      17.930  -1.141  52.896  0.00  0.00    +0.245 C 
ATOM     29  O   UNL     1      18.310  -1.918  53.806  0.00  0.00    -0.270 OA
ATOM     30  N   UNL     1      16.573  -1.029  52.489  0.00  0.00    -0.307 N 
ATOM     31  C   UNL     1      16.491  -0.106  51.362  0.00  0.00    +0.039 C 
ATOM     32  H   UNL     1      15.813  -1.499  52.901  0.00  0.00    +0.000 HD
ENDROOT
BRANCH   2  33
ATOM     33  N   UNL     1      22.928   5.865  50.516  0.00  0.00    -0.295 N 
ATOM     34  C   UNL     1      21.740   6.593  50.986  0.00  0.00    +0.004 C 
ATOM     35  C   UNL     1      24.220   6.418  50.860  0.00  0.00    +0.247 C 
ATOM     36  O   UNL     1      24.324   7.189  51.853  0.00  0.00    -0.270 OA
BRANCH  35  37
ATOM     37  C   UNL     1      25.439   6.091  50.094  0.00  0.00    +0.037 A 
ATOM     38  C   UNL     1      25.874   4.759  50.002  0.00  0.00    -0.048 A 
ATOM     39  C   UNL     1      27.022   4.441  49.271  0.00  0.00    -0.043 A 
ATOM     40  C   UNL     1      27.752   5.452  48.637  0.00  0.00    +0.041 A 
ATOM     41 CL   UNL     1      29.193   5.052  47.720  0.00  0.00    -0.084 Cl
ATOM     42  C   UNL     1      27.338   6.783  48.744  0.00  0.00    -0.043 A 
ATOM     43  C   UNL     1      26.189   7.103  49.475  0.00  0.00    -0.048 A 
ENDBRANCH  35  37
ENDBRANCH   2  33
BRANCH   1  45
ATOM     44  C   UNL     1      20.258   6.010  48.289  0.00  0.00    +0.037 C 
ATOM     45  O   UNL     1      20.564   4.987  49.217  0.00  0.00    -0.373 OA
ENDBRANCH   1  45
TORSDOF 3
ENDMDL
MODEL 4
REMARK VINA RESULT:   -10.022      3.050      6.617
REMARK INTER + INTRA:         -10.045
REMARK INTER:                 -11.187
REMARK INTRA:                   1.142
REMARK UNBOUND:                 1.734
REMARK  Name = 
REMARK  6 active torsions:
REMARK  status: ('A' for Active; 'I' for Inactive)
REMARK    1  A    between atoms: C_1  and  O_2
REMARK    2  A    between atoms: O_2  and  C_3
REMARK    3  A    between atoms: C_4  and  N_5
REMARK    4  A    between atoms: N_5  and  C_6
REMARK    5  A    between atoms: C_7  and  C_9
REMARK    6  A    between atoms: C_19  and  C_20
REMARK                            x       y       z     vdW  Elec       q    Type
REMARK                         _______ _______ _______ _____ _____    ______ ____
ROOT
ATOM      1  C   UNL     1      22.498   3.331  49.596  0.00  0.00    +0.125 C 
ATOM      2  C   UNL     1      22.984   2.640  50.896  0.00  0.00    +0.061 C 
ATOM      3  C   UNL     1      21.801   1.985  51.593  0.00  0.00    +0.014 C 
ATOM      4  C   UNL     1      21.240   0.881  50.685  0.00  0.00    +0.140 C 
ATOM      5  O   UNL     1      21.429   1.090  49.296  0.00  0.00    -0.328 OA
ATOM      6  C   UNL     1      21.411   2.445  48.846  0.00  0.00    +0.174 C 
ATOM      7  C   UNL     1      21.804   2.307  47.353  0.00  0.00    -0.014 C 
ATOM      8  N   UNL     1      20.027   3.025  48.936  0.00  0.00    -0.307 N 
ATOM      9  C   UNL     1      19.527   4.123  48.276  0.00  0.00    +0.053 A 
ATOM     10  C   UNL     1      20.212   5.067  47.492  0.00  0.00    -0.037 A 
ATOM     11  C   UNL     1      19.491   6.119  46.904  0.00  0.00    -0.060 A 
ATOM     12  C   UNL     1      18.104   6.232  47.099  0.00  0.00    -0.061 A 
ATOM     13  C   UNL     1      17.423   5.299  47.889  0.00  0.00    -0.052 A 
ATOM     14  C   UNL     1      18.161   4.262  48.466  0.00  0.00    +0.008 A 
ATOM     15  C   UNL     1      17.774   3.235  49.285  0.00  0.00    +0.015 A 
ATOM     16  C   UNL     1      16.526   2.878  49.823  0.00  0.00    -0.008 A 
ATOM     17  C   UNL     1      16.434   1.781  50.678  0.00  0.00    +0.052 A 
ATOM     18  C   UNL     1      17.597   1.058  51.015  0.00  0.00    +0.022 A 
ATOM     19  C   UNL     1      17.882   0.036  51.915  0.00  0.00    +0.008 A 
ATOM     20  C   UNL     1      17.093  -0.681  52.820  0.00  0.00    -0.052 A 
ATOM     21  C   UNL     1      17.720  -1.624  53.651  0.00  0.00    -0.061 A 
ATOM     22  C   UNL     1      19.112  -1.823  53.585  0.00  0.00    -0.060 A 
ATOM     23  C   UNL     1      19.895  -1.084  52.686  0.00  0.00    -0.037 A 
ATOM     24  C   UNL     1      19.254  -0.161  51.851  0.00  0.00    +0.052 A 
ATOM     25  N   UNL     1      19.827   0.672  50.951  0.00  0.00    -0.311 N 
ATOM     26  C   UNL     1      18.826   1.416  50.451  0.00  0.00    +0.077 A 
ATOM     27  C   UNL     1      18.925   2.508  49.568  0.00  0.00    +0.077 A 
ATOM     28  C   UNL     1      15.034   1.673  51.045  0.00  0.00    +0.245 C 
ATOM     29  O   UNL     1      14.507   0.775  51.747  0.00  0.00    -0.270 OA
ATOM     30  N   UNL     1      14.288   2.715  50.433  0.00  0.00    -0.307 N 
ATOM     31  C   UNL     1      15.189   3.533  49.627  0.00  0.00    +0.039 C 
ATOM     32  H   UNL     1      13.320   2.861  50.535  0.00  0.00    +0.000 HD
ENDROOT
BRANCH   2  33
ATOM     33  N   UNL     1      23.734   3.531  51.816  0.00  0.00    -0.295 N 
ATOM     34  C   UNL     1      23.519   4.985  51.823  0.00  0.00    +0.004 C 
ATOM     35  C   UNL     1      24.474   2.967  52.924  0.00  0.00    +0.247 C 
ATOM     36  O   UNL     1      24.531   3.593  54.019  0.00  0.00    -0.270 OA
BRANCH  35  37
ATOM     37  C   UNL     1      25.156   1.661  52.826  0.00  0.00    +0.037 A 
ATOM     38  C   UNL     1      24.609   0.535  53.461  0.00  0.00    -0.048 A 
ATOM     39  C   UNL     1      25.244  -0.707  53.365  0.00  0.00    -0.043 A 
ATOM     40  C   UNL     1      26.437  -0.830  52.645  0.00  0.00    +0.041 A 
ATOM     41 CL   UNL     1      27.233  -2.389  52.523  0.00  0.00    -0.084 Cl
ATOM     42  C   UNL     1      26.998   0.292  52.028  0.00  0.00    -0.043 A 
ATOM     43  C   UNL     1      26.364   1.535  52.123  0.00  0.00    -0.048 A 
ENDBRANCH  35  37
ENDBRANCH   2  33
BRANCH   1  45
ATOM     44  C   UNL     1      22.657   5.638  49.193  0.00  0.00    +0.037 C 
ATOM     45  O   UNL     1      21.963   4.617  49.885  0.00  0.00    -0.373 OA
ENDBRANCH   1  45
TORSDOF 3
ENDMDL
