MODEL 1
REMARK VINA RESULT:    -9.382      0.000      0.000
REMARK INTER + INTRA:         -12.645
REMARK INTER:                 -12.124
REMARK INTRA:                  -0.521
REMARK UNBOUND:                -0.521
REMARK  Name = 
REMARK  7 active torsions:
REMARK  status: ('A' for Active; 'I' for Inactive)
REMARK    1  A    between atoms: C_1  and  N_2
REMARK    2  A    between atoms: N_5  and  C_6
REMARK    3  A    between atoms: C_6  and  C_7
REMARK    4  A    between atoms: C_7  and  C_8
REMARK    5  A    between atoms: C_8  and  N_9
REMARK    6  A    between atoms: C_15  and  C_16
REMARK    7  A    between atoms: N_26  and  C_27
REMARK                            x       y       z     vdW  Elec       q    Type
REMARK                         _______ _______ _______ _____ _____    ______ ____
ROOT
ATOM      1  N   UNL     1      19.627   1.463  52.313  0.00  0.00    -0.313 N 
ATOM      2  C   UNL     1      20.967   1.063  52.625  0.00  0.00    +0.217 A 
ATOM      3  N   UNL     1      21.190   0.188  53.642  0.00  0.00    -0.222 NA
ATOM      4  C   UNL     1      22.449  -0.205  53.966  0.00  0.00    +0.042 A 
ATOM      5  C   UNL     1      23.541   0.293  53.248  0.00  0.00    +0.037 A 
ATOM      6  C   UNL     1      24.846  -0.092  53.544  0.00  0.00    -0.037 A 
ATOM      7  C   UNL     1      25.906   0.414  52.789  0.00  0.00    +0.050 A 
ATOM      8  C   UNL     1      25.638   1.313  51.738  0.00  0.00    +0.260 A 
ATOM      9  O   UNL     1      26.598   1.740  51.037  0.00  0.00    -0.267 OA
ATOM     10  N   UNL     1      24.350   1.717  51.474  0.00  0.00    -0.295 N 
ATOM     11  C   UNL     1      24.081   2.645  50.362  0.00  0.00    +0.017 C 
ATOM     12  C   UNL     1      23.303   1.202  52.200  0.00  0.00    +0.148 A 
ATOM     13  N   UNL     1      22.019   1.559  51.919  0.00  0.00    -0.196 NA
ATOM     14  H   UNL     1      18.887   1.084  52.841  0.00  0.00    +0.000 HD
ENDROOT
BRANCH   7  15
ATOM     15  C   UNL     1      27.289  -0.005  53.104  0.00  0.00    +0.024 A 
ATOM     16  C   UNL     1      28.192   0.905  53.696  0.00  0.00    +0.050 A 
ATOM     17 CL   UNL     1      27.710   2.550  54.099  0.00  0.00    -0.083 Cl
ATOM     18  C   UNL     1      29.498   0.499  53.995  0.00  0.00    -0.043 A 
ATOM     19  C   UNL     1      29.913  -0.804  53.712  0.00  0.00    -0.059 A 
ATOM     20  C   UNL     1      29.026  -1.709  53.129  0.00  0.00    -0.043 A 
ATOM     21  C   UNL     1      27.717  -1.320  52.823  0.00  0.00    +0.050 A 
ATOM     22 CL   UNL     1      26.645  -2.496  52.068  0.00  0.00    -0.083 Cl
ENDBRANCH   7  15
BRANCH   1  23
ATOM     23  C   UNL     1      19.313   2.409  51.244  0.00  0.00    +0.013 C 
BRANCH  23  24
ATOM     24  C   UNL     1      17.874   2.923  51.386  0.00  0.00    -0.025 C 
BRANCH  24  25
ATOM     25  C   UNL     1      16.868   1.800  51.714  0.00  0.00    +0.000 C 
BRANCH  25  30
ATOM     26  C   UNL     1      12.669   4.562  53.711  0.00  0.00    -0.013 C 
ATOM     27  N   UNL     1      13.754   3.567  53.758  0.00  0.00    -0.303 N 
ATOM     28  C   UNL     1      15.044   4.148  53.309  0.00  0.00    +0.011 C 
ATOM     29  C   UNL     1      15.390   3.757  51.861  0.00  0.00    +0.012 C 
ATOM     30  N   UNL     1      15.468   2.283  51.677  0.00  0.00    -0.300 N 
ATOM     31  C   UNL     1      14.602   1.532  52.618  0.00  0.00    +0.012 C 
ATOM     32  C   UNL     1      13.366   2.345  53.019  0.00  0.00    +0.011 C 
ATOM     33  H   UNL     1      13.904   3.289  54.728  0.00  0.00    +0.000 HD
ATOM     34  H   UNL     1      15.102   2.095  50.744  0.00  0.00    +0.000 HD
ENDBRANCH  25  30
ENDBRANCH  24  25
ENDBRANCH  23  24
ENDBRANCH   1  23
TORSDOF 5
ENDMDL
MODEL 2
REMARK VINA RESULT:    -9.354      1.395      2.291
REMARK INTER + INTRA:         -12.609
REMARK INTER:                 -11.966
REMARK INTRA:                  -0.643
REMARK UNBOUND:                -0.521
REMARK  Name = 
REMARK  7 active torsions:
REMARK  status: ('A' for Active; 'I' for Inactive)
REMARK    1  A    between atoms: C_1  and  N_2
REMARK    2  A    between atoms: N_5  and  C_6
REMARK    3  A    between atoms: C_6  and  C_7
REMARK    4  A    between atoms: C_7  and  C_8
REMARK    5  A    between atoms: C_8  and  N_9
REMARK    6  A    between atoms: C_15  and  C_16
REMARK    7  A    between atoms: N_26  and  C_27
REMARK                            x       y       z     vdW  Elec       q    Type
REMARK                         _______ _______ _______ _____ _____    ______ ____
ROOT
ATOM      1  N   UNL     1      19.338  -0.748  53.622  0.00  0.00    -0.313 N 
ATOM      2  C   UNL     1      20.765  -0.734  53.761  0.00  0.00    +0.217 A 
ATOM      3  N   UNL     1      21.349  -1.417  54.782  0.00  0.00    -0.222 NA
ATOM      4  C   UNL     1      22.697  -1.418  54.944  0.00  0.00    +0.042 A 
ATOM      5  C   UNL     1      23.506  -0.707  54.053  0.00  0.00    +0.037 A 
ATOM      6  C   UNL     1      24.893  -0.691  54.181  0.00  0.00    -0.037 A 
ATOM      7  C   UNL     1      25.666   0.016  53.257  0.00  0.00    +0.050 A 
ATOM      8  C   UNL     1      25.028   0.707  52.208  0.00  0.00    +0.260 A 
ATOM      9  O   UNL     1      25.734   1.315  51.355  0.00  0.00    -0.267 OA
ATOM     10  N   UNL     1      23.656   0.716  52.108  0.00  0.00    -0.295 N 
ATOM     11  C   UNL     1      23.001   1.428  50.998  0.00  0.00    +0.017 C 
ATOM     12  C   UNL     1      22.895   0.001  53.002  0.00  0.00    +0.148 A 
ATOM     13  N   UNL     1      21.538  -0.035  52.888  0.00  0.00    -0.196 NA
ATOM     14  H   UNL     1      18.806  -1.266  54.269  0.00  0.00    +0.000 HD
ENDROOT
BRANCH   7  15
ATOM     15  C   UNL     1      27.139   0.023  53.394  0.00  0.00    +0.024 A 
ATOM     16  C   UNL     1      27.888  -1.137  53.096  0.00  0.00    +0.050 A 
ATOM     17 CL   UNL     1      27.112  -2.616  52.536  0.00  0.00    -0.083 Cl
ATOM     18  C   UNL     1      29.281  -1.120  53.225  0.00  0.00    -0.043 A 
ATOM     19  C   UNL     1      29.937   0.038  53.645  0.00  0.00    -0.059 A 
ATOM     20  C   UNL     1      29.204   1.189  53.939  0.00  0.00    -0.043 A 
ATOM     21  C   UNL     1      27.810   1.190  53.816  0.00  0.00    +0.050 A 
ATOM     22 CL   UNL     1      26.931   2.662  54.220  0.00  0.00    -0.083 Cl
ENDBRANCH   7  15
BRANCH   1  23
ATOM     23  C   UNL     1      18.642  -0.027  52.559  0.00  0.00    +0.013 C 
BRANCH  23  24
ATOM     24  C   UNL     1      17.288  -0.687  52.258  0.00  0.00    -0.025 C 
BRANCH  24  25
ATOM     25  C   UNL     1      16.597  -0.090  51.014  0.00  0.00    +0.000 C 
BRANCH  25  30
ATOM     26  C   UNL     1      13.407   3.676  53.224  0.00  0.00    -0.013 C 
ATOM     27  N   UNL     1      14.475   2.663  53.232  0.00  0.00    -0.303 N 
ATOM     28  C   UNL     1      15.436   2.878  52.121  0.00  0.00    +0.011 C 
ATOM     29  C   UNL     1      15.190   1.922  50.940  0.00  0.00    +0.012 C 
ATOM     30  N   UNL     1      15.275   0.493  51.342  0.00  0.00    -0.300 N 
ATOM     31  C   UNL     1      14.910   0.264  52.761  0.00  0.00    +0.012 C 
ATOM     32  C   UNL     1      13.896   1.301  53.257  0.00  0.00    +0.011 C 
ATOM     33  H   UNL     1      15.021   2.766  54.088  0.00  0.00    +0.000 HD
ATOM     34  H   UNL     1      14.575   0.001  50.788  0.00  0.00    +0.000 HD
ENDBRANCH  25  30
ENDBRANCH  24  25
ENDBRANCH  23  24
ENDBRANCH   1  23
TORSDOF 5
ENDMDL
MODEL 3
REMARK VINA RESULT:    -9.302      2.652      3.699
REMARK INTER + INTRA:         -12.542
REMARK INTER:                 -11.924
REMARK INTRA:                  -0.618
REMARK UNBOUND:                -0.521
REMARK  Name = 
REMARK  7 active torsions:
REMARK  status: ('A' for Active; 'I' for Inactive)
REMARK    1  A    between atoms: C_1  and  N_2
REMARK    2  A    between atoms: N_5  and  C_6
REMARK    3  A    between atoms: C_6  and  C_7
REMARK    4  A    between atoms: C_7  and  C_8
REMARK    5  A    between atoms: C_8  and  N_9
REMARK    6  A    between atoms: C_15  and  C_16
REMARK    7  A    between atoms: N_26  and  C_27
REMARK                            x       y       z     vdW  Elec       q    Type
REMARK                         _______ _______ _______ _____ _____    ______ ____
ROOT
ATOM      1  N   UNL     1      21.547   3.976  49.916  0.00  0.00    -0.313 N 
ATOM      2  C   UNL     1      22.783   3.368  50.312  0.00  0.00    +0.217 A 
ATOM      3  N   UNL     1      23.920   3.639  49.618  0.00  0.00    -0.222 NA
ATOM      4  C   UNL     1      25.105   3.074  49.964  0.00  0.00    +0.042 A 
ATOM      5  C   UNL     1      25.167   2.195  51.050  0.00  0.00    +0.037 A 
ATOM      6  C   UNL     1      26.364   1.601  51.442  0.00  0.00    -0.037 A 
ATOM      7  C   UNL     1      26.385   0.745  52.545  0.00  0.00    +0.050 A 
ATOM      8  C   UNL     1      25.189   0.491  53.245  0.00  0.00    +0.260 A 
ATOM      9  O   UNL     1      25.221  -0.256  54.262  0.00  0.00    -0.267 OA
ATOM     10  N   UNL     1      24.004   1.053  52.831  0.00  0.00    -0.295 N 
ATOM     11  C   UNL     1      22.763   0.793  53.581  0.00  0.00    +0.017 C 
ATOM     12  C   UNL     1      23.984   1.914  51.760  0.00  0.00    +0.148 A 
ATOM     13  N   UNL     1      22.825   2.512  51.368  0.00  0.00    -0.196 NA
ATOM     14  H   UNL     1      21.550   4.593  49.148  0.00  0.00    +0.000 HD
ENDROOT
BRANCH   7  15
ATOM     15  C   UNL     1      27.662   0.124  52.960  0.00  0.00    +0.024 A 
ATOM     16  C   UNL     1      28.689   0.914  53.520  0.00  0.00    +0.050 A 
ATOM     17 CL   UNL     1      28.489   2.647  53.765  0.00  0.00    -0.083 Cl
ATOM     18  C   UNL     1      29.893   0.318  53.915  0.00  0.00    -0.043 A 
ATOM     19  C   UNL     1      30.083  -1.056  53.758  0.00  0.00    -0.059 A 
ATOM     20  C   UNL     1      29.072  -1.844  53.208  0.00  0.00    -0.043 A 
ATOM     21  C   UNL     1      27.862  -1.264  52.807  0.00  0.00    +0.050 A 
ATOM     22 CL   UNL     1      26.627  -2.300  52.099  0.00  0.00    -0.083 Cl
ENDBRANCH   7  15
BRANCH   1  23
ATOM     23  C   UNL     1      20.284   3.720  50.606  0.00  0.00    +0.013 C 
BRANCH  23  24
ATOM     24  C   UNL     1      19.505   2.599  49.903  0.00  0.00    -0.025 C 
BRANCH  24  25
ATOM     25  C   UNL     1      18.439   1.953  50.812  0.00  0.00    +0.000 C 
BRANCH  25  30
ATOM     26  C   UNL     1      17.802  -2.543  53.749  0.00  0.00    -0.013 C 
ATOM     27  N   UNL     1      17.956  -1.093  53.550  0.00  0.00    -0.303 N 
ATOM     28  C   UNL     1      17.014  -0.583  52.523  0.00  0.00    +0.011 C 
ATOM     29  C   UNL     1      17.695  -0.363  51.160  0.00  0.00    +0.012 C 
ATOM     30  N   UNL     1      18.833   0.592  51.244  0.00  0.00    -0.300 N 
ATOM     31  C   UNL     1      19.485   0.604  52.577  0.00  0.00    +0.012 C 
ATOM     32  C   UNL     1      19.371  -0.756  53.274  0.00  0.00    +0.011 C 
ATOM     33  H   UNL     1      17.703  -0.612  54.414  0.00  0.00    +0.000 HD
ATOM     34  H   UNL     1      19.536   0.252  50.589  0.00  0.00    +0.000 HD
ENDBRANCH  25  30
ENDBRANCH  24  25
ENDBRANCH  23  24
ENDBRANCH   1  23
TORSDOF 5
ENDMDL
MODEL 4
REMARK VINA RESULT:    -9.290      2.665      4.059
REMARK INTER + INTRA:         -12.526
REMARK INTER:                 -11.885
REMARK INTRA:                  -0.641
REMARK UNBOUND:                -0.521
REMARK  Name = 
REMARK  7 active torsions:
REMARK  status: ('A' for Active; 'I' for Inactive)
REMARK    1  A    between atoms: C_1  and  N_2
REMARK    2  A    between atoms: N_5  and  C_6
REMARK    3  A    between atoms: C_6  and  C_7
REMARK    4  A    between atoms: C_7  and  C_8
REMARK    5  A    between atoms: C_8  and  N_9
REMARK    6  A    between atoms: C_15  and  C_16
REMARK    7  A    between atoms: N_26  and  C_27
REMARK                            x       y       z     vdW  Elec       q    Type
REMARK                         _______ _______ _______ _____ _____    ______ ____
ROOT
ATOM      1  N   UNL     1      21.729   4.046  50.044  0.00  0.00    -0.313 N 
ATOM      2  C   UNL     1      22.952   3.404  50.427  0.00  0.00    +0.217 A 
ATOM      3  N   UNL     1      24.096   3.671  49.743  0.00  0.00    -0.222 NA
ATOM      4  C   UNL     1      25.269   3.074  50.077  0.00  0.00    +0.042 A 
ATOM      5  C   UNL     1      25.311   2.168  51.140  0.00  0.00    +0.037 A 
ATOM      6  C   UNL     1      26.496   1.541  51.520  0.00  0.00    -0.037 A 
ATOM      7  C   UNL     1      26.497   0.657  52.600  0.00  0.00    +0.050 A 
ATOM      8  C   UNL     1      25.295   0.409  53.291  0.00  0.00    +0.260 A 
ATOM      9  O   UNL     1      25.310  -0.365  54.290  0.00  0.00    -0.267 OA
ATOM     10  N   UNL     1      24.122   1.003  52.889  0.00  0.00    -0.295 N 
ATOM     11  C   UNL     1      22.874   0.748  53.630  0.00  0.00    +0.017 C 
ATOM     12  C   UNL     1      24.122   1.892  51.841  0.00  0.00    +0.148 A 
ATOM     13  N   UNL     1      22.975   2.522  51.462  0.00  0.00    -0.196 NA
ATOM     14  H   UNL     1      21.745   4.682  49.292  0.00  0.00    +0.000 HD
ENDROOT
BRANCH   7  15
ATOM     15  C   UNL     1      27.761   0.001  53.002  0.00  0.00    +0.024 A 
ATOM     16  C   UNL     1      27.935  -1.387  52.811  0.00  0.00    +0.050 A 
ATOM     17 CL   UNL     1      26.679  -2.380  52.077  0.00  0.00    -0.083 Cl
ATOM     18  C   UNL     1      29.135  -1.999  53.189  0.00  0.00    -0.043 A 
ATOM     19  C   UNL     1      30.164  -1.244  53.754  0.00  0.00    -0.059 A 
ATOM     20  C   UNL     1      30.001   0.129  53.944  0.00  0.00    -0.043 A 
ATOM     21  C   UNL     1      28.807   0.757  53.572  0.00  0.00    +0.050 A 
ATOM     22 CL   UNL     1      28.645   2.488  53.853  0.00  0.00    -0.083 Cl
ENDBRANCH   7  15
BRANCH   1  23
ATOM     23  C   UNL     1      20.460   3.797  50.725  0.00  0.00    +0.013 C 
BRANCH  23  24
ATOM     24  C   UNL     1      19.650   2.726  49.980  0.00  0.00    -0.025 C 
BRANCH  24  25
ATOM     25  C   UNL     1      18.567   2.074  50.864  0.00  0.00    +0.000 C 
BRANCH  25  30
ATOM     26  C   UNL     1      17.822  -2.482  53.681  0.00  0.00    -0.013 C 
ATOM     27  N   UNL     1      17.971  -1.027  53.516  0.00  0.00    -0.303 N 
ATOM     28  C   UNL     1      17.079  -0.506  52.450  0.00  0.00    +0.011 C 
ATOM     29  C   UNL     1      17.829  -0.255  51.129  0.00  0.00    +0.012 C 
ATOM     30  N   UNL     1      18.951   0.708  51.291  0.00  0.00    -0.300 N 
ATOM     31  C   UNL     1      19.532   0.702  52.657  0.00  0.00    +0.012 C 
ATOM     32  C   UNL     1      19.395  -0.672  53.321  0.00  0.00    +0.011 C 
ATOM     33  H   UNL     1      17.668  -0.565  54.374  0.00  0.00    +0.000 HD
ATOM     34  H   UNL     1      19.692   0.387  50.668  0.00  0.00    +0.000 HD
ENDBRANCH  25  30
ENDBRANCH  24  25
ENDBRANCH  23  24
ENDBRANCH   1  23
TORSDOF 5
ENDMDL
MODEL 5
REMARK VINA RESULT:    -9.232      2.769      4.704
REMARK INTER + INTRA:         -12.451
REMARK INTER:                 -11.515
REMARK INTRA:                  -0.936
REMARK UNBOUND:                -0.521
REMARK  Name = 
REMARK  7 active torsions:
REMARK  status: ('A' for Active; 'I' for Inactive)
REMARK    1  A    between atoms: C_1  and  N_2
REMARK    2  A    between atoms: N_5  and  C_6
REMARK    3  A    between atoms: C_6  and  C_7
REMARK    4  A    between atoms: C_7  and  C_8
REMARK    5  A    between atoms: C_8  and  N_9
REMARK    6  A    between atoms: C_15  and  C_16
REMARK    7  A    between atoms: N_26  and  C_27
REMARK                            x       y       z     vdW  Elec       q    Type
REMARK                         _______ _______ _______ _____ _____    ______ ____
ROOT
ATOM      1  N   UNL     1      19.796   1.450  52.179  0.00  0.00    -0.313 N 
ATOM      2  C   UNL     1      21.130   1.050  52.518  0.00  0.00    +0.217 A 
ATOM      3  N   UNL     1      21.336   0.210  53.566  0.00  0.00    -0.222 NA
ATOM      4  C   UNL     1      22.588  -0.182  53.916  0.00  0.00    +0.042 A 
ATOM      5  C   UNL     1      23.691   0.282  53.193  0.00  0.00    +0.037 A 
ATOM      6  C   UNL     1      24.990  -0.103  53.515  0.00  0.00    -0.037 A 
ATOM      7  C   UNL     1      26.062   0.368  52.754  0.00  0.00    +0.050 A 
ATOM      8  C   UNL     1      25.812   1.233  51.670  0.00  0.00    +0.260 A 
ATOM      9  O   UNL     1      26.782   1.628  50.965  0.00  0.00    -0.267 OA
ATOM     10  N   UNL     1      24.530   1.638  51.380  0.00  0.00    -0.295 N 
ATOM     11  C   UNL     1      24.279   2.529  50.234  0.00  0.00    +0.017 C 
ATOM     12  C   UNL     1      23.471   1.156  52.112  0.00  0.00    +0.148 A 
ATOM     13  N   UNL     1      22.193   1.514  51.806  0.00  0.00    -0.196 NA
ATOM     14  H   UNL     1      19.048   1.095  52.712  0.00  0.00    +0.000 HD
ENDROOT
BRANCH   7  15
ATOM     15  C   UNL     1      27.438  -0.051  53.097  0.00  0.00    +0.024 A 
ATOM     16  C   UNL     1      28.342   0.871  53.668  0.00  0.00    +0.050 A 
ATOM     17 CL   UNL     1      27.869   2.533  54.011  0.00  0.00    -0.083 Cl
ATOM     18  C   UNL     1      29.641   0.465  53.994  0.00  0.00    -0.043 A 
ATOM     19  C   UNL     1      30.049  -0.849  53.759  0.00  0.00    -0.059 A 
ATOM     20  C   UNL     1      29.161  -1.767  53.197  0.00  0.00    -0.043 A 
ATOM     21  C   UNL     1      27.858  -1.378  52.865  0.00  0.00    +0.050 A 
ATOM     22 CL   UNL     1      26.784  -2.570  52.138  0.00  0.00    -0.083 Cl
ENDBRANCH   7  15
BRANCH   1  23
ATOM     23  C   UNL     1      19.501   2.361  51.075  0.00  0.00    +0.013 C 
BRANCH  23  24
ATOM     24  C   UNL     1      19.583   3.821  51.545  0.00  0.00    -0.025 C 
BRANCH  24  25
ATOM     25  C   UNL     1      20.193   4.757  50.481  0.00  0.00    +0.000 C 
BRANCH  25  30
ATOM     26  C   UNL     1      25.038   7.156  50.606  0.00  0.00    -0.013 C 
ATOM     27  N   UNL     1      24.122   6.004  50.570  0.00  0.00    -0.303 N 
ATOM     28  C   UNL     1      23.105   6.151  49.500  0.00  0.00    +0.011 C 
ATOM     29  C   UNL     1      21.742   6.614  50.045  0.00  0.00    +0.012 C 
ATOM     30  N   UNL     1      21.195   5.679  51.065  0.00  0.00    -0.300 N 
ATOM     31  C   UNL     1      22.248   4.947  51.809  0.00  0.00    +0.012 C 
ATOM     32  C   UNL     1      23.540   5.766  51.910  0.00  0.00    +0.011 C 
ATOM     33  H   UNL     1      24.654   5.167  50.328  0.00  0.00    +0.000 HD
ATOM     34  H   UNL     1      20.715   6.260  51.752  0.00  0.00    +0.000 HD
ENDBRANCH  25  30
ENDBRANCH  24  25
ENDBRANCH  23  24
ENDBRANCH   1  23
TORSDOF 5
ENDMDL
MODEL 6
REMARK VINA RESULT:    -9.088      1.255      2.613
REMARK INTER + INTRA:         -12.265
REMARK INTER:                 -11.669
REMARK INTRA:                  -0.596
REMARK UNBOUND:                -0.521
REMARK  Name = 
REMARK  7 active torsions:
REMARK  status: ('A' for Active; 'I' for Inactive)
REMARK    1  A    between atoms: C_1  and  N_2
REMARK    2  A    between atoms: N_5  and  C_6
REMARK    3  A    between atoms: C_6  and  C_7
REMARK    4  A    between atoms: C_7  and  C_8
REMARK    5  A    between atoms: C_8  and  N_9
REMARK    6  A    between atoms: C_15  and  C_16
REMARK    7  A    between atoms: N_26  and  C_27
REMARK                            x       y       z     vdW  Elec       q    Type
REMARK                         _______ _______ _______ _____ _____    ______ ____
ROOT
ATOM      1  N   UNL     1      19.942   2.042  51.005  0.00  0.00    -0.313 N 
ATOM      2  C   UNL     1      21.336   1.794  51.229  0.00  0.00    +0.217 A 
ATOM      3  N   UNL     1      22.261   2.354  50.404  0.00  0.00    -0.222 NA
ATOM      4  C   UNL     1      23.588   2.134  50.586  0.00  0.00    +0.042 A 
ATOM      5  C   UNL     1      24.021   1.316  51.634  0.00  0.00    +0.037 A 
ATOM      6  C   UNL     1      25.374   1.072  51.859  0.00  0.00    -0.037 A 
ATOM      7  C   UNL     1      25.765   0.266  52.930  0.00  0.00    +0.050 A 
ATOM      8  C   UNL     1      24.780  -0.293  53.768  0.00  0.00    +0.260 A 
ATOM      9  O   UNL     1      25.141  -0.993  54.756  0.00  0.00    -0.267 OA
ATOM     10  N   UNL     1      23.445  -0.078  53.520  0.00  0.00    -0.295 N 
ATOM     11  C   UNL     1      22.425  -0.655  54.413  0.00  0.00    +0.017 C 
ATOM     12  C   UNL     1      23.059   0.735  52.480  0.00  0.00    +0.148 A 
ATOM     13  N   UNL     1      21.741   0.993  52.251  0.00  0.00    -0.196 NA
ATOM     14  H   UNL     1      19.681   2.628  50.258  0.00  0.00    +0.000 HD
ENDROOT
BRANCH   7  15
ATOM     15  C   UNL     1      27.203   0.017  53.167  0.00  0.00    +0.024 A 
ATOM     16  C   UNL     1      27.767  -1.243  52.870  0.00  0.00    +0.050 A 
ATOM     17 CL   UNL     1      26.797  -2.550  52.196  0.00  0.00    -0.083 Cl
ATOM     18  C   UNL     1      29.130  -1.469  53.093  0.00  0.00    -0.043 A 
ATOM     19  C   UNL     1      29.938  -0.453  53.606  0.00  0.00    -0.059 A 
ATOM     20  C   UNL     1      29.390   0.796  53.900  0.00  0.00    -0.043 A 
ATOM     21  C   UNL     1      28.028   1.039  53.683  0.00  0.00    +0.050 A 
ATOM     22 CL   UNL     1      27.383   2.626  54.090  0.00  0.00    -0.083 Cl
ENDBRANCH   7  15
BRANCH   1  23
ATOM     23  C   UNL     1      18.893   1.462  51.842  0.00  0.00    +0.013 C 
BRANCH  23  24
ATOM     24  C   UNL     1      17.548   1.470  51.101  0.00  0.00    -0.025 C 
BRANCH  24  25
ATOM     25  C   UNL     1      16.464   0.644  51.825  0.00  0.00    +0.000 C 
BRANCH  25  30
ATOM     26  C   UNL     1      13.023   4.486  53.454  0.00  0.00    -0.013 C 
ATOM     27  N   UNL     1      13.962   3.368  53.648  0.00  0.00    -0.303 N 
ATOM     28  C   UNL     1      15.232   3.592  52.912  0.00  0.00    +0.011 C 
ATOM     29  C   UNL     1      15.295   2.794  51.597  0.00  0.00    +0.012 C 
ATOM     30  N   UNL     1      15.150   1.330  51.817  0.00  0.00    -0.300 N 
ATOM     31  C   UNL     1      14.349   0.998  53.021  0.00  0.00    +0.012 C 
ATOM     32  C   UNL     1      13.308   2.081  53.322  0.00  0.00    +0.011 C 
ATOM     33  H   UNL     1      14.223   3.324  54.633  0.00  0.00    +0.000 HD
ATOM     34  H   UNL     1      14.623   0.975  51.020  0.00  0.00    +0.000 HD
ENDBRANCH  25  30
ENDBRANCH  24  25
ENDBRANCH  23  24
ENDBRANCH   1  23
TORSDOF 5
ENDMDL
MODEL 7
REMARK VINA RESULT:    -8.824      1.405      2.204
REMARK INTER + INTRA:         -11.924
REMARK INTER:                 -11.247
REMARK INTRA:                  -0.676
REMARK UNBOUND:                -0.521
REMARK  Name = 
REMARK  7 active torsions:
REMARK  status: ('A' for Active; 'I' for Inactive)
REMARK    1  A    between atoms: C_1  and  N_2
REMARK    2  A    between atoms: N_5  and  C_6
REMARK    3  A    between atoms: C_6  and  C_7
REMARK    4  A    between atoms: C_7  and  C_8
REMARK    5  A    between atoms: C_8  and  N_9
REMARK    6  A    between atoms: C_15  and  C_16
REMARK    7  A    between atoms: N_26  and  C_27
REMARK                            x       y       z     vdW  Elec       q    Type
REMARK                         _______ _______ _______ _____ _____    ______ ____
ROOT
ATOM      1  N   UNL     1      20.478   3.059  50.809  0.00  0.00    -0.313 N 
ATOM      2  C   UNL     1      21.816   2.609  51.059  0.00  0.00    +0.217 A 
ATOM      3  N   UNL     1      22.832   3.045  50.267  0.00  0.00    -0.222 NA
ATOM      4  C   UNL     1      24.109   2.633  50.474  0.00  0.00    +0.042 A 
ATOM      5  C   UNL     1      24.394   1.743  51.514  0.00  0.00    +0.037 A 
ATOM      6  C   UNL     1      25.692   1.303  51.764  0.00  0.00    -0.037 A 
ATOM      7  C   UNL     1      25.935   0.430  52.826  0.00  0.00    +0.050 A 
ATOM      8  C   UNL     1      24.860   0.004  53.630  0.00  0.00    +0.260 A 
ATOM      9  O   UNL     1      25.091  -0.758  54.611  0.00  0.00    -0.267 OA
ATOM     10  N   UNL     1      23.576   0.414  53.356  0.00  0.00    -0.295 N 
ATOM     11  C   UNL     1      22.462  -0.026  54.214  0.00  0.00    +0.017 C 
ATOM     12  C   UNL     1      23.337   1.292  52.326  0.00  0.00    +0.148 A 
ATOM     13  N   UNL     1      22.076   1.741  52.073  0.00  0.00    -0.196 NA
ATOM     14  H   UNL     1      20.323   3.690  50.069  0.00  0.00    +0.000 HD
ENDROOT
BRANCH   7  15
ATOM     15  C   UNL     1      27.317  -0.027  53.090  0.00  0.00    +0.024 A 
ATOM     16  C   UNL     1      28.267   0.858  53.644  0.00  0.00    +0.050 A 
ATOM     17 CL   UNL     1      27.847   2.518  54.059  0.00  0.00    -0.083 Cl
ATOM     18  C   UNL     1      29.571   0.416  53.895  0.00  0.00    -0.043 A 
ATOM     19  C   UNL     1      29.938  -0.898  53.601  0.00  0.00    -0.059 A 
ATOM     20  C   UNL     1      29.005  -1.780  53.056  0.00  0.00    -0.043 A 
ATOM     21  C   UNL     1      27.696  -1.355  52.798  0.00  0.00    +0.050 A 
ATOM     22 CL   UNL     1      26.564  -2.501  52.089  0.00  0.00    -0.083 Cl
ENDBRANCH   7  15
BRANCH   1  23
ATOM     23  C   UNL     1      19.336   2.622  51.610  0.00  0.00    +0.013 C 
BRANCH  23  24
ATOM     24  C   UNL     1      18.572   1.502  50.890  0.00  0.00    -0.025 C 
BRANCH  24  25
ATOM     25  C   UNL     1      17.578   2.039  49.838  0.00  0.00    +0.000 C 
BRANCH  25  30
ATOM     26  C   UNL     1      14.055   4.086  53.393  0.00  0.00    -0.013 C 
ATOM     27  N   UNL     1      15.266   3.354  52.988  0.00  0.00    -0.303 N 
ATOM     28  C   UNL     1      16.071   4.132  52.013  0.00  0.00    +0.011 C 
ATOM     29  C   UNL     1      15.869   3.646  50.566  0.00  0.00    +0.012 C 
ATOM     30  N   UNL     1      16.218   2.210  50.399  0.00  0.00    -0.300 N 
ATOM     31  C   UNL     1      16.030   1.416  51.638  0.00  0.00    +0.012 C 
ATOM     32  C   UNL     1      14.916   1.996  52.516  0.00  0.00    +0.011 C 
ATOM     33  H   UNL     1      15.868   3.235  53.804  0.00  0.00    +0.000 HD
ATOM     34  H   UNL     1      15.555   1.835  49.720  0.00  0.00    +0.000 HD
ENDBRANCH  25  30
ENDBRANCH  24  25
ENDBRANCH  23  24
ENDBRANCH   1  23
TORSDOF 5
ENDMDL
MODEL 8
REMARK VINA RESULT:    -8.457      5.178      9.029
REMARK INTER + INTRA:         -11.450
REMARK INTER:                 -10.469
REMARK INTRA:                  -0.981
REMARK UNBOUND:                -0.521
REMARK  Name = 
REMARK  7 active torsions:
REMARK  status: ('A' for Active; 'I' for Inactive)
REMARK    1  A    between atoms: C_1  and  N_2
REMARK    2  A    between atoms: N_5  and  C_6
REMARK    3  A    between atoms: C_6  and  C_7
REMARK    4  A    between atoms: C_7  and  C_8
REMARK    5  A    between atoms: C_8  and  N_9
REMARK    6  A    between atoms: C_15  and  C_16
REMARK    7  A    between atoms: N_26  and  C_27
REMARK                            x       y       z     vdW  Elec       q    Type
REMARK                         _______ _______ _______ _____ _____    ______ ____
ROOT
ATOM      1  N   UNL     1      22.661   5.898  46.894  0.00  0.00    -0.313 N 
ATOM      2  C   UNL     1      22.688   4.836  47.857  0.00  0.00    +0.217 A 
ATOM      3  N   UNL     1      22.336   3.578  47.482  0.00  0.00    -0.222 NA
ATOM      4  C   UNL     1      22.345   2.552  48.372  0.00  0.00    +0.042 A 
ATOM      5  C   UNL     1      22.721   2.785  49.698  0.00  0.00    +0.037 A 
ATOM      6  C   UNL     1      22.752   1.758  50.639  0.00  0.00    -0.037 A 
ATOM      7  C   UNL     1      23.154   2.029  51.948  0.00  0.00    +0.050 A 
ATOM      8  C   UNL     1      23.519   3.343  52.301  0.00  0.00    +0.260 A 
ATOM      9  O   UNL     1      23.914   3.576  53.478  0.00  0.00    -0.267 OA
ATOM     10  N   UNL     1      23.451   4.360  51.376  0.00  0.00    -0.295 N 
ATOM     11  C   UNL     1      23.851   5.727  51.752  0.00  0.00    +0.017 C 
ATOM     12  C   UNL     1      23.080   4.091  50.080  0.00  0.00    +0.148 A 
ATOM     13  N   UNL     1      23.053   5.079  49.144  0.00  0.00    -0.196 NA
ATOM     14  H   UNL     1      22.394   5.689  45.969  0.00  0.00    +0.000 HD
ENDROOT
BRANCH   7  15
ATOM     15  C   UNL     1      23.191   0.932  52.940  0.00  0.00    +0.024 A 
ATOM     16  C   UNL     1      22.007   0.517  53.588  0.00  0.00    +0.050 A 
ATOM     17 CL   UNL     1      20.452   1.264  53.233  0.00  0.00    -0.083 Cl
ATOM     18  C   UNL     1      22.051  -0.524  54.522  0.00  0.00    -0.043 A 
ATOM     19  C   UNL     1      23.259  -1.157  54.816  0.00  0.00    -0.059 A 
ATOM     20  C   UNL     1      24.433  -0.754  54.179  0.00  0.00    -0.043 A 
ATOM     21  C   UNL     1      24.408   0.286  53.242  0.00  0.00    +0.050 A 
ATOM     22 CL   UNL     1      25.921   0.770  52.482  0.00  0.00    -0.083 Cl
ENDBRANCH   7  15
BRANCH   1  23
ATOM     23  C   UNL     1      23.013   7.276  47.229  0.00  0.00    +0.013 C 
BRANCH  23  24
ATOM     24  C   UNL     1      24.536   7.468  47.184  0.00  0.00    -0.025 C 
BRANCH  24  25
ATOM     25  C   UNL     1      25.115   7.959  48.527  0.00  0.00    +0.000 C 
BRANCH  25  30
ATOM     26  C   UNL     1      30.523   7.928  48.552  0.00  0.00    -0.013 C 
ATOM     27  N   UNL     1      29.186   7.724  49.136  0.00  0.00    -0.303 N 
ATOM     28  C   UNL     1      28.315   6.931  48.233  0.00  0.00    +0.011 C 
ATOM     29  C   UNL     1      27.321   7.812  47.455  0.00  0.00    +0.012 C 
ATOM     30  N   UNL     1      26.440   8.601  48.357  0.00  0.00    -0.300 N 
ATOM     31  C   UNL     1      27.071   8.913  49.662  0.00  0.00    +0.012 C 
ATOM     32  C   UNL     1      28.596   9.019  49.540  0.00  0.00    +0.011 C 
ATOM     33  H   UNL     1      29.278   7.165  49.985  0.00  0.00    +0.000 HD
ATOM     34  H   UNL     1      26.291   9.497  47.894  0.00  0.00    +0.000 HD
ENDBRANCH  25  30
ENDBRANCH  24  25
ENDBRANCH  23  24
ENDBRANCH   1  23
TORSDOF 5
ENDMDL
MODEL 9
REMARK VINA RESULT:    -8.395      5.075      9.687
REMARK INTER + INTRA:         -11.369
REMARK INTER:                 -10.350
REMARK INTRA:                  -1.019
REMARK UNBOUND:                -0.521
REMARK  Name = 
REMARK  7 active torsions:
REMARK  status: ('A' for Active; 'I' for Inactive)
REMARK    1  A    between atoms: C_1  and  N_2
REMARK    2  A    between atoms: N_5  and  C_6
REMARK    3  A    between atoms: C_6  and  C_7
REMARK    4  A    between atoms: C_7  and  C_8
REMARK    5  A    between atoms: C_8  and  N_9
REMARK    6  A    between atoms: C_15  and  C_16
REMARK    7  A    between atoms: N_26  and  C_27
REMARK                            x       y       z     vdW  Elec       q    Type
REMARK                         _______ _______ _______ _____ _____    ______ ____
ROOT
ATOM      1  N   UNL     1      24.465   7.342  49.055  0.00  0.00    -0.313 N 
ATOM      2  C   UNL     1      24.095   6.266  49.927  0.00  0.00    +0.217 A 
ATOM      3  N   UNL     1      24.195   6.425  51.273  0.00  0.00    -0.222 NA
ATOM      4  C   UNL     1      23.859   5.423  52.125  0.00  0.00    +0.042 A 
ATOM      5  C   UNL     1      23.403   4.202  51.619  0.00  0.00    +0.037 A 
ATOM      6  C   UNL     1      23.041   3.152  52.459  0.00  0.00    -0.037 A 
ATOM      7  C   UNL     1      22.572   1.956  51.912  0.00  0.00    +0.050 A 
ATOM      8  C   UNL     1      22.475   1.828  50.513  0.00  0.00    +0.260 A 
ATOM      9  O   UNL     1      22.017   0.756  50.025  0.00  0.00    -0.267 OA
ATOM     10  N   UNL     1      22.868   2.855  49.687  0.00  0.00    -0.295 N 
ATOM     11  C   UNL     1      22.747   2.716  48.226  0.00  0.00    +0.017 C 
ATOM     12  C   UNL     1      23.308   4.042  50.223  0.00  0.00    +0.148 A 
ATOM     13  N   UNL     1      23.657   5.083  49.418  0.00  0.00    -0.196 NA
ATOM     14  H   UNL     1      24.776   8.187  49.454  0.00  0.00    +0.000 HD
ENDROOT
BRANCH   7  15
ATOM     15  C   UNL     1      22.182   0.848  52.811  0.00  0.00    +0.024 A 
ATOM     16  C   UNL     1      20.827   0.659  53.162  0.00  0.00    +0.050 A 
ATOM     17 CL   UNL     1      19.558   1.708  52.536  0.00  0.00    -0.083 Cl
ATOM     18  C   UNL     1      20.466  -0.395  54.010  0.00  0.00    -0.043 A 
ATOM     19  C   UNL     1      21.438  -1.262  54.510  0.00  0.00    -0.059 A 
ATOM     20  C   UNL     1      22.778  -1.083  54.166  0.00  0.00    -0.043 A 
ATOM     21  C   UNL     1      23.158  -0.034  53.320  0.00  0.00    +0.050 A 
ATOM     22 CL   UNL     1      24.865   0.160  52.935  0.00  0.00    -0.083 Cl
ENDBRANCH   7  15
BRANCH   1  23
ATOM     23  C   UNL     1      24.397   7.238  47.599  0.00  0.00    +0.013 C 
BRANCH  23  24
ATOM     24  C   UNL     1      25.547   8.020  46.949  0.00  0.00    -0.025 C 
BRANCH  24  25
ATOM     25  C   UNL     1      26.253   8.973  47.936  0.00  0.00    +0.000 C 
BRANCH  25  30
ATOM     26  C   UNL     1      31.080   6.646  48.663  0.00  0.00    -0.013 C 
ATOM     27  N   UNL     1      29.784   7.190  49.101  0.00  0.00    -0.303 N 
ATOM     28  C   UNL     1      28.664   6.641  48.296  0.00  0.00    +0.011 C 
ATOM     29  C   UNL     1      28.178   7.627  47.218  0.00  0.00    +0.012 C 
ATOM     30  N   UNL     1      27.727   8.920  47.797  0.00  0.00    -0.300 N 
ATOM     31  C   UNL     1      28.412   9.259  49.069  0.00  0.00    +0.012 C 
ATOM     32  C   UNL     1      29.825   8.670  49.122  0.00  0.00    +0.011 C 
ATOM     33  H   UNL     1      29.605   6.887  50.058  0.00  0.00    +0.000 HD
ATOM     34  H   UNL     1      27.999   9.640  47.129  0.00  0.00    +0.000 HD
ENDBRANCH  25  30
ENDBRANCH  24  25
ENDBRANCH  23  24
ENDBRANCH   1  23
TORSDOF 5
ENDMDL
