MODEL 1
REMARK VINA RESULT:    -6.572      0.000      0.000
REMARK INTER + INTRA:          -8.039
REMARK INTER:                  -8.109
REMARK INTRA:                   0.070
REMARK UNBOUND:                 0.070
REMARK  Name = 
REMARK  5 active torsions:
REMARK  status: ('A' for Active; 'I' for Inactive)
REMARK    1  A    between atoms: C_2  and  C_3
REMARK    2  A    between atoms: C_3  and  C_13
REMARK    3  A    between atoms: C_4  and  C_5
REMARK    4  A    between atoms: C_7  and  O_8
REMARK    5  A    between atoms: C_11  and  O_12
REMARK                            x       y       z     vdW  Elec       q    Type
REMARK                         _______ _______ _______ _____ _____    ______ ____
ROOT
ATOM      1  C   UNL     1      27.651   0.005  52.845  0.00  0.00    +0.021 A 
ATOM      2  C   UNL     1      27.617  -1.400  52.896  0.00  0.00    -0.010 A 
ATOM      3  C   UNL     1      28.751  -2.126  53.271  0.00  0.00    +0.118 A 
ATOM      4  C   UNL     1      29.927  -1.449  53.615  0.00  0.00    -0.017 A 
ATOM      5  C   UNL     1      29.966  -0.054  53.589  0.00  0.00    -0.016 A 
ATOM      6  C   UNL     1      28.836   0.681  53.209  0.00  0.00    +0.124 A 
ENDROOT
BRANCH   1   8
ATOM      7  C   UNL     1      25.305   0.786  53.251  0.00  0.00    +0.136 C 
ATOM      8  C   UNL     1      26.423   0.755  52.501  0.00  0.00    -0.027 C 
BRANCH   7   9
ATOM      9  C   UNL     1      25.083  -0.074  54.437  0.00  0.00    +0.347 C 
ATOM     10  O   UNL     1      24.107  -0.872  54.457  0.00  0.00    -0.244 OA
ATOM     11  O   UNL     1      25.965  -0.051  55.514  0.00  0.00    -0.477 OA
ENDBRANCH   7   9
BRANCH   7  13
ATOM     12  N   UNL     1      23.383   2.378  52.520  0.00  0.00    -0.191 NA
ATOM     13  C   UNL     1      24.238   1.669  52.845  0.00  0.00    +0.106 C 
ENDBRANCH   7  13
ENDBRANCH   1   8
BRANCH   3  14
ATOM     14  O   UNL     1      28.698  -3.518  53.304  0.00  0.00    -0.507 OA
ATOM     15  H   UNL     1      28.024  -3.972  52.837  0.00  0.00    +0.000 HD
ENDBRANCH   3  14
BRANCH   6  16
ATOM     16  O   UNL     1      28.925   2.074  53.192  0.00  0.00    -0.506 OA
ATOM     17  H   UNL     1      28.835   2.540  52.385  0.00  0.00    +0.000 HD
ENDBRANCH   6  16
TORSDOF 5
ENDMDL
MODEL 2
REMARK VINA RESULT:    -6.561      2.320      3.382
REMARK INTER + INTRA:          -8.025
REMARK INTER:                  -7.556
REMARK INTRA:                  -0.470
REMARK UNBOUND:                 0.070
REMARK  Name = 
REMARK  5 active torsions:
REMARK  status: ('A' for Active; 'I' for Inactive)
REMARK    1  A    between atoms: C_2  and  C_3
REMARK    2  A    between atoms: C_3  and  C_13
REMARK    3  A    between atoms: C_4  and  C_5
REMARK    4  A    between atoms: C_7  and  O_8
REMARK    5  A    between atoms: C_11  and  O_12
REMARK                            x       y       z     vdW  Elec       q    Type
REMARK                         _______ _______ _______ _____ _____    ______ ____
ROOT
ATOM      1  C   UNL     1      27.394   1.450  52.526  0.00  0.00    +0.021 A 
ATOM      2  C   UNL     1      28.275   2.257  53.270  0.00  0.00    -0.010 A 
ATOM      3  C   UNL     1      29.041   1.708  54.303  0.00  0.00    +0.118 A 
ATOM      4  C   UNL     1      28.944   0.342  54.590  0.00  0.00    -0.017 A 
ATOM      5  C   UNL     1      28.090  -0.472  53.844  0.00  0.00    -0.016 A 
ATOM      6  C   UNL     1      27.315   0.069  52.811  0.00  0.00    +0.124 A 
ENDROOT
BRANCH   1   8
ATOM      7  C   UNL     1      25.392   2.543  51.491  0.00  0.00    +0.136 C 
ATOM      8  C   UNL     1      26.636   2.038  51.400  0.00  0.00    -0.027 C 
BRANCH   7   9
ATOM      9  C   UNL     1      24.535   2.416  52.694  0.00  0.00    +0.347 C 
ATOM     10  O   UNL     1      24.256   3.440  53.374  0.00  0.00    -0.244 OA
ATOM     11  O   UNL     1      23.992   1.187  53.061  0.00  0.00    -0.477 OA
ENDBRANCH   7   9
BRANCH   7  13
ATOM     12  N   UNL     1      24.393   3.726  49.402  0.00  0.00    -0.191 NA
ATOM     13  C   UNL     1      24.837   3.200  50.332  0.00  0.00    +0.106 C 
ENDBRANCH   7  13
ENDBRANCH   1   8
BRANCH   3  14
ATOM     14  O   UNL     1      29.898   2.528  55.034  0.00  0.00    -0.507 OA
ATOM     15  H   UNL     1      29.934   3.448  54.854  0.00  0.00    +0.000 HD
ENDBRANCH   3  14
BRANCH   6  16
ATOM     16  O   UNL     1      26.471  -0.784  52.098  0.00  0.00    -0.506 OA
ATOM     17  H   UNL     1      25.556  -0.591  52.032  0.00  0.00    +0.000 HD
ENDBRANCH   6  16
TORSDOF 5
ENDMDL
MODEL 3
REMARK VINA RESULT:    -6.524      1.982      3.123
REMARK INTER + INTRA:          -7.979
REMARK INTER:                  -7.970
REMARK INTRA:                  -0.009
REMARK UNBOUND:                 0.070
REMARK  Name = 
REMARK  5 active torsions:
REMARK  status: ('A' for Active; 'I' for Inactive)
REMARK    1  A    between atoms: C_2  and  C_3
REMARK    2  A    between atoms: C_3  and  C_13
REMARK    3  A    between atoms: C_4  and  C_5
REMARK    4  A    between atoms: C_7  and  O_8
REMARK    5  A    between atoms: C_11  and  O_12
REMARK                            x       y       z     vdW  Elec       q    Type
REMARK                         _______ _______ _______ _____ _____    ______ ____
ROOT
ATOM      1  C   UNL     1      27.092  -0.446  53.951  0.00  0.00    +0.021 A 
ATOM      2  C   UNL     1      27.613   0.786  54.387  0.00  0.00    -0.010 A 
ATOM      3  C   UNL     1      28.980   1.059  54.277  0.00  0.00    +0.118 A 
ATOM      4  C   UNL     1      29.836   0.106  53.713  0.00  0.00    -0.017 A 
ATOM      5  C   UNL     1      29.327  -1.111  53.257  0.00  0.00    -0.016 A 
ATOM      6  C   UNL     1      27.960  -1.395  53.368  0.00  0.00    +0.124 A 
ENDROOT
BRANCH   1   8
ATOM      7  C   UNL     1      24.698   0.053  53.407  0.00  0.00    +0.136 C 
ATOM      8  C   UNL     1      25.636  -0.691  54.023  0.00  0.00    -0.027 C 
BRANCH   7   9
ATOM      9  C   UNL     1      24.983   1.332  52.716  0.00  0.00    +0.347 C 
ATOM     10  O   UNL     1      25.424   1.320  51.534  0.00  0.00    -0.244 OA
ATOM     11  O   UNL     1      24.726   2.554  53.333  0.00  0.00    -0.477 OA
ENDBRANCH   7   9
BRANCH   7  13
ATOM     12  N   UNL     1      22.227  -0.750  53.518  0.00  0.00    -0.191 NA
ATOM     13  C   UNL     1      23.327  -0.393  53.469  0.00  0.00    +0.106 C 
ENDBRANCH   7  13
ENDBRANCH   1   8
BRANCH   3  14
ATOM     14  O   UNL     1      29.476   2.281  54.727  0.00  0.00    -0.507 OA
ATOM     15  H   UNL     1      30.087   2.306  55.437  0.00  0.00    +0.000 HD
ENDBRANCH   3  14
BRANCH   6  16
ATOM     16  O   UNL     1      27.499  -2.628  52.903  0.00  0.00    -0.506 OA
ATOM     17  H   UNL     1      28.104  -3.257  52.563  0.00  0.00    +0.000 HD
ENDBRANCH   6  16
TORSDOF 5
ENDMDL
MODEL 4
REMARK VINA RESULT:    -6.180      2.047      2.452
REMARK INTER + INTRA:          -7.555
REMARK INTER:                  -7.167
REMARK INTRA:                  -0.388
REMARK UNBOUND:                 0.070
REMARK  Name = 
REMARK  5 active torsions:
REMARK  status: ('A' for Active; 'I' for Inactive)
REMARK    1  A    between atoms: C_2  and  C_3
REMARK    2  A    between atoms: C_3  and  C_13
REMARK    3  A    between atoms: C_4  and  C_5
REMARK    4  A    between atoms: C_7  and  O_8
REMARK    5  A    between atoms: C_11  and  O_12
REMARK                            x       y       z     vdW  Elec       q    Type
REMARK                         _______ _______ _______ _____ _____    ______ ____
ROOT
ATOM      1  C   UNL     1      27.119   1.099  52.060  0.00  0.00    +0.021 A 
ATOM      2  C   UNL     1      26.844  -0.279  52.112  0.00  0.00    -0.010 A 
ATOM      3  C   UNL     1      27.526  -1.107  53.009  0.00  0.00    +0.118 A 
ATOM      4  C   UNL     1      28.479  -0.559  53.874  0.00  0.00    -0.017 A 
ATOM      5  C   UNL     1      28.744   0.811  53.847  0.00  0.00    -0.016 A 
ATOM      6  C   UNL     1      28.070   1.648  52.949  0.00  0.00    +0.124 A 
ENDROOT
BRANCH   1   8
ATOM      7  C   UNL     1      25.206   2.605  51.470  0.00  0.00    +0.136 C 
ATOM      8  C   UNL     1      26.346   1.967  51.145  0.00  0.00    -0.027 C 
BRANCH   7   9
ATOM      9  C   UNL     1      24.469   2.385  52.736  0.00  0.00    +0.347 C 
ATOM     10  O   UNL     1      24.525   3.250  53.651  0.00  0.00    -0.244 OA
ATOM     11  O   UNL     1      23.672   1.256  52.914  0.00  0.00    -0.477 OA
ENDBRANCH   7   9
BRANCH   7  13
ATOM     12  N   UNL     1      24.186   4.252  49.734  0.00  0.00    -0.191 NA
ATOM     13  C   UNL     1      24.640   3.519  50.506  0.00  0.00    +0.106 C 
ENDBRANCH   7  13
ENDBRANCH   1   8
BRANCH   3  14
ATOM     14  O   UNL     1      27.246  -2.472  53.034  0.00  0.00    -0.507 OA
ATOM     15  H   UNL     1      26.532  -2.814  52.531  0.00  0.00    +0.000 HD
ENDBRANCH   3  14
BRANCH   6  16
ATOM     16  O   UNL     1      28.375   3.010  52.955  0.00  0.00    -0.506 OA
ATOM     17  H   UNL     1      28.332   3.497  53.754  0.00  0.00    +0.000 HD
ENDBRANCH   6  16
TORSDOF 5
ENDMDL
MODEL 5
REMARK VINA RESULT:    -6.076      2.934      5.724
REMARK INTER + INTRA:          -7.426
REMARK INTER:                  -7.417
REMARK INTRA:                  -0.010
REMARK UNBOUND:                 0.070
REMARK  Name = 
REMARK  5 active torsions:
REMARK  status: ('A' for Active; 'I' for Inactive)
REMARK    1  A    between atoms: C_2  and  C_3
REMARK    2  A    between atoms: C_3  and  C_13
REMARK    3  A    between atoms: C_4  and  C_5
REMARK    4  A    between atoms: C_7  and  O_8
REMARK    5  A    between atoms: C_11  and  O_12
REMARK                            x       y       z     vdW  Elec       q    Type
REMARK                         _______ _______ _______ _____ _____    ______ ____
ROOT
ATOM      1  C   UNL     1      23.980  -0.361  54.096  0.00  0.00    +0.021 A 
ATOM      2  C   UNL     1      23.592   0.310  52.923  0.00  0.00    -0.010 A 
ATOM      3  C   UNL     1      22.294   0.172  52.421  0.00  0.00    +0.118 A 
ATOM      4  C   UNL     1      21.368  -0.628  53.101  0.00  0.00    -0.017 A 
ATOM      5  C   UNL     1      21.736  -1.281  54.278  0.00  0.00    -0.016 A 
ATOM      6  C   UNL     1      23.035  -1.152  54.785  0.00  0.00    +0.124 A 
ENDROOT
BRANCH   1   8
ATOM      7  C   UNL     1      26.480  -0.309  53.942  0.00  0.00    +0.136 C 
ATOM      8  C   UNL     1      25.340  -0.156  54.641  0.00  0.00    -0.027 C 
BRANCH   7   9
ATOM      9  C   UNL     1      26.540  -0.882  52.577  0.00  0.00    +0.347 C 
ATOM     10  O   UNL     1      26.670  -0.117  51.583  0.00  0.00    -0.244 OA
ATOM     11  O   UNL     1      26.505  -2.260  52.375  0.00  0.00    -0.477 OA
ENDBRANCH   7   9
BRANCH   7  13
ATOM     12  N   UNL     1      28.720   0.347  55.090  0.00  0.00    -0.191 NA
ATOM     13  C   UNL     1      27.723   0.055  54.579  0.00  0.00    +0.106 C 
ENDBRANCH   7  13
ENDBRANCH   1   8
BRANCH   3  14
ATOM     14  O   UNL     1      21.934   0.836  51.250  0.00  0.00    -0.507 OA
ATOM     15  H   UNL     1      22.375   1.627  51.006  0.00  0.00    +0.000 HD
ENDBRANCH   3  14
BRANCH   6  16
ATOM     16  O   UNL     1      23.358  -1.830  55.963  0.00  0.00    -0.506 OA
ATOM     17  H   UNL     1      22.795  -1.766  56.709  0.00  0.00    +0.000 HD
ENDBRANCH   6  16
TORSDOF 5
ENDMDL
MODEL 6
REMARK VINA RESULT:    -6.008      1.871      2.579
REMARK INTER + INTRA:          -7.343
REMARK INTER:                  -7.377
REMARK INTRA:                   0.034
REMARK UNBOUND:                 0.070
REMARK  Name = 
REMARK  5 active torsions:
REMARK  status: ('A' for Active; 'I' for Inactive)
REMARK    1  A    between atoms: C_2  and  C_3
REMARK    2  A    between atoms: C_3  and  C_13
REMARK    3  A    between atoms: C_4  and  C_5
REMARK    4  A    between atoms: C_7  and  O_8
REMARK    5  A    between atoms: C_11  and  O_12
REMARK                            x       y       z     vdW  Elec       q    Type
REMARK                         _______ _______ _______ _____ _____    ______ ____
ROOT
ATOM      1  C   UNL     1      27.004   0.711  53.480  0.00  0.00    +0.021 A 
ATOM      2  C   UNL     1      27.009  -0.675  53.240  0.00  0.00    -0.010 A 
ATOM      3  C   UNL     1      28.196  -1.408  53.327  0.00  0.00    +0.118 A 
ATOM      4  C   UNL     1      29.389  -0.761  53.671  0.00  0.00    -0.017 A 
ATOM      5  C   UNL     1      29.391   0.610  53.933  0.00  0.00    -0.016 A 
ATOM      6  C   UNL     1      28.208   1.353  53.844  0.00  0.00    +0.124 A 
ENDROOT
BRANCH   1   8
ATOM      7  C   UNL     1      25.300   2.195  52.398  0.00  0.00    +0.136 C 
ATOM      8  C   UNL     1      25.727   1.456  53.440  0.00  0.00    -0.027 C 
BRANCH   7   9
ATOM      9  C   UNL     1      26.133   2.511  51.214  0.00  0.00    +0.347 C 
ATOM     10  O   UNL     1      26.813   1.601  50.667  0.00  0.00    -0.244 OA
ATOM     11  O   UNL     1      26.140   3.790  50.664  0.00  0.00    -0.477 OA
ENDBRANCH   7   9
BRANCH   7  13
ATOM     12  N   UNL     1      22.907   3.207  52.512  0.00  0.00    -0.191 NA
ATOM     13  C   UNL     1      23.972   2.756  52.461  0.00  0.00    +0.106 C 
ENDBRANCH   7  13
ENDBRANCH   1   8
BRANCH   3  14
ATOM     14  O   UNL     1      28.180  -2.778  53.073  0.00  0.00    -0.507 OA
ATOM     15  H   UNL     1      27.380  -3.199  52.826  0.00  0.00    +0.000 HD
ENDBRANCH   3  14
BRANCH   6  16
ATOM     16  O   UNL     1      28.262   2.723  54.108  0.00  0.00    -0.506 OA
ATOM     17  H   UNL     1      28.255   3.338  53.402  0.00  0.00    +0.000 HD
ENDBRANCH   6  16
TORSDOF 5
ENDMDL
MODEL 7
REMARK VINA RESULT:    -5.955      2.648      5.263
REMARK INTER + INTRA:          -7.278
REMARK INTER:                  -6.949
REMARK INTRA:                  -0.329
REMARK UNBOUND:                 0.070
REMARK  Name = 
REMARK  5 active torsions:
REMARK  status: ('A' for Active; 'I' for Inactive)
REMARK    1  A    between atoms: C_2  and  C_3
REMARK    2  A    between atoms: C_3  and  C_13
REMARK    3  A    between atoms: C_4  and  C_5
REMARK    4  A    between atoms: C_7  and  O_8
REMARK    5  A    between atoms: C_11  and  O_12
REMARK                            x       y       z     vdW  Elec       q    Type
REMARK                         _______ _______ _______ _____ _____    ______ ____
ROOT
ATOM      1  C   UNL     1      25.501   0.662  52.187  0.00  0.00    +0.021 A 
ATOM      2  C   UNL     1      25.870   1.899  51.627  0.00  0.00    -0.010 A 
ATOM      3  C   UNL     1      24.994   2.988  51.669  0.00  0.00    +0.118 A 
ATOM      4  C   UNL     1      23.746   2.852  52.288  0.00  0.00    -0.017 A 
ATOM      5  C   UNL     1      23.379   1.636  52.866  0.00  0.00    -0.016 A 
ATOM      6  C   UNL     1      24.248   0.539  52.825  0.00  0.00    +0.124 A 
ENDROOT
BRANCH   1   8
ATOM      7  C   UNL     1      27.306  -0.755  53.192  0.00  0.00    +0.136 C 
ATOM      8  C   UNL     1      26.465  -0.460  52.183  0.00  0.00    -0.027 C 
BRANCH   7   9
ATOM      9  C   UNL     1      27.511   0.112  54.376  0.00  0.00    +0.347 C 
ATOM     10  O   UNL     1      26.652   0.123  55.299  0.00  0.00    -0.244 OA
ATOM     11  O   UNL     1      28.665   0.881  54.511  0.00  0.00    -0.477 OA
ENDBRANCH   7   9
BRANCH   7  13
ATOM     12  N   UNL     1      28.727  -2.926  53.009  0.00  0.00    -0.191 NA
ATOM     13  C   UNL     1      28.095  -1.960  53.090  0.00  0.00    +0.106 C 
ENDBRANCH   7  13
ENDBRANCH   1   8
BRANCH   3  14
ATOM     14  O   UNL     1      25.375   4.200  51.097  0.00  0.00    -0.507 OA
ATOM     15  H   UNL     1      26.083   4.691  51.467  0.00  0.00    +0.000 HD
ENDBRANCH   3  14
BRANCH   6  16
ATOM     16  O   UNL     1      23.833  -0.658  53.411  0.00  0.00    -0.506 OA
ATOM     17  H   UNL     1      24.050  -0.843  54.304  0.00  0.00    +0.000 HD
ENDBRANCH   6  16
TORSDOF 5
ENDMDL
MODEL 8
REMARK VINA RESULT:    -5.890      3.519      4.951
REMARK INTER + INTRA:          -7.198
REMARK INTER:                  -6.695
REMARK INTRA:                  -0.503
REMARK UNBOUND:                 0.070
REMARK  Name = 
REMARK  5 active torsions:
REMARK  status: ('A' for Active; 'I' for Inactive)
REMARK    1  A    between atoms: C_2  and  C_3
REMARK    2  A    between atoms: C_3  and  C_13
REMARK    3  A    between atoms: C_4  and  C_5
REMARK    4  A    between atoms: C_7  and  O_8
REMARK    5  A    between atoms: C_11  and  O_12
REMARK                            x       y       z     vdW  Elec       q    Type
REMARK                         _______ _______ _______ _____ _____    ______ ____
ROOT
ATOM      1  C   UNL     1      24.250  -0.007  53.301  0.00  0.00    +0.021 A 
ATOM      2  C   UNL     1      24.980  -0.420  54.430  0.00  0.00    -0.010 A 
ATOM      3  C   UNL     1      24.357  -1.136  55.457  0.00  0.00    +0.118 A 
ATOM      4  C   UNL     1      22.999  -1.459  55.355  0.00  0.00    -0.017 A 
ATOM      5  C   UNL     1      22.270  -1.073  54.229  0.00  0.00    -0.016 A 
ATOM      6  C   UNL     1      22.884  -0.351  53.197  0.00  0.00    +0.124 A 
ENDROOT
BRANCH   1   8
ATOM      7  C   UNL     1      24.886   2.027  51.983  0.00  0.00    +0.136 C 
ATOM      8  C   UNL     1      24.941   0.699  52.200  0.00  0.00    -0.027 C 
BRANCH   7   9
ATOM      9  C   UNL     1      23.979   2.945  52.711  0.00  0.00    +0.347 C 
ATOM     10  O   UNL     1      24.431   3.662  53.645  0.00  0.00    -0.244 OA
ATOM     11  O   UNL     1      22.640   3.066  52.348  0.00  0.00    -0.477 OA
ENDBRANCH   7   9
BRANCH   7  13
ATOM     12  N   UNL     1      26.390   3.026  50.112  0.00  0.00    -0.191 NA
ATOM     13  C   UNL     1      25.721   2.582  50.945  0.00  0.00    +0.106 C 
ENDBRANCH   7  13
ENDBRANCH   1   8
BRANCH   3  14
ATOM     14  O   UNL     1      25.097  -1.524  56.572  0.00  0.00    -0.507 OA
ATOM     15  H   UNL     1      25.961  -1.873  56.463  0.00  0.00    +0.000 HD
ENDBRANCH   3  14
BRANCH   6  16
ATOM     16  O   UNL     1      22.112   0.017  52.095  0.00  0.00    -0.506 OA
ATOM     17  H   UNL     1      22.518   0.152  51.261  0.00  0.00    +0.000 HD
ENDBRANCH   6  16
TORSDOF 5
ENDMDL
MODEL 9
REMARK VINA RESULT:    -5.725      2.696      4.982
REMARK INTER + INTRA:          -6.994
REMARK INTER:                  -6.519
REMARK INTRA:                  -0.474
REMARK UNBOUND:                 0.070
REMARK  Name = 
REMARK  5 active torsions:
REMARK  status: ('A' for Active; 'I' for Inactive)
REMARK    1  A    between atoms: C_2  and  C_3
REMARK    2  A    between atoms: C_3  and  C_13
REMARK    3  A    between atoms: C_4  and  C_5
REMARK    4  A    between atoms: C_7  and  O_8
REMARK    5  A    between atoms: C_11  and  O_12
REMARK                            x       y       z     vdW  Elec       q    Type
REMARK                         _______ _______ _______ _____ _____    ______ ____
ROOT
ATOM      1  C   UNL     1      25.590   0.828  52.290  0.00  0.00    +0.021 A 
ATOM      2  C   UNL     1      24.286   0.536  52.728  0.00  0.00    -0.010 A 
ATOM      3  C   UNL     1      23.301   1.528  52.740  0.00  0.00    +0.118 A 
ATOM      4  C   UNL     1      23.609   2.819  52.298  0.00  0.00    -0.017 A 
ATOM      5  C   UNL     1      24.895   3.115  51.841  0.00  0.00    -0.016 A 
ATOM      6  C   UNL     1      25.890   2.129  51.830  0.00  0.00    +0.124 A 
ENDROOT
BRANCH   1   8
ATOM      7  C   UNL     1      27.536  -0.481  53.173  0.00  0.00    +0.136 C 
ATOM      8  C   UNL     1      26.602  -0.250  52.231  0.00  0.00    -0.027 C 
BRANCH   7   9
ATOM      9  C   UNL     1      27.797   0.426  54.316  0.00  0.00    +0.347 C 
ATOM     10  O   UNL     1      27.298   0.168  55.445  0.00  0.00    -0.244 OA
ATOM     11  O   UNL     1      28.627   1.535  54.176  0.00  0.00    -0.477 OA
ENDBRANCH   7   9
BRANCH   7  13
ATOM     12  N   UNL     1      29.035  -2.591  52.922  0.00  0.00    -0.191 NA
ATOM     13  C   UNL     1      28.368  -1.652  53.033  0.00  0.00    +0.106 C 
ENDBRANCH   7  13
ENDBRANCH   1   8
BRANCH   3  14
ATOM     14  O   UNL     1      22.018   1.218  53.189  0.00  0.00    -0.507 OA
ATOM     15  H   UNL     1      21.881   0.979  54.084  0.00  0.00    +0.000 HD
ENDBRANCH   3  14
BRANCH   6  16
ATOM     16  O   UNL     1      27.161   2.475  51.370  0.00  0.00    -0.506 OA
ATOM     17  H   UNL     1      27.276   3.236  50.835  0.00  0.00    +0.000 HD
ENDBRANCH   6  16
TORSDOF 5
ENDMDL
