MODEL 1
REMARK VINA RESULT:    -6.112      0.000      0.000
REMARK INTER + INTRA:          -7.806
REMARK INTER:                  -7.720
REMARK INTRA:                  -0.086
REMARK UNBOUND:                -0.086
REMARK  Name = 
REMARK  6 active torsions:
REMARK  status: ('A' for Active; 'I' for Inactive)
REMARK    1  A    between atoms: C_2  and  C_3
REMARK    2  A    between atoms: C_3  and  C_4
REMARK    3  A    between atoms: C_6  and  C_7
REMARK    4  A    between atoms: C_9  and  O_10
REMARK    5  A    between atoms: C_11  and  O_12
REMARK    6  A    between atoms: C_13  and  O_14
REMARK                            x       y       z     vdW  Elec       q    Type
REMARK                         _______ _______ _______ _____ _____    ______ ____
ROOT
ATOM      1  C   UNL     1      26.707  -0.218  52.850  0.00  0.00    -0.016 A 
ATOM      2  C   UNL     1      27.062  -1.575  52.874  0.00  0.00    -0.009 A 
ATOM      3  C   UNL     1      28.350  -1.965  53.264  0.00  0.00    +0.163 A 
ATOM      4  C   UNL     1      29.293  -1.003  53.652  0.00  0.00    +0.201 A 
ATOM      5  C   UNL     1      28.930   0.365  53.660  0.00  0.00    +0.163 A 
ATOM      6  C   UNL     1      27.639   0.739  53.267  0.00  0.00    -0.009 A 
ENDROOT
BRANCH   1   8
ATOM      7  C   UNL     1      24.242   0.036  53.221  0.00  0.00    +0.129 C 
ATOM      8  C   UNL     1      25.343   0.223  52.473  0.00  0.00    -0.027 C 
BRANCH   7  10
ATOM      9  N   UNL     1      21.947   0.881  52.348  0.00  0.00    -0.190 NA
ATOM     10  C   UNL     1      22.971   0.505  52.737  0.00  0.00    +0.110 C 
ENDBRANCH   7  10
BRANCH   7  11
ATOM     11  C   UNL     1      24.258  -0.697  54.462  0.00  0.00    +0.110 C 
ATOM     12  N   UNL     1      24.271  -1.285  55.459  0.00  0.00    -0.190 NA
ENDBRANCH   7  11
ENDBRANCH   1   8
BRANCH   3  13
ATOM     13  O   UNL     1      28.700  -3.314  53.273  0.00  0.00    -0.503 OA
ATOM     14  H   UNL     1      28.227  -3.918  53.812  0.00  0.00    +0.000 HD
ENDBRANCH   3  13
BRANCH   4  15
ATOM     15  O   UNL     1      30.566  -1.444  54.023  0.00  0.00    -0.501 OA
ATOM     16  H   UNL     1      31.170  -0.849  54.421  0.00  0.00    +0.000 HD
ENDBRANCH   4  15
BRANCH   5  17
ATOM     17  O   UNL     1      29.810   1.377  54.050  0.00  0.00    -0.503 OA
ATOM     18  H   UNL     1      29.478   2.222  54.284  0.00  0.00    +0.000 HD
ENDBRANCH   5  17
TORSDOF 6
ENDMDL
MODEL 2
REMARK VINA RESULT:    -6.079      0.104      2.181
REMARK INTER + INTRA:          -7.764
REMARK INTER:                  -7.655
REMARK INTRA:                  -0.110
REMARK UNBOUND:                -0.086
REMARK  Name = 
REMARK  6 active torsions:
REMARK  status: ('A' for Active; 'I' for Inactive)
REMARK    1  A    between atoms: C_2  and  C_3
REMARK    2  A    between atoms: C_3  and  C_4
REMARK    3  A    between atoms: C_6  and  C_7
REMARK    4  A    between atoms: C_9  and  O_10
REMARK    5  A    between atoms: C_11  and  O_12
REMARK    6  A    between atoms: C_13  and  O_14
REMARK                            x       y       z     vdW  Elec       q    Type
REMARK                         _______ _______ _______ _____ _____    ______ ____
ROOT
ATOM      1  C   UNL     1      26.690  -0.259  52.913  0.00  0.00    -0.016 A 
ATOM      2  C   UNL     1      27.656   0.692  53.271  0.00  0.00    -0.009 A 
ATOM      3  C   UNL     1      28.950   0.291  53.630  0.00  0.00    +0.163 A 
ATOM      4  C   UNL     1      29.298  -1.067  53.617  0.00  0.00    +0.201 A 
ATOM      5  C   UNL     1      28.336  -2.029  53.226  0.00  0.00    +0.163 A 
ATOM      6  C   UNL     1      27.048  -1.613  52.871  0.00  0.00    -0.009 A 
ENDROOT
BRANCH   1   8
ATOM      7  C   UNL     1      24.214  -0.049  53.232  0.00  0.00    +0.129 C 
ATOM      8  C   UNL     1      25.324   0.136  52.497  0.00  0.00    -0.027 C 
BRANCH   7  10
ATOM      9  N   UNL     1      21.917   0.711  52.290  0.00  0.00    -0.190 NA
ATOM     10  C   UNL     1      22.941   0.372  52.710  0.00  0.00    +0.110 C 
ENDBRANCH   7  10
BRANCH   7  11
ATOM     11  C   UNL     1      24.224  -0.736  54.500  0.00  0.00    +0.110 C 
ATOM     12  N   UNL     1      24.233  -1.289  55.516  0.00  0.00    -0.190 NA
ENDBRANCH   7  11
ENDBRANCH   1   8
BRANCH   3  13
ATOM     13  O   UNL     1      29.901   1.242  53.998  0.00  0.00    -0.503 OA
ATOM     14  H   UNL     1      30.224   1.851  53.364  0.00  0.00    +0.000 HD
ENDBRANCH   3  13
BRANCH   4  15
ATOM     15  O   UNL     1      30.598  -1.414  53.993  0.00  0.00    -0.501 OA
ATOM     16  H   UNL     1      30.959  -2.237  53.725  0.00  0.00    +0.000 HD
ENDBRANCH   4  15
BRANCH   5  17
ATOM     17  O   UNL     1      28.615  -3.397  53.174  0.00  0.00    -0.503 OA
ATOM     18  H   UNL     1      29.328  -3.709  52.652  0.00  0.00    +0.000 HD
ENDBRANCH   5  17
TORSDOF 6
ENDMDL
MODEL 3
REMARK VINA RESULT:    -5.912      1.623      2.308
REMARK INTER + INTRA:          -7.553
REMARK INTER:                  -7.575
REMARK INTRA:                   0.022
REMARK UNBOUND:                -0.086
REMARK  Name = 
REMARK  6 active torsions:
REMARK  status: ('A' for Active; 'I' for Inactive)
REMARK    1  A    between atoms: C_2  and  C_3
REMARK    2  A    between atoms: C_3  and  C_4
REMARK    3  A    between atoms: C_6  and  C_7
REMARK    4  A    between atoms: C_9  and  O_10
REMARK    5  A    between atoms: C_11  and  O_12
REMARK    6  A    between atoms: C_13  and  O_14
REMARK                            x       y       z     vdW  Elec       q    Type
REMARK                         _______ _______ _______ _____ _____    ______ ____
ROOT
ATOM      1  C   UNL     1      25.676   0.208  53.544  0.00  0.00    -0.016 A 
ATOM      2  C   UNL     1      26.515  -0.899  53.351  0.00  0.00    -0.009 A 
ATOM      3  C   UNL     1      27.907  -0.744  53.353  0.00  0.00    +0.163 A 
ATOM      4  C   UNL     1      28.478   0.518  53.566  0.00  0.00    +0.201 A 
ATOM      5  C   UNL     1      27.637   1.634  53.792  0.00  0.00    +0.163 A 
ATOM      6  C   UNL     1      26.247   1.464  53.787  0.00  0.00    -0.009 A 
ENDROOT
BRANCH   1   8
ATOM      7  C   UNL     1      23.353   0.666  52.723  0.00  0.00    +0.129 C 
ATOM      8  C   UNL     1      24.200   0.071  53.579  0.00  0.00    -0.027 C 
BRANCH   7  10
ATOM      9  N   UNL     1      20.797   0.295  52.990  0.00  0.00    -0.190 NA
ATOM     10  C   UNL     1      21.937   0.460  52.871  0.00  0.00    +0.110 C 
ENDBRANCH   7  10
BRANCH   7  11
ATOM     11  C   UNL     1      23.794   1.583  51.701  0.00  0.00    +0.110 C 
ATOM     12  N   UNL     1      24.147   2.320  50.881  0.00  0.00    -0.190 NA
ENDBRANCH   7  11
ENDBRANCH   1   8
BRANCH   3  13
ATOM     13  O   UNL     1      28.734  -1.847  53.148  0.00  0.00    -0.503 OA
ATOM     14  H   UNL     1      29.585  -1.732  52.772  0.00  0.00    +0.000 HD
ENDBRANCH   3  13
BRANCH   4  15
ATOM     15  O   UNL     1      29.871   0.620  53.549  0.00  0.00    -0.501 OA
ATOM     16  H   UNL     1      30.288   1.403  53.851  0.00  0.00    +0.000 HD
ENDBRANCH   4  15
BRANCH   5  17
ATOM     17  O   UNL     1      28.133   2.918  54.028  0.00  0.00    -0.503 OA
ATOM     18  H   UNL     1      27.638   3.524  54.543  0.00  0.00    +0.000 HD
ENDBRANCH   5  17
TORSDOF 6
ENDMDL
MODEL 4
REMARK VINA RESULT:    -5.878      1.634      3.144
REMARK INTER + INTRA:          -7.509
REMARK INTER:                  -7.569
REMARK INTRA:                   0.060
REMARK UNBOUND:                -0.086
REMARK  Name = 
REMARK  6 active torsions:
REMARK  status: ('A' for Active; 'I' for Inactive)
REMARK    1  A    between atoms: C_2  and  C_3
REMARK    2  A    between atoms: C_3  and  C_4
REMARK    3  A    between atoms: C_6  and  C_7
REMARK    4  A    between atoms: C_9  and  O_10
REMARK    5  A    between atoms: C_11  and  O_12
REMARK    6  A    between atoms: C_13  and  O_14
REMARK                            x       y       z     vdW  Elec       q    Type
REMARK                         _______ _______ _______ _____ _____    ______ ____
ROOT
ATOM      1  C   UNL     1      25.674   0.256  53.636  0.00  0.00    -0.016 A 
ATOM      2  C   UNL     1      26.239   1.526  53.828  0.00  0.00    -0.009 A 
ATOM      3  C   UNL     1      27.630   1.687  53.860  0.00  0.00    +0.163 A 
ATOM      4  C   UNL     1      28.474   0.582  53.680  0.00  0.00    +0.201 A 
ATOM      5  C   UNL     1      27.910  -0.696  53.454  0.00  0.00    +0.163 A 
ATOM      6  C   UNL     1      26.518  -0.842  53.425  0.00  0.00    -0.009 A 
ENDROOT
BRANCH   1   8
ATOM      7  C   UNL     1      23.396   0.640  52.665  0.00  0.00    +0.129 C 
ATOM      8  C   UNL     1      24.207   0.059  53.565  0.00  0.00    -0.027 C 
BRANCH   7  10
ATOM      9  N   UNL     1      20.846   0.158  52.744  0.00  0.00    -0.190 NA
ATOM     10  C   UNL     1      21.983   0.374  52.709  0.00  0.00    +0.110 C 
ENDBRANCH   7  10
BRANCH   7  11
ATOM     11  C   UNL     1      23.868   1.599  51.696  0.00  0.00    +0.110 C 
ATOM     12  N   UNL     1      24.246   2.368  50.918  0.00  0.00    -0.190 NA
ENDBRANCH   7  11
ENDBRANCH   1   8
BRANCH   3  13
ATOM     13  O   UNL     1      28.184   2.949  54.065  0.00  0.00    -0.503 OA
ATOM     14  H   UNL     1      29.000   3.036  54.517  0.00  0.00    +0.000 HD
ENDBRANCH   3  13
BRANCH   4  15
ATOM     15  O   UNL     1      29.854   0.795  53.730  0.00  0.00    -0.501 OA
ATOM     16  H   UNL     1      30.189   1.656  53.889  0.00  0.00    +0.000 HD
ENDBRANCH   4  15
BRANCH   5  17
ATOM     17  O   UNL     1      28.687  -1.839  53.251  0.00  0.00    -0.503 OA
ATOM     18  H   UNL     1      29.343  -2.076  53.876  0.00  0.00    +0.000 HD
ENDBRANCH   5  17
TORSDOF 6
ENDMDL
MODEL 5
REMARK VINA RESULT:    -5.808      2.363      3.564
REMARK INTER + INTRA:          -7.422
REMARK INTER:                  -7.244
REMARK INTRA:                  -0.178
REMARK UNBOUND:                -0.086
REMARK  Name = 
REMARK  6 active torsions:
REMARK  status: ('A' for Active; 'I' for Inactive)
REMARK    1  A    between atoms: C_2  and  C_3
REMARK    2  A    between atoms: C_3  and  C_4
REMARK    3  A    between atoms: C_6  and  C_7
REMARK    4  A    between atoms: C_9  and  O_10
REMARK    5  A    between atoms: C_11  and  O_12
REMARK    6  A    between atoms: C_13  and  O_14
REMARK                            x       y       z     vdW  Elec       q    Type
REMARK                         _______ _______ _______ _____ _____    ______ ____
ROOT
ATOM      1  C   UNL     1      26.762   1.624  51.987  0.00  0.00    -0.016 A 
ATOM      2  C   UNL     1      27.608   2.309  52.872  0.00  0.00    -0.009 A 
ATOM      3  C   UNL     1      28.327   1.612  53.851  0.00  0.00    +0.163 A 
ATOM      4  C   UNL     1      28.223   0.217  53.945  0.00  0.00    +0.201 A 
ATOM      5  C   UNL     1      27.396  -0.483  53.035  0.00  0.00    +0.163 A 
ATOM      6  C   UNL     1      26.683   0.227  52.063  0.00  0.00    -0.009 A 
ENDROOT
BRANCH   1   8
ATOM      7  C   UNL     1      24.712   2.657  50.984  0.00  0.00    +0.129 C 
ATOM      8  C   UNL     1      26.013   2.329  50.920  0.00  0.00    -0.027 C 
BRANCH   7  10
ATOM      9  N   UNL     1      23.604   3.879  48.979  0.00  0.00    -0.190 NA
ATOM     10  C   UNL     1      24.098   3.334  49.873  0.00  0.00    +0.110 C 
ENDBRANCH   7  10
BRANCH   7  11
ATOM     11  C   UNL     1      23.866   2.281  52.091  0.00  0.00    +0.110 C 
ATOM     12  N   UNL     1      23.187   1.980  52.978  0.00  0.00    -0.190 NA
ENDBRANCH   7  11
ENDBRANCH   1   8
BRANCH   3  13
ATOM     13  O   UNL     1      29.156   2.302  54.735  0.00  0.00    -0.503 OA
ATOM     14  H   UNL     1      29.985   1.940  54.980  0.00  0.00    +0.000 HD
ENDBRANCH   3  13
BRANCH   4  15
ATOM     15  O   UNL     1      28.955  -0.429  54.945  0.00  0.00    -0.501 OA
ATOM     16  H   UNL     1      28.539  -1.066  55.492  0.00  0.00    +0.000 HD
ENDBRANCH   4  15
BRANCH   5  17
ATOM     17  O   UNL     1      27.256  -1.873  53.058  0.00  0.00    -0.503 OA
ATOM     18  H   UNL     1      27.589  -2.389  52.351  0.00  0.00    +0.000 HD
ENDBRANCH   5  17
TORSDOF 6
ENDMDL
MODEL 6
REMARK VINA RESULT:    -5.591      2.262      2.822
REMARK INTER + INTRA:          -7.148
REMARK INTER:                  -7.019
REMARK INTRA:                  -0.129
REMARK UNBOUND:                -0.086
REMARK  Name = 
REMARK  6 active torsions:
REMARK  status: ('A' for Active; 'I' for Inactive)
REMARK    1  A    between atoms: C_2  and  C_3
REMARK    2  A    between atoms: C_3  and  C_4
REMARK    3  A    between atoms: C_6  and  C_7
REMARK    4  A    between atoms: C_9  and  O_10
REMARK    5  A    between atoms: C_11  and  O_12
REMARK    6  A    between atoms: C_13  and  O_14
REMARK                            x       y       z     vdW  Elec       q    Type
REMARK                         _______ _______ _______ _____ _____    ______ ____
ROOT
ATOM      1  C   UNL     1      26.315   0.915  53.164  0.00  0.00    -0.016 A 
ATOM      2  C   UNL     1      26.261  -0.468  52.935  0.00  0.00    -0.009 A 
ATOM      3  C   UNL     1      27.417  -1.252  53.042  0.00  0.00    +0.163 A 
ATOM      4  C   UNL     1      28.639  -0.664  53.399  0.00  0.00    +0.201 A 
ATOM      5  C   UNL     1      28.694   0.725  53.662  0.00  0.00    +0.163 A 
ATOM      6  C   UNL     1      27.530   1.495  53.550  0.00  0.00    -0.009 A 
ENDROOT
BRANCH   1   8
ATOM      7  C   UNL     1      24.828   2.623  52.093  0.00  0.00    +0.129 C 
ATOM      8  C   UNL     1      25.104   1.765  53.089  0.00  0.00    -0.027 C 
BRANCH   7  10
ATOM      9  N   UNL     1      22.646   4.026  52.185  0.00  0.00    -0.190 NA
ATOM     10  C   UNL     1      23.619   3.400  52.143  0.00  0.00    +0.110 C 
ENDBRANCH   7  10
BRANCH   7  11
ATOM     11  C   UNL     1      25.738   2.869  51.002  0.00  0.00    +0.110 C 
ATOM     12  N   UNL     1      26.469   3.066  50.127  0.00  0.00    -0.190 NA
ENDBRANCH   7  11
ENDBRANCH   1   8
BRANCH   3  13
ATOM     13  O   UNL     1      27.359  -2.623  52.800  0.00  0.00    -0.503 OA
ATOM     14  H   UNL     1      27.416  -3.228  53.514  0.00  0.00    +0.000 HD
ENDBRANCH   3  13
BRANCH   4  15
ATOM     15  O   UNL     1      29.764  -1.489  53.484  0.00  0.00    -0.501 OA
ATOM     16  H   UNL     1      29.933  -2.121  52.813  0.00  0.00    +0.000 HD
ENDBRANCH   4  15
BRANCH   5  17
ATOM     17  O   UNL     1      29.870   1.377  54.038  0.00  0.00    -0.503 OA
ATOM     18  H   UNL     1      30.125   1.401  54.940  0.00  0.00    +0.000 HD
ENDBRANCH   5  17
TORSDOF 6
ENDMDL
MODEL 7
REMARK VINA RESULT:    -5.447      3.223      4.604
REMARK INTER + INTRA:          -6.965
REMARK INTER:                  -6.803
REMARK INTRA:                  -0.162
REMARK UNBOUND:                -0.086
REMARK  Name = 
REMARK  6 active torsions:
REMARK  status: ('A' for Active; 'I' for Inactive)
REMARK    1  A    between atoms: C_2  and  C_3
REMARK    2  A    between atoms: C_3  and  C_4
REMARK    3  A    between atoms: C_6  and  C_7
REMARK    4  A    between atoms: C_9  and  O_10
REMARK    5  A    between atoms: C_11  and  O_12
REMARK    6  A    between atoms: C_13  and  O_14
REMARK                            x       y       z     vdW  Elec       q    Type
REMARK                         _______ _______ _______ _____ _____    ______ ____
ROOT
ATOM      1  C   UNL     1      24.144   0.378  52.892  0.00  0.00    -0.016 A 
ATOM      2  C   UNL     1      25.456   0.363  53.388  0.00  0.00    -0.009 A 
ATOM      3  C   UNL     1      25.750  -0.275  54.600  0.00  0.00    +0.163 A 
ATOM      4  C   UNL     1      24.737  -0.923  55.321  0.00  0.00    +0.201 A 
ATOM      5  C   UNL     1      23.418  -0.939  54.810  0.00  0.00    +0.163 A 
ATOM      6  C   UNL     1      23.140  -0.296  53.598  0.00  0.00    -0.009 A 
ENDROOT
BRANCH   1   8
ATOM      7  C   UNL     1      23.727   2.343  51.394  0.00  0.00    +0.129 C 
ATOM      8  C   UNL     1      23.808   1.017  51.598  0.00  0.00    -0.027 C 
BRANCH   7  10
ATOM      9  N   UNL     1      23.104   3.236  49.037  0.00  0.00    -0.190 NA
ATOM     10  C   UNL     1      23.381   2.838  50.088  0.00  0.00    +0.110 C 
ENDBRANCH   7  10
BRANCH   7  11
ATOM     11  C   UNL     1      23.888   3.306  52.456  0.00  0.00    +0.110 C 
ATOM     12  N   UNL     1      24.018   4.078  53.307  0.00  0.00    -0.190 NA
ENDBRANCH   7  11
ENDBRANCH   1   8
BRANCH   3  13
ATOM     13  O   UNL     1      27.054  -0.275  55.094  0.00  0.00    -0.503 OA
ATOM     14  H   UNL     1      27.693  -0.855  54.729  0.00  0.00    +0.000 HD
ENDBRANCH   3  13
BRANCH   4  15
ATOM     15  O   UNL     1      25.082  -1.537  56.529  0.00  0.00    -0.501 OA
ATOM     16  H   UNL     1      25.634  -2.294  56.528  0.00  0.00    +0.000 HD
ENDBRANCH   4  15
BRANCH   5  17
ATOM     17  O   UNL     1      22.362  -1.577  55.464  0.00  0.00    -0.503 OA
ATOM     18  H   UNL     1      22.370  -1.659  56.397  0.00  0.00    +0.000 HD
ENDBRANCH   5  17
TORSDOF 6
ENDMDL
MODEL 8
REMARK VINA RESULT:    -5.312      4.162      5.683
REMARK INTER + INTRA:          -6.796
REMARK INTER:                  -6.799
REMARK INTRA:                   0.003
REMARK UNBOUND:                -0.086
REMARK  Name = 
REMARK  6 active torsions:
REMARK  status: ('A' for Active; 'I' for Inactive)
REMARK    1  A    between atoms: C_2  and  C_3
REMARK    2  A    between atoms: C_3  and  C_4
REMARK    3  A    between atoms: C_6  and  C_7
REMARK    4  A    between atoms: C_9  and  O_10
REMARK    5  A    between atoms: C_11  and  O_12
REMARK    6  A    between atoms: C_13  and  O_14
REMARK                            x       y       z     vdW  Elec       q    Type
REMARK                         _______ _______ _______ _____ _____    ______ ____
ROOT
ATOM      1  C   UNL     1      26.087   0.800  52.229  0.00  0.00    -0.016 A 
ATOM      2  C   UNL     1      24.757   0.829  52.674  0.00  0.00    -0.009 A 
ATOM      3  C   UNL     1      23.950   1.946  52.428  0.00  0.00    +0.163 A 
ATOM      4  C   UNL     1      24.458   3.043  51.719  0.00  0.00    +0.201 A 
ATOM      5  C   UNL     1      25.789   3.008  51.240  0.00  0.00    +0.163 A 
ATOM      6  C   UNL     1      26.584   1.884  51.493  0.00  0.00    -0.009 A 
ENDROOT
BRANCH   1   8
ATOM      7  C   UNL     1      28.084  -0.381  53.176  0.00  0.00    +0.129 C 
ATOM      8  C   UNL     1      26.956  -0.381  52.445  0.00  0.00    -0.027 C 
BRANCH   7  10
ATOM      9  N   UNL     1      29.459  -2.572  53.401  0.00  0.00    -0.190 NA
ATOM     10  C   UNL     1      28.846  -1.595  53.300  0.00  0.00    +0.110 C 
ENDBRANCH   7  10
BRANCH   7  11
ATOM     11  C   UNL     1      28.622   0.813  53.779  0.00  0.00    +0.110 C 
ATOM     12  N   UNL     1      29.054   1.772  54.263  0.00  0.00    -0.190 NA
ENDBRANCH   7  11
ENDBRANCH   1   8
BRANCH   3  13
ATOM     13  O   UNL     1      22.633   1.972  52.884  0.00  0.00    -0.503 OA
ATOM     14  H   UNL     1      22.038   2.622  52.565  0.00  0.00    +0.000 HD
ENDBRANCH   3  13
BRANCH   4  15
ATOM     15  O   UNL     1      23.614   4.137  51.509  0.00  0.00    -0.501 OA
ATOM     16  H   UNL     1      23.579   4.547  50.667  0.00  0.00    +0.000 HD
ENDBRANCH   4  15
BRANCH   5  17
ATOM     17  O   UNL     1      26.358   4.056  50.512  0.00  0.00    -0.503 OA
ATOM     18  H   UNL     1      25.813   4.618  49.997  0.00  0.00    +0.000 HD
ENDBRANCH   5  17
TORSDOF 6
ENDMDL
MODEL 9
REMARK VINA RESULT:    -5.100      4.481      6.180
REMARK INTER + INTRA:          -6.527
REMARK INTER:                  -6.311
REMARK INTRA:                  -0.216
REMARK UNBOUND:                -0.086
REMARK  Name = 
REMARK  6 active torsions:
REMARK  status: ('A' for Active; 'I' for Inactive)
REMARK    1  A    between atoms: C_2  and  C_3
REMARK    2  A    between atoms: C_3  and  C_4
REMARK    3  A    between atoms: C_6  and  C_7
REMARK    4  A    between atoms: C_9  and  O_10
REMARK    5  A    between atoms: C_11  and  O_12
REMARK    6  A    between atoms: C_13  and  O_14
REMARK                            x       y       z     vdW  Elec       q    Type
REMARK                         _______ _______ _______ _____ _____    ______ ____
ROOT
ATOM      1  C   UNL     1      24.451   1.994  52.045  0.00  0.00    -0.016 A 
ATOM      2  C   UNL     1      23.400   1.944  51.117  0.00  0.00    -0.009 A 
ATOM      3  C   UNL     1      22.470   2.988  51.040  0.00  0.00    +0.163 A 
ATOM      4  C   UNL     1      22.591   4.105  51.878  0.00  0.00    +0.201 A 
ATOM      5  C   UNL     1      23.667   4.176  52.794  0.00  0.00    +0.163 A 
ATOM      6  C   UNL     1      24.588   3.125  52.860  0.00  0.00    -0.009 A 
ENDROOT
BRANCH   1   8
ATOM      7  C   UNL     1      25.319  -0.229  52.809  0.00  0.00    +0.129 C 
ATOM      8  C   UNL     1      25.469   0.920  52.128  0.00  0.00    -0.027 C 
BRANCH   7  10
ATOM      9  N   UNL     1      27.252  -1.963  52.828  0.00  0.00    -0.190 NA
ATOM     10  C   UNL     1      26.390  -1.190  52.820  0.00  0.00    +0.110 C 
ENDBRANCH   7  10
BRANCH   7  11
ATOM     11  C   UNL     1      24.156  -0.513  53.613  0.00  0.00    +0.110 C 
ATOM     12  N   UNL     1      23.221  -0.739  54.257  0.00  0.00    -0.190 NA
ENDBRANCH   7  11
ENDBRANCH   1   8
BRANCH   3  13
ATOM     13  O   UNL     1      21.421   2.925  50.125  0.00  0.00    -0.503 OA
ATOM     14  H   UNL     1      21.221   3.667  49.589  0.00  0.00    +0.000 HD
ENDBRANCH   3  13
BRANCH   4  15
ATOM     15  O   UNL     1      21.632   5.116  51.767  0.00  0.00    -0.501 OA
ATOM     16  H   UNL     1      21.737   5.794  51.129  0.00  0.00    +0.000 HD
ENDBRANCH   4  15
BRANCH   5  17
ATOM     17  O   UNL     1      23.861   5.264  53.649  0.00  0.00    -0.503 OA
ATOM     18  H   UNL     1      24.729   5.563  53.837  0.00  0.00    +0.000 HD
ENDBRANCH   5  17
TORSDOF 6
ENDMDL
