MODEL 1
REMARK VINA RESULT:    -8.085      0.000      0.000
REMARK INTER + INTRA:         -12.396
REMARK INTER:                 -11.394
REMARK INTRA:                  -1.002
REMARK UNBOUND:                -1.002
REMARK  Name = 
REMARK  8 active torsions:
REMARK  status: ('A' for Active; 'I' for Inactive)
REMARK    1  A    between atoms: C_1  and  O_2
REMARK    2  A    between atoms: O_2  and  C_3
REMARK    3  A    between atoms: C_6  and  N_7
REMARK    4  A    between atoms: N_7  and  C_8
REMARK    5  A    between atoms: C_21  and  O_22
REMARK    6  A    between atoms: O_22  and  C_23
REMARK    7  A    between atoms: C_23  and  C_24
REMARK    8  A    between atoms: C_24  and  C_25
REMARK                            x       y       z     vdW  Elec       q    Type
REMARK                         _______ _______ _______ _____ _____    ______ ____
ROOT
ATOM      1  C   UNL     1      21.867   0.431  53.566  0.00  0.00    +0.162 A 
ATOM      2  C   UNL     1      20.953   1.420  53.153  0.00  0.00    -0.004 A 
ATOM      3  C   UNL     1      21.312   2.359  52.168  0.00  0.00    +0.044 A 
ATOM      4  C   UNL     1      20.439   3.374  51.719  0.00  0.00    +0.134 A 
ATOM      5  N   UNL     1      20.879   4.264  50.787  0.00  0.00    -0.220 NA
ATOM      6  C   UNL     1      22.135   4.201  50.279  0.00  0.00    +0.119 A 
ATOM      7  N   UNL     1      22.988   3.230  50.689  0.00  0.00    -0.235 NA
ATOM      8  C   UNL     1      22.610   2.312  51.615  0.00  0.00    +0.080 A 
ATOM      9  C   UNL     1      23.514   1.328  52.022  0.00  0.00    +0.010 A 
ATOM     10  C   UNL     1      23.150   0.384  53.000  0.00  0.00    +0.164 A 
ENDROOT
BRANCH   1  12
ATOM     11  C   UNL     1      20.876  -1.752  54.291  0.00  0.00    +0.079 C 
ATOM     12  O   UNL     1      21.543  -0.521  54.548  0.00  0.00    -0.491 OA
ENDBRANCH   1  12
BRANCH   4  13
ATOM     13  N   UNL     1      19.078   3.456  52.178  0.00  0.00    -0.297 N 
ATOM     14  H   UNL     1      18.897   3.917  53.030  0.00  0.00    +0.000 HD
BRANCH  13  15
ATOM     15  C   UNL     1      17.969   2.898  51.452  0.00  0.00    +0.068 A 
ATOM     16  C   UNL     1      18.160   1.856  50.524  0.00  0.00    -0.037 A 
ATOM     17  C   UNL     1      17.076   1.335  49.812  0.00  0.00    -0.046 A 
ATOM     18  C   UNL     1      15.793   1.853  50.011  0.00  0.00    +0.021 A 
ATOM     19 BR   UNL     1      14.313   1.138  49.038  0.00  0.00    -0.050 Br
ATOM     20  C   UNL     1      15.595   2.898  50.917  0.00  0.00    -0.011 A 
ATOM     21  C   UNL     1      16.678   3.425  51.631  0.00  0.00    +0.145 A 
ATOM     22  F   UNL     1      16.463   4.438  52.508  0.00  0.00    -0.204 F 
ENDBRANCH  13  15
ENDBRANCH   4  13
BRANCH  10  23
ATOM     23  O   UNL     1      24.030  -0.617  53.445  0.00  0.00    -0.488 OA
BRANCH  23  24
ATOM     24  C   UNL     1      25.288  -0.398  54.084  0.00  0.00    +0.090 C 
BRANCH  24  25
ATOM     25  C   UNL     1      26.444  -1.055  53.310  0.00  0.00    -0.016 C 
BRANCH  25  26
ATOM     26  C   UNL     1      27.656  -0.115  53.098  0.00  0.00    -0.036 C 
ATOM     27  C   UNL     1      27.220   1.200  52.400  0.00  0.00    -0.037 C 
ATOM     28  C   UNL     1      26.993   2.324  53.420  0.00  0.00    -0.004 C 
ATOM     29  N   UNL     1      28.222   2.654  54.168  0.00  0.00    -0.316 N 
ATOM     30  C   UNL     1      29.141   1.515  54.370  0.00  0.00    -0.004 C 
ATOM     31  C   UNL     1      28.404   0.171  54.425  0.00  0.00    -0.037 C 
ATOM     32  H   UNL     1      27.951   3.011  55.085  0.00  0.00    +0.000 HD
ATOM     33  H   UNL     1      28.729   3.339  53.607  0.00  0.00    +0.000 HD
ENDBRANCH  25  26
ENDBRANCH  24  25
ENDBRANCH  23  24
ENDBRANCH  10  23
TORSDOF 7
ENDMDL
MODEL 2
REMARK VINA RESULT:    -8.027      1.866      2.051
REMARK INTER + INTRA:         -12.314
REMARK INTER:                 -11.097
REMARK INTRA:                  -1.217
REMARK UNBOUND:                -1.002
REMARK  Name = 
REMARK  8 active torsions:
REMARK  status: ('A' for Active; 'I' for Inactive)
REMARK    1  A    between atoms: C_1  and  O_2
REMARK    2  A    between atoms: O_2  and  C_3
REMARK    3  A    between atoms: C_6  and  N_7
REMARK    4  A    between atoms: N_7  and  C_8
REMARK    5  A    between atoms: C_21  and  O_22
REMARK    6  A    between atoms: O_22  and  C_23
REMARK    7  A    between atoms: C_23  and  C_24
REMARK    8  A    between atoms: C_24  and  C_25
REMARK                            x       y       z     vdW  Elec       q    Type
REMARK                         _______ _______ _______ _____ _____    ______ ____
ROOT
ATOM      1  C   UNL     1      22.224   0.264  53.046  0.00  0.00    +0.162 A 
ATOM      2  C   UNL     1      21.234   0.426  52.057  0.00  0.00    -0.004 A 
ATOM      3  C   UNL     1      21.530   1.092  50.852  0.00  0.00    +0.044 A 
ATOM      4  C   UNL     1      20.577   1.288  49.828  0.00  0.00    +0.134 A 
ATOM      5  N   UNL     1      20.936   1.975  48.709  0.00  0.00    -0.220 NA
ATOM      6  C   UNL     1      22.187   2.478  48.552  0.00  0.00    +0.119 A 
ATOM      7  N   UNL     1      23.120   2.294  49.518  0.00  0.00    -0.235 NA
ATOM      8  C   UNL     1      22.825   1.617  50.657  0.00  0.00    +0.080 A 
ATOM      9  C   UNL     1      23.806   1.451  51.638  0.00  0.00    +0.010 A 
ATOM     10  C   UNL     1      23.512   0.776  52.836  0.00  0.00    +0.164 A 
ENDROOT
BRANCH   1  12
ATOM     11  C   UNL     1      21.586  -1.763  54.372  0.00  0.00    +0.079 C 
ATOM     12  O   UNL     1      21.964  -0.395  54.259  0.00  0.00    -0.491 OA
ENDBRANCH   1  12
BRANCH   4  13
ATOM     13  N   UNL     1      19.253   0.730  49.912  0.00  0.00    -0.297 N 
ATOM     14  H   UNL     1      19.088  -0.149  49.501  0.00  0.00    +0.000 HD
BRANCH  13  15
ATOM     15  C   UNL     1      18.160   1.396  50.569  0.00  0.00    +0.068 A 
ATOM     16  C   UNL     1      18.223   2.771  50.868  0.00  0.00    -0.037 A 
ATOM     17  C   UNL     1      17.162   3.402  51.522  0.00  0.00    -0.046 A 
ATOM     18  C   UNL     1      16.032   2.668  51.893  0.00  0.00    +0.021 A 
ATOM     19 BR   UNL     1      14.581   3.533  52.786  0.00  0.00    -0.050 Br
ATOM     20  C   UNL     1      15.967   1.299  51.617  0.00  0.00    -0.011 A 
ATOM     21  C   UNL     1      17.028   0.663  50.963  0.00  0.00    +0.145 A 
ATOM     22  F   UNL     1      16.943  -0.666  50.702  0.00  0.00    -0.204 F 
ENDBRANCH  13  15
ENDBRANCH   4  13
BRANCH  10  23
ATOM     23  O   UNL     1      24.467   0.595  53.851  0.00  0.00    -0.488 OA
BRANCH  23  24
ATOM     24  C   UNL     1      25.265  -0.572  54.047  0.00  0.00    +0.090 C 
BRANCH  24  25
ATOM     25  C   UNL     1      26.191  -0.839  52.848  0.00  0.00    -0.016 C 
BRANCH  25  26
ATOM     26  C   UNL     1      27.542  -0.087  52.932  0.00  0.00    -0.036 C 
ATOM     27  C   UNL     1      27.462   1.277  52.199  0.00  0.00    -0.037 C 
ATOM     28  C   UNL     1      27.180   2.423  53.179  0.00  0.00    -0.004 C 
ATOM     29  N   UNL     1      28.249   2.570  54.186  0.00  0.00    -0.316 N 
ATOM     30  C   UNL     1      28.929   1.309  54.547  0.00  0.00    -0.004 C 
ATOM     31  C   UNL     1      28.014   0.088  54.399  0.00  0.00    -0.037 C 
ATOM     32  H   UNL     1      27.837   2.964  55.033  0.00  0.00    +0.000 HD
ATOM     33  H   UNL     1      28.959   3.173  53.770  0.00  0.00    +0.000 HD
ENDBRANCH  25  26
ENDBRANCH  24  25
ENDBRANCH  23  24
ENDBRANCH  10  23
TORSDOF 7
ENDMDL
MODEL 3
REMARK VINA RESULT:    -8.025      4.569      8.020
REMARK INTER + INTRA:         -12.311
REMARK INTER:                 -10.741
REMARK INTRA:                  -1.570
REMARK UNBOUND:                -1.002
REMARK  Name = 
REMARK  8 active torsions:
REMARK  status: ('A' for Active; 'I' for Inactive)
REMARK    1  A    between atoms: C_1  and  O_2
REMARK    2  A    between atoms: O_2  and  C_3
REMARK    3  A    between atoms: C_6  and  N_7
REMARK    4  A    between atoms: N_7  and  C_8
REMARK    5  A    between atoms: C_21  and  O_22
REMARK    6  A    between atoms: O_22  and  C_23
REMARK    7  A    between atoms: C_23  and  C_24
REMARK    8  A    between atoms: C_24  and  C_25
REMARK                            x       y       z     vdW  Elec       q    Type
REMARK                         _______ _______ _______ _____ _____    ______ ____
ROOT
ATOM      1  C   UNL     1      21.883   2.126  50.380  0.00  0.00    +0.162 A 
ATOM      2  C   UNL     1      22.608   1.224  51.183  0.00  0.00    -0.004 A 
ATOM      3  C   UNL     1      22.069   0.750  52.393  0.00  0.00    +0.044 A 
ATOM      4  C   UNL     1      22.752  -0.152  53.239  0.00  0.00    +0.134 A 
ATOM      5  N   UNL     1      22.173  -0.532  54.411  0.00  0.00    -0.220 NA
ATOM      6  C   UNL     1      20.956  -0.068  54.787  0.00  0.00    +0.119 A 
ATOM      7  N   UNL     1      20.277   0.791  53.988  0.00  0.00    -0.235 NA
ATOM      8  C   UNL     1      20.800   1.209  52.806  0.00  0.00    +0.080 A 
ATOM      9  C   UNL     1      20.080   2.100  52.007  0.00  0.00    +0.010 A 
ATOM     10  C   UNL     1      20.616   2.565  50.793  0.00  0.00    +0.164 A 
ENDROOT
BRANCH   1  12
ATOM     11  C   UNL     1      22.366   1.912  47.932  0.00  0.00    +0.079 C 
ATOM     12  O   UNL     1      22.391   2.620  49.167  0.00  0.00    -0.491 OA
ENDBRANCH   1  12
BRANCH   4  13
ATOM     13  N   UNL     1      24.020  -0.723  52.866  0.00  0.00    -0.297 N 
ATOM     14  H   UNL     1      24.023  -1.569  52.364  0.00  0.00    +0.000 HD
BRANCH  13  15
ATOM     15  C   UNL     1      25.282  -0.114  53.193  0.00  0.00    +0.068 A 
ATOM     16  C   UNL     1      26.013   0.602  52.227  0.00  0.00    -0.037 A 
ATOM     17  C   UNL     1      27.247   1.173  52.552  0.00  0.00    -0.046 A 
ATOM     18  C   UNL     1      27.767   1.028  53.841  0.00  0.00    +0.021 A 
ATOM     19 BR   UNL     1      29.452   1.810  54.285  0.00  0.00    -0.050 Br
ATOM     20  C   UNL     1      27.057   0.304  54.803  0.00  0.00    -0.011 A 
ATOM     21  C   UNL     1      25.822  -0.272  54.481  0.00  0.00    +0.145 A 
ATOM     22  F   UNL     1      25.148  -0.967  55.431  0.00  0.00    -0.204 F 
ENDBRANCH  13  15
ENDBRANCH   4  13
BRANCH  10  23
ATOM     23  O   UNL     1      19.929   3.468  49.964  0.00  0.00    -0.488 OA
BRANCH  23  24
ATOM     24  C   UNL     1      19.737   4.859  50.224  0.00  0.00    +0.090 C 
BRANCH  24  25
ATOM     25  C   UNL     1      20.872   5.714  49.633  0.00  0.00    -0.016 C 
BRANCH  25  26
ATOM     26  C   UNL     1      21.646   6.530  50.697  0.00  0.00    -0.036 C 
ATOM     27  C   UNL     1      22.297   5.592  51.748  0.00  0.00    -0.037 C 
ATOM     28  C   UNL     1      23.769   5.318  51.416  0.00  0.00    -0.004 C 
ATOM     29  N   UNL     1      24.580   6.551  51.421  0.00  0.00    -0.316 N 
ATOM     30  C   UNL     1      23.846   7.770  51.021  0.00  0.00    -0.004 C 
ATOM     31  C   UNL     1      22.697   7.469  50.050  0.00  0.00    -0.037 C 
ATOM     32  H   UNL     1      25.359   6.423  50.775  0.00  0.00    +0.000 HD
ATOM     33  H   UNL     1      24.880   6.698  52.385  0.00  0.00    +0.000 HD
ENDBRANCH  25  26
ENDBRANCH  24  25
ENDBRANCH  23  24
ENDBRANCH  10  23
TORSDOF 7
ENDMDL
MODEL 4
REMARK VINA RESULT:    -7.900      2.639      3.769
REMARK INTER + INTRA:         -12.135
REMARK INTER:                 -10.994
REMARK INTRA:                  -1.141
REMARK UNBOUND:                -1.002
REMARK  Name = 
REMARK  8 active torsions:
REMARK  status: ('A' for Active; 'I' for Inactive)
REMARK    1  A    between atoms: C_1  and  O_2
REMARK    2  A    between atoms: O_2  and  C_3
REMARK    3  A    between atoms: C_6  and  N_7
REMARK    4  A    between atoms: N_7  and  C_8
REMARK    5  A    between atoms: C_21  and  O_22
REMARK    6  A    between atoms: O_22  and  C_23
REMARK    7  A    between atoms: C_23  and  C_24
REMARK    8  A    between atoms: C_24  and  C_25
REMARK                            x       y       z     vdW  Elec       q    Type
REMARK                         _______ _______ _______ _____ _____    ______ ____
ROOT
ATOM      1  C   UNL     1      23.063   1.777  50.925  0.00  0.00    +0.162 A 
ATOM      2  C   UNL     1      21.713   1.375  50.928  0.00  0.00    -0.004 A 
ATOM      3  C   UNL     1      21.209   0.568  51.965  0.00  0.00    +0.044 A 
ATOM      4  C   UNL     1      19.867   0.132  52.017  0.00  0.00    +0.134 A 
ATOM      5  N   UNL     1      19.470  -0.677  53.038  0.00  0.00    -0.220 NA
ATOM      6  C   UNL     1      20.332  -1.076  54.006  0.00  0.00    +0.119 A 
ATOM      7  N   UNL     1      21.623  -0.663  53.982  0.00  0.00    -0.235 NA
ATOM      8  C   UNL     1      22.080   0.145  52.991  0.00  0.00    +0.080 A 
ATOM      9  C   UNL     1      23.418   0.547  52.990  0.00  0.00    +0.010 A 
ATOM     10  C   UNL     1      23.917   1.363  51.958  0.00  0.00    +0.164 A 
ENDROOT
BRANCH   1  12
ATOM     11  C   UNL     1      23.058   2.692  48.594  0.00  0.00    +0.079 C 
ATOM     12  O   UNL     1      23.600   2.581  49.906  0.00  0.00    -0.491 OA
ENDBRANCH   1  12
BRANCH   4  13
ATOM     13  N   UNL     1      18.893   0.569  51.050  0.00  0.00    -0.297 N 
ATOM     14  H   UNL     1      19.026   0.320  50.107  0.00  0.00    +0.000 HD
BRANCH  13  15
ATOM     15  C   UNL     1      17.737   1.350  51.398  0.00  0.00    +0.068 A 
ATOM     16  C   UNL     1      17.805   2.755  51.465  0.00  0.00    -0.037 A 
ATOM     17  C   UNL     1      16.679   3.502  51.822  0.00  0.00    -0.046 A 
ATOM     18  C   UNL     1      15.477   2.856  52.123  0.00  0.00    +0.021 A 
ATOM     19 BR   UNL     1      13.938   3.878  52.608  0.00  0.00    -0.050 Br
ATOM     20  C   UNL     1      15.403   1.461  52.076  0.00  0.00    -0.011 A 
ATOM     21  C   UNL     1      16.529   0.708  51.722  0.00  0.00    +0.145 A 
ATOM     22  F   UNL     1      16.435  -0.644  51.679  0.00  0.00    -0.204 F 
ENDBRANCH  13  15
ENDBRANCH   4  13
BRANCH  10  23
ATOM     23  O   UNL     1      25.258   1.783  51.913  0.00  0.00    -0.488 OA
BRANCH  23  24
ATOM     24  C   UNL     1      26.162   1.808  53.017  0.00  0.00    +0.090 C 
BRANCH  24  25
ATOM     25  C   UNL     1      27.505   1.142  52.671  0.00  0.00    -0.016 C 
BRANCH  25  26
ATOM     26  C   UNL     1      27.829  -0.087  53.555  0.00  0.00    -0.036 C 
ATOM     27  C   UNL     1      26.713  -1.159  53.443  0.00  0.00    -0.037 C 
ATOM     28  C   UNL     1      27.084  -2.249  52.429  0.00  0.00    -0.004 C 
ATOM     29  N   UNL     1      28.306  -2.980  52.820  0.00  0.00    -0.316 N 
ATOM     30  C   UNL     1      29.285  -2.175  53.580  0.00  0.00    -0.004 C 
ATOM     31  C   UNL     1      29.221  -0.685  53.223  0.00  0.00    -0.037 C 
ATOM     32  H   UNL     1      28.760  -3.317  51.971  0.00  0.00    +0.000 HD
ATOM     33  H   UNL     1      28.007  -3.733  53.439  0.00  0.00    +0.000 HD
ENDBRANCH  25  26
ENDBRANCH  24  25
ENDBRANCH  23  24
ENDBRANCH  10  23
TORSDOF 7
ENDMDL
MODEL 5
REMARK VINA RESULT:    -7.887      4.273      9.062
REMARK INTER + INTRA:         -12.116
REMARK INTER:                 -11.130
REMARK INTRA:                  -0.986
REMARK UNBOUND:                -1.002
REMARK  Name = 
REMARK  8 active torsions:
REMARK  status: ('A' for Active; 'I' for Inactive)
REMARK    1  A    between atoms: C_1  and  O_2
REMARK    2  A    between atoms: O_2  and  C_3
REMARK    3  A    between atoms: C_6  and  N_7
REMARK    4  A    between atoms: N_7  and  C_8
REMARK    5  A    between atoms: C_21  and  O_22
REMARK    6  A    between atoms: O_22  and  C_23
REMARK    7  A    between atoms: C_23  and  C_24
REMARK    8  A    between atoms: C_24  and  C_25
REMARK                            x       y       z     vdW  Elec       q    Type
REMARK                         _______ _______ _______ _____ _____    ______ ____
ROOT
ATOM      1  C   UNL     1      21.839   1.118  52.902  0.00  0.00    +0.162 A 
ATOM      2  C   UNL     1      23.182   1.540  52.888  0.00  0.00    -0.004 A 
ATOM      3  C   UNL     1      23.715   2.196  51.762  0.00  0.00    +0.044 A 
ATOM      4  C   UNL     1      25.054   2.637  51.691  0.00  0.00    +0.134 A 
ATOM      5  N   UNL     1      25.499   3.230  50.549  0.00  0.00    -0.220 NA
ATOM      6  C   UNL     1      24.688   3.408  49.477  0.00  0.00    +0.119 A 
ATOM      7  N   UNL     1      23.396   3.001  49.525  0.00  0.00    -0.235 NA
ATOM      8  C   UNL     1      22.891   2.403  50.635  0.00  0.00    +0.080 A 
ATOM      9  C   UNL     1      21.558   1.987  50.651  0.00  0.00    +0.010 A 
ATOM     10  C   UNL     1      21.024   1.342  51.782  0.00  0.00    +0.164 A 
ENDROOT
BRANCH   1  12
ATOM     11  C   UNL     1      21.787  -0.736  54.585  0.00  0.00    +0.079 C 
ATOM     12  O   UNL     1      21.275   0.461  54.008  0.00  0.00    -0.491 OA
ENDBRANCH   1  12
BRANCH   4  13
ATOM     13  N   UNL     1      25.946   2.527  52.816  0.00  0.00    -0.297 N 
ATOM     14  H   UNL     1      25.920   3.230  53.505  0.00  0.00    +0.000 HD
BRANCH  13  15
ATOM     15  C   UNL     1      26.872   1.439  52.981  0.00  0.00    +0.068 A 
ATOM     16  C   UNL     1      26.498   0.116  52.679  0.00  0.00    -0.037 A 
ATOM     17  C   UNL     1      27.402  -0.934  52.861  0.00  0.00    -0.046 A 
ATOM     18  C   UNL     1      28.685  -0.677  53.354  0.00  0.00    +0.021 A 
ATOM     19 BR   UNL     1      29.920  -2.113  53.600  0.00  0.00    -0.050 Br
ATOM     20  C   UNL     1      29.060   0.632  53.672  0.00  0.00    -0.011 A 
ATOM     21  C   UNL     1      28.158   1.686  53.494  0.00  0.00    +0.145 A 
ATOM     22  F   UNL     1      28.544   2.949  53.807  0.00  0.00    -0.204 F 
ENDBRANCH  13  15
ENDBRANCH   4  13
BRANCH  10  23
ATOM     23  O   UNL     1      19.692   0.900  51.837  0.00  0.00    -0.488 OA
BRANCH  23  24
ATOM     24  C   UNL     1      18.562   1.586  51.297  0.00  0.00    +0.090 C 
BRANCH  24  25
ATOM     25  C   UNL     1      17.866   0.763  50.198  0.00  0.00    -0.016 C 
BRANCH  25  26
ATOM     26  C   UNL     1      16.446   0.287  50.591  0.00  0.00    -0.036 C 
ATOM     27  C   UNL     1      16.509  -1.038  51.395  0.00  0.00    -0.037 C 
ATOM     28  C   UNL     1      16.442  -0.778  52.906  0.00  0.00    -0.004 C 
ATOM     29  N   UNL     1      15.179  -0.126  53.303  0.00  0.00    -0.316 N 
ATOM     30  C   UNL     1      14.597   0.762  52.275  0.00  0.00    -0.004 C 
ATOM     31  C   UNL     1      15.665   1.381  51.364  0.00  0.00    -0.037 C 
ATOM     32  H   UNL     1      15.357   0.430  54.140  0.00  0.00    +0.000 HD
ATOM     33  H   UNL     1      14.502  -0.873  53.456  0.00  0.00    +0.000 HD
ENDBRANCH  25  26
ENDBRANCH  24  25
ENDBRANCH  23  24
ENDBRANCH  10  23
TORSDOF 7
ENDMDL
MODEL 6
REMARK VINA RESULT:    -7.875      4.453      9.636
REMARK INTER + INTRA:         -12.100
REMARK INTER:                 -11.293
REMARK INTRA:                  -0.807
REMARK UNBOUND:                -1.002
REMARK  Name = 
REMARK  8 active torsions:
REMARK  status: ('A' for Active; 'I' for Inactive)
REMARK    1  A    between atoms: C_1  and  O_2
REMARK    2  A    between atoms: O_2  and  C_3
REMARK    3  A    between atoms: C_6  and  N_7
REMARK    4  A    between atoms: N_7  and  C_8
REMARK    5  A    between atoms: C_21  and  O_22
REMARK    6  A    between atoms: O_22  and  C_23
REMARK    7  A    between atoms: C_23  and  C_24
REMARK    8  A    between atoms: C_24  and  C_25
REMARK                            x       y       z     vdW  Elec       q    Type
REMARK                         _______ _______ _______ _____ _____    ______ ____
ROOT
ATOM      1  C   UNL     1      19.986   1.188  50.957  0.00  0.00    +0.162 A 
ATOM      2  C   UNL     1      21.289   1.146  51.488  0.00  0.00    -0.004 A 
ATOM      3  C   UNL     1      21.583   0.332  52.598  0.00  0.00    +0.044 A 
ATOM      4  C   UNL     1      22.870   0.254  53.175  0.00  0.00    +0.134 A 
ATOM      5  N   UNL     1      23.060  -0.532  54.271  0.00  0.00    -0.220 NA
ATOM      6  C   UNL     1      22.044  -1.242  54.823  0.00  0.00    +0.119 A 
ATOM      7  N   UNL     1      20.803  -1.189  54.281  0.00  0.00    -0.235 NA
ATOM      8  C   UNL     1      20.549  -0.425  53.188  0.00  0.00    +0.080 A 
ATOM      9  C   UNL     1      19.257  -0.385  52.657  0.00  0.00    +0.010 A 
ATOM     10  C   UNL     1      18.967   0.421  51.541  0.00  0.00    +0.164 A 
ENDROOT
BRANCH   1  12
ATOM     11  C   UNL     1      19.934   3.383  49.751  0.00  0.00    +0.079 C 
ATOM     12  O   UNL     1      19.657   1.990  49.851  0.00  0.00    -0.491 OA
ENDBRANCH   1  12
BRANCH   4  13
ATOM     13  N   UNL     1      23.998   0.938  52.600  0.00  0.00    -0.297 N 
ATOM     14  H   UNL     1      23.828   1.703  52.004  0.00  0.00    +0.000 HD
BRANCH  13  15
ATOM     15  C   UNL     1      25.361   0.558  52.856  0.00  0.00    +0.068 A 
ATOM     16  C   UNL     1      25.875  -0.664  52.382  0.00  0.00    -0.037 A 
ATOM     17  C   UNL     1      27.196  -1.030  52.653  0.00  0.00    -0.046 A 
ATOM     18  C   UNL     1      28.016  -0.186  53.407  0.00  0.00    +0.021 A 
ATOM     19 BR   UNL     1      29.822  -0.686  53.775  0.00  0.00    -0.050 Br
ATOM     20  C   UNL     1      27.510   1.022  53.897  0.00  0.00    -0.011 A 
ATOM     21  C   UNL     1      26.187   1.392  53.630  0.00  0.00    +0.145 A 
ATOM     22  F   UNL     1      25.718   2.570  54.113  0.00  0.00    -0.204 F 
ENDBRANCH  13  15
ENDBRANCH   4  13
BRANCH  10  23
ATOM     23  O   UNL     1      17.681   0.497  50.981  0.00  0.00    -0.488 OA
BRANCH  23  24
ATOM     24  C   UNL     1      16.528   1.055  51.611  0.00  0.00    +0.090 C 
BRANCH  24  25
ATOM     25  C   UNL     1      16.607   2.589  51.692  0.00  0.00    -0.016 C 
BRANCH  25  26
ATOM     26  C   UNL     1      15.225   3.271  51.845  0.00  0.00    -0.036 C 
ATOM     27  C   UNL     1      14.085   2.220  51.824  0.00  0.00    -0.037 C 
ATOM     28  C   UNL     1      13.647   1.840  53.244  0.00  0.00    -0.004 C 
ATOM     29  N   UNL     1      13.114   2.997  53.990  0.00  0.00    -0.316 N 
ATOM     30  C   UNL     1      13.713   4.296  53.617  0.00  0.00    -0.004 C 
ATOM     31  C   UNL     1      15.156   4.154  53.118  0.00  0.00    -0.037 C 
ATOM     32  H   UNL     1      13.284   2.842  54.984  0.00  0.00    +0.000 HD
ATOM     33  H   UNL     1      12.122   3.059  53.759  0.00  0.00    +0.000 HD
ENDBRANCH  25  26
ENDBRANCH  24  25
ENDBRANCH  23  24
ENDBRANCH  10  23
TORSDOF 7
ENDMDL
MODEL 7
REMARK VINA RESULT:    -7.798      6.579      9.379
REMARK INTER + INTRA:         -11.991
REMARK INTER:                 -11.143
REMARK INTRA:                  -0.849
REMARK UNBOUND:                -1.002
REMARK  Name = 
REMARK  8 active torsions:
REMARK  status: ('A' for Active; 'I' for Inactive)
REMARK    1  A    between atoms: C_1  and  O_2
REMARK    2  A    between atoms: O_2  and  C_3
REMARK    3  A    between atoms: C_6  and  N_7
REMARK    4  A    between atoms: N_7  and  C_8
REMARK    5  A    between atoms: C_21  and  O_22
REMARK    6  A    between atoms: O_22  and  C_23
REMARK    7  A    between atoms: C_23  and  C_24
REMARK    8  A    between atoms: C_24  and  C_25
REMARK                            x       y       z     vdW  Elec       q    Type
REMARK                         _______ _______ _______ _____ _____    ______ ____
ROOT
ATOM      1  C   UNL     1      25.279   3.321  50.260  0.00  0.00    +0.162 A 
ATOM      2  C   UNL     1      26.113   4.383  49.861  0.00  0.00    -0.004 A 
ATOM      3  C   UNL     1      25.597   5.455  49.109  0.00  0.00    +0.044 A 
ATOM      4  C   UNL     1      26.387   6.544  48.679  0.00  0.00    +0.134 A 
ATOM      5  N   UNL     1      25.815   7.522  47.924  0.00  0.00    -0.220 NA
ATOM      6  C   UNL     1      24.505   7.477  47.573  0.00  0.00    +0.119 A 
ATOM      7  N   UNL     1      23.725   6.446  47.982  0.00  0.00    -0.235 NA
ATOM      8  C   UNL     1      24.236   5.440  48.738  0.00  0.00    +0.080 A 
ATOM      9  C   UNL     1      23.408   4.387  49.137  0.00  0.00    +0.010 A 
ATOM     10  C   UNL     1      23.924   3.322  49.898  0.00  0.00    +0.164 A 
ENDROOT
BRANCH   1  12
ATOM     11  C   UNL     1      26.888   2.289  51.878  0.00  0.00    +0.079 C 
ATOM     12  O   UNL     1      25.761   2.235  51.010  0.00  0.00    -0.491 OA
ENDBRANCH   1  12
BRANCH   4  13
ATOM     13  N   UNL     1      27.766   6.675  49.067  0.00  0.00    -0.297 N 
ATOM     14  H   UNL     1      28.165   5.969  49.625  0.00  0.00    +0.000 HD
BRANCH  13  15
ATOM     15  C   UNL     1      28.589   7.789  48.677  0.00  0.00    +0.068 A 
ATOM     16  C   UNL     1      29.471   7.691  47.584  0.00  0.00    -0.037 A 
ATOM     17  C   UNL     1      30.278   8.775  47.227  0.00  0.00    -0.046 A 
ATOM     18  C   UNL     1      30.221   9.963  47.961  0.00  0.00    +0.021 A 
ATOM     19 BR   UNL     1      31.324  11.443  47.471  0.00  0.00    -0.050 Br
ATOM     20  C   UNL     1      29.362  10.064  49.059  0.00  0.00    -0.011 A 
ATOM     21  C   UNL     1      28.553   8.981  49.422  0.00  0.00    +0.145 A 
ATOM     22  F   UNL     1      27.724   9.101  50.489  0.00  0.00    -0.204 F 
ENDBRANCH  13  15
ENDBRANCH   4  13
BRANCH  10  23
ATOM     23  O   UNL     1      23.129   2.240  50.313  0.00  0.00    -0.488 OA
BRANCH  23  24
ATOM     24  C   UNL     1      22.177   2.264  51.376  0.00  0.00    +0.090 C 
BRANCH  24  25
ATOM     25  C   UNL     1      22.706   1.553  52.634  0.00  0.00    -0.016 C 
BRANCH  25  26
ATOM     26  C   UNL     1      22.231   0.085  52.759  0.00  0.00    -0.036 C 
ATOM     27  C   UNL     1      23.363  -0.817  53.317  0.00  0.00    -0.037 C 
ATOM     28  C   UNL     1      23.217  -1.024  54.830  0.00  0.00    -0.004 C 
ATOM     29  N   UNL     1      21.954  -1.702  55.180  0.00  0.00    -0.316 N 
ATOM     30  C   UNL     1      20.831  -1.417  54.262  0.00  0.00    -0.004 C 
ATOM     31  C   UNL     1      20.942  -0.033  53.613  0.00  0.00    -0.037 C 
ATOM     32  H   UNL     1      21.682  -1.406  56.117  0.00  0.00    +0.000 HD
ATOM     33  H   UNL     1      22.134  -2.704  55.114  0.00  0.00    +0.000 HD
ENDBRANCH  25  26
ENDBRANCH  24  25
ENDBRANCH  23  24
ENDBRANCH  10  23
TORSDOF 7
ENDMDL
MODEL 8
REMARK VINA RESULT:    -7.583      3.885      8.781
REMARK INTER + INTRA:         -11.688
REMARK INTER:                 -10.510
REMARK INTRA:                  -1.177
REMARK UNBOUND:                -1.002
REMARK  Name = 
REMARK  8 active torsions:
REMARK  status: ('A' for Active; 'I' for Inactive)
REMARK    1  A    between atoms: C_1  and  O_2
REMARK    2  A    between atoms: O_2  and  C_3
REMARK    3  A    between atoms: C_6  and  N_7
REMARK    4  A    between atoms: N_7  and  C_8
REMARK    5  A    between atoms: C_21  and  O_22
REMARK    6  A    between atoms: O_22  and  C_23
REMARK    7  A    between atoms: C_23  and  C_24
REMARK    8  A    between atoms: C_24  and  C_25
REMARK                            x       y       z     vdW  Elec       q    Type
REMARK                         _______ _______ _______ _____ _____    ______ ____
ROOT
ATOM      1  C   UNL     1      21.238   0.227  52.780  0.00  0.00    +0.162 A 
ATOM      2  C   UNL     1      22.482   0.836  53.036  0.00  0.00    -0.004 A 
ATOM      3  C   UNL     1      23.015   1.780  52.137  0.00  0.00    +0.044 A 
ATOM      4  C   UNL     1      24.258   2.419  52.340  0.00  0.00    +0.134 A 
ATOM      5  N   UNL     1      24.716   3.293  51.403  0.00  0.00    -0.220 NA
ATOM      6  C   UNL     1      24.010   3.567  50.278  0.00  0.00    +0.119 A 
ATOM      7  N   UNL     1      22.810   2.972  50.066  0.00  0.00    -0.235 NA
ATOM      8  C   UNL     1      22.297   2.091  50.963  0.00  0.00    +0.080 A 
ATOM      9  C   UNL     1      21.061   1.490  50.713  0.00  0.00    +0.010 A 
ATOM     10  C   UNL     1      20.526   0.554  51.617  0.00  0.00    +0.164 A 
ENDROOT
BRANCH   1  12
ATOM     11  C   UNL     1      21.429  -1.616  54.465  0.00  0.00    +0.079 C 
ATOM     12  O   UNL     1      20.678  -0.719  53.654  0.00  0.00    -0.491 OA
ENDBRANCH   1  12
BRANCH   4  13
ATOM     13  N   UNL     1      25.025   2.212  53.540  0.00  0.00    -0.297 N 
ATOM     14  H   UNL     1      24.701   2.614  54.379  0.00  0.00    +0.000 HD
BRANCH  13  15
ATOM     15  C   UNL     1      26.243   1.447  53.572  0.00  0.00    +0.068 A 
ATOM     16  C   UNL     1      27.499   2.079  53.518  0.00  0.00    -0.037 A 
ATOM     17  C   UNL     1      28.674   1.323  53.531  0.00  0.00    -0.046 A 
ATOM     18  C   UNL     1      28.608  -0.072  53.591  0.00  0.00    +0.021 A 
ATOM     19 BR   UNL     1      30.215  -1.104  53.611  0.00  0.00    -0.050 Br
ATOM     20  C   UNL     1      27.365  -0.711  53.628  0.00  0.00    -0.011 A 
ATOM     21  C   UNL     1      26.186   0.043  53.612  0.00  0.00    +0.145 A 
ATOM     22  F   UNL     1      24.991  -0.598  53.653  0.00  0.00    -0.204 F 
ENDBRANCH  13  15
ENDBRANCH   4  13
BRANCH  10  23
ATOM     23  O   UNL     1      19.291  -0.081  51.399  0.00  0.00    -0.488 OA
BRANCH  23  24
ATOM     24  C   UNL     1      18.021   0.388  51.852  0.00  0.00    +0.090 C 
BRANCH  24  25
ATOM     25  C   UNL     1      17.038   0.592  50.685  0.00  0.00    -0.016 C 
BRANCH  25  26
ATOM     26  C   UNL     1      16.506   2.041  50.573  0.00  0.00    -0.036 C 
ATOM     27  C   UNL     1      15.121   2.177  51.258  0.00  0.00    -0.037 C 
ATOM     28  C   UNL     1      15.255   2.725  52.685  0.00  0.00    -0.004 C 
ATOM     29  N   UNL     1      15.849   4.076  52.709  0.00  0.00    -0.316 N 
ATOM     30  C   UNL     1      16.808   4.343  51.617  0.00  0.00    -0.004 C 
ATOM     31  C   UNL     1      17.518   3.072  51.137  0.00  0.00    -0.037 C 
ATOM     32  H   UNL     1      16.337   4.194  53.597  0.00  0.00    +0.000 HD
ATOM     33  H   UNL     1      15.080   4.734  52.586  0.00  0.00    +0.000 HD
ENDBRANCH  25  26
ENDBRANCH  24  25
ENDBRANCH  23  24
ENDBRANCH  10  23
TORSDOF 7
ENDMDL
MODEL 9
REMARK VINA RESULT:    -7.532      4.940      6.682
REMARK INTER + INTRA:         -11.616
REMARK INTER:                 -10.600
REMARK INTRA:                  -1.016
REMARK UNBOUND:                -1.002
REMARK  Name = 
REMARK  8 active torsions:
REMARK  status: ('A' for Active; 'I' for Inactive)
REMARK    1  A    between atoms: C_1  and  O_2
REMARK    2  A    between atoms: O_2  and  C_3
REMARK    3  A    between atoms: C_6  and  N_7
REMARK    4  A    between atoms: N_7  and  C_8
REMARK    5  A    between atoms: C_21  and  O_22
REMARK    6  A    between atoms: O_22  and  C_23
REMARK    7  A    between atoms: C_23  and  C_24
REMARK    8  A    between atoms: C_24  and  C_25
REMARK                            x       y       z     vdW  Elec       q    Type
REMARK                         _______ _______ _______ _____ _____    ______ ____
ROOT
ATOM      1  C   UNL     1      24.251   4.546  50.600  0.00  0.00    +0.162 A 
ATOM      2  C   UNL     1      23.935   3.572  51.567  0.00  0.00    -0.004 A 
ATOM      3  C   UNL     1      24.768   2.453  51.755  0.00  0.00    +0.044 A 
ATOM      4  C   UNL     1      24.499   1.444  52.705  0.00  0.00    +0.134 A 
ATOM      5  N   UNL     1      25.339   0.377  52.797  0.00  0.00    -0.220 NA
ATOM      6  C   UNL     1      26.428   0.257  51.998  0.00  0.00    +0.119 A 
ATOM      7  N   UNL     1      26.712   1.217  51.084  0.00  0.00    -0.235 NA
ATOM      8  C   UNL     1      25.914   2.307  50.944  0.00  0.00    +0.080 A 
ATOM      9  C   UNL     1      26.228   3.276  49.988  0.00  0.00    +0.010 A 
ATOM     10  C   UNL     1      25.400   4.398  49.809  0.00  0.00    +0.164 A 
ENDROOT
BRANCH   1  12
ATOM     11  C   UNL     1      22.242   5.956  51.099  0.00  0.00    +0.079 C 
ATOM     12  O   UNL     1      23.441   5.674  50.385  0.00  0.00    -0.491 OA
ENDBRANCH   1  12
BRANCH   4  13
ATOM     13  N   UNL     1      23.391   1.545  53.619  0.00  0.00    -0.297 N 
ATOM     14  H   UNL     1      23.513   2.061  54.448  0.00  0.00    +0.000 HD
BRANCH  13  15
ATOM     15  C   UNL     1      22.115   0.926  53.378  0.00  0.00    +0.068 A 
ATOM     16  C   UNL     1      21.171   1.521  52.519  0.00  0.00    -0.037 A 
ATOM     17  C   UNL     1      19.928   0.918  52.307  0.00  0.00    -0.046 A 
ATOM     18  C   UNL     1      19.610  -0.278  52.955  0.00  0.00    +0.021 A 
ATOM     19 BR   UNL     1      17.912  -1.101  52.663  0.00  0.00    -0.050 Br
ATOM     20  C   UNL     1      20.534  -0.868  53.823  0.00  0.00    -0.011 A 
ATOM     21  C   UNL     1      21.779  -0.268  54.040  0.00  0.00    +0.145 A 
ATOM     22  F   UNL     1      22.662  -0.859  54.884  0.00  0.00    -0.204 F 
ENDBRANCH  13  15
ENDBRANCH   4  13
BRANCH  10  23
ATOM     23  O   UNL     1      25.674   5.392  48.854  0.00  0.00    -0.488 OA
BRANCH  23  24
ATOM     24  C   UNL     1      26.505   6.535  49.054  0.00  0.00    +0.090 C 
BRANCH  24  25
ATOM     25  C   UNL     1      26.831   7.244  47.727  0.00  0.00    -0.016 C 
BRANCH  25  26
ATOM     26  C   UNL     1      28.347   7.470  47.505  0.00  0.00    -0.036 C 
ATOM     27  C   UNL     1      28.747   8.925  47.865  0.00  0.00    -0.037 C 
ATOM     28  C   UNL     1      29.314   9.013  49.287  0.00  0.00    -0.004 C 
ATOM     29  N   UNL     1      30.540   8.206  49.449  0.00  0.00    -0.316 N 
ATOM     30  C   UNL     1      30.596   6.998  48.599  0.00  0.00    -0.004 C 
ATOM     31  C   UNL     1      29.203   6.439  48.285  0.00  0.00    -0.037 C 
ATOM     32  H   UNL     1      30.603   7.913  50.424  0.00  0.00    +0.000 HD
ATOM     33  H   UNL     1      31.318   8.800  49.160  0.00  0.00    +0.000 HD
ENDBRANCH  25  26
ENDBRANCH  24  25
ENDBRANCH  23  24
ENDBRANCH  10  23
TORSDOF 7
ENDMDL
