MODEL 1
REMARK VINA RESULT:    -9.777      0.000      0.000
REMARK INTER + INTRA:         -12.241
REMARK INTER:                 -11.492
REMARK INTRA:                  -0.748
REMARK UNBOUND:                -0.748
REMARK  Name = 
REMARK  5 active torsions:
REMARK  status: ('A' for Active; 'I' for Inactive)
REMARK    1  A    between atoms: C_1  and  N_2
REMARK    2  A    between atoms: C_5  and  C_6
REMARK    3  A    between atoms: C_7  and  O_8
REMARK    4  A    between atoms: C_10  and  O_11
REMARK    5  A    between atoms: C_16  and  C_17
REMARK                            x       y       z     vdW  Elec       q    Type
REMARK                         _______ _______ _______ _____ _____    ______ ____
ROOT
ATOM      1  C   UNL     1      23.935  -0.329  53.989  0.00  0.00    +0.000 A 
ATOM      2  C   UNL     1      23.138  -1.110  54.844  0.00  0.00    +0.000 A 
ATOM      3  C   UNL     1      21.746  -1.041  54.799  0.00  0.00    +0.000 A 
ATOM      4  C   UNL     1      21.132  -0.182  53.888  0.00  0.00    +0.000 A 
ATOM      5  C   UNL     1      21.902   0.619  53.035  0.00  0.00    +0.000 A 
ATOM      6  C   UNL     1      21.284   1.550  52.067  0.00  0.00    +0.000 A 
ATOM      7  O   UNL     1      20.081   1.687  51.891  0.00  0.00    +0.000 OA
ATOM      8  C   UNL     1      22.202   2.375  51.272  0.00  0.00    +0.000 A 
ATOM      9  C   UNL     1      23.525   2.231  51.415  0.00  0.00    +0.000 A 
ATOM     10  O   UNL     1      24.110   1.310  52.268  0.00  0.00    +0.000 OA
ATOM     11  C   UNL     1      23.299   0.547  53.088  0.00  0.00    +0.000 A 
ENDROOT
BRANCH   1  16
ATOM     12  C   UNL     1      29.268   0.479  53.385  0.00  0.00    +0.000 C 
ATOM     13  N   UNL     1      28.341  -0.460  53.999  0.00  0.00    +0.000 N 
ATOM     14  C   UNL     1      27.599   0.118  55.113  0.00  0.00    +0.000 C 
ATOM     15  C   UNL     1      26.109   0.158  55.017  0.00  0.00    +0.000 C 
ATOM     16  C   UNL     1      25.408  -0.423  54.034  0.00  0.00    +0.000 C 
ATOM     17  C   UNL     1      26.075  -1.184  52.937  0.00  0.00    +0.000 C 
ATOM     18  C   UNL     1      27.609  -1.263  53.020  0.00  0.00    +0.000 C 
ATOM     19  H   UNL     1      28.884  -1.180  54.477  0.00  0.00    +0.000 HD
ENDBRANCH   1  16
BRANCH   9  20
ATOM     20  C   UNL     1      24.480   3.069  50.656  0.00  0.00    +0.000 A 
ATOM     21  C   UNL     1      25.843   2.726  50.569  0.00  0.00    +0.000 A 
ATOM     22  C   UNL     1      26.738   3.496  49.825  0.00  0.00    +0.000 A 
ATOM     23  C   UNL     1      26.283   4.623  49.145  0.00  0.00    +0.000 A 
ATOM     24  C   UNL     1      24.938   4.977  49.224  0.00  0.00    +0.000 A 
ATOM     25 CL   UNL     1      24.377   6.371  48.384  0.00  0.00    +0.000 Cl
ATOM     26  C   UNL     1      24.040   4.212  49.972  0.00  0.00    +0.000 A 
ENDBRANCH   9  20
BRANCH   2  27
ATOM     27  O   UNL     1      23.737  -1.952  55.744  0.00  0.00    +0.000 OA
ATOM     28  H   UNL     1      23.705  -2.880  55.611  0.00  0.00    +0.000 HD
ENDBRANCH   2  27
BRANCH   4  29
ATOM     29  O   UNL     1      19.768  -0.125  53.853  0.00  0.00    +0.000 OA
ATOM     30  H   UNL     1      19.337   0.695  53.714  0.00  0.00    +0.000 HD
ENDBRANCH   4  29
TORSDOF 4
ENDMDL
MODEL 2
REMARK VINA RESULT:    -9.661      1.412      2.141
REMARK INTER + INTRA:         -12.104
REMARK INTER:                 -11.357
REMARK INTRA:                  -0.746
REMARK UNBOUND:                -0.748
REMARK  Name = 
REMARK  5 active torsions:
REMARK  status: ('A' for Active; 'I' for Inactive)
REMARK    1  A    between atoms: C_1  and  N_2
REMARK    2  A    between atoms: C_5  and  C_6
REMARK    3  A    between atoms: C_7  and  O_8
REMARK    4  A    between atoms: C_10  and  O_11
REMARK    5  A    between atoms: C_16  and  C_17
REMARK                            x       y       z     vdW  Elec       q    Type
REMARK                         _______ _______ _______ _____ _____    ______ ____
ROOT
ATOM      1  C   UNL     1      24.217  -0.298  53.966  0.00  0.00    +0.000 A 
ATOM      2  C   UNL     1      23.978  -1.122  55.079  0.00  0.00    +0.000 A 
ATOM      3  C   UNL     1      22.697  -1.592  55.368  0.00  0.00    +0.000 A 
ATOM      4  C   UNL     1      21.633  -1.238  54.539  0.00  0.00    +0.000 A 
ATOM      5  C   UNL     1      21.840  -0.405  53.431  0.00  0.00    +0.000 A 
ATOM      6  C   UNL     1      20.734   0.000  52.540  0.00  0.00    +0.000 A 
ATOM      7  O   UNL     1      19.572  -0.364  52.649  0.00  0.00    +0.000 OA
ATOM      8  C   UNL     1      21.074   0.924  51.449  0.00  0.00    +0.000 A 
ATOM      9  C   UNL     1      22.341   1.320  51.280  0.00  0.00    +0.000 A 
ATOM     10  O   UNL     1      23.394   0.887  52.068  0.00  0.00    +0.000 OA
ATOM     11  C   UNL     1      23.129   0.066  53.148  0.00  0.00    +0.000 A 
ENDROOT
BRANCH   1  16
ATOM     12  C   UNL     1      29.460   1.092  54.158  0.00  0.00    +0.000 C 
ATOM     13  N   UNL     1      28.333   1.104  53.238  0.00  0.00    +0.000 N 
ATOM     14  C   UNL     1      27.907  -0.234  52.841  0.00  0.00    +0.000 C 
ATOM     15  C   UNL     1      26.507  -0.646  53.157  0.00  0.00    +0.000 C 
ATOM     16  C   UNL     1      25.580   0.180  53.659  0.00  0.00    +0.000 C 
ATOM     17  C   UNL     1      25.877   1.616  53.941  0.00  0.00    +0.000 C 
ATOM     18  C   UNL     1      27.305   2.078  53.605  0.00  0.00    +0.000 C 
ATOM     19  H   UNL     1      28.651   1.481  52.345  0.00  0.00    +0.000 HD
ENDBRANCH   1  16
BRANCH   9  20
ATOM     20  C   UNL     1      22.716   2.275  50.214  0.00  0.00    +0.000 A 
ATOM     21  C   UNL     1      21.863   2.522  49.121  0.00  0.00    +0.000 A 
ATOM     22  C   UNL     1      22.200   3.449  48.133  0.00  0.00    +0.000 A 
ATOM     23  C   UNL     1      23.396   4.155  48.226  0.00  0.00    +0.000 A 
ATOM     24  C   UNL     1      24.252   3.920  49.299  0.00  0.00    +0.000 A 
ATOM     25 CL   UNL     1      25.732   4.793  49.412  0.00  0.00    +0.000 Cl
ATOM     26  C   UNL     1      23.922   2.990  50.287  0.00  0.00    +0.000 A 
ENDBRANCH   9  20
BRANCH   2  27
ATOM     27  O   UNL     1      25.018  -1.469  55.899  0.00  0.00    +0.000 OA
ATOM     28  H   UNL     1      25.800  -0.953  55.909  0.00  0.00    +0.000 HD
ENDBRANCH   2  27
BRANCH   4  29
ATOM     29  O   UNL     1      20.385  -1.706  54.832  0.00  0.00    +0.000 OA
ATOM     30  H   UNL     1      20.274  -2.365  55.490  0.00  0.00    +0.000 HD
ENDBRANCH   4  29
TORSDOF 4
ENDMDL
MODEL 3
REMARK VINA RESULT:    -9.619      2.853      5.548
REMARK INTER + INTRA:         -12.055
REMARK INTER:                 -11.196
REMARK INTRA:                  -0.859
REMARK UNBOUND:                -0.748
REMARK  Name = 
REMARK  5 active torsions:
REMARK  status: ('A' for Active; 'I' for Inactive)
REMARK    1  A    between atoms: C_1  and  N_2
REMARK    2  A    between atoms: C_5  and  C_6
REMARK    3  A    between atoms: C_7  and  O_8
REMARK    4  A    between atoms: C_10  and  O_11
REMARK    5  A    between atoms: C_16  and  C_17
REMARK                            x       y       z     vdW  Elec       q    Type
REMARK                         _______ _______ _______ _____ _____    ______ ____
ROOT
ATOM      1  C   UNL     1      22.177   1.461  52.354  0.00  0.00    +0.000 A 
ATOM      2  C   UNL     1      20.805   1.153  52.328  0.00  0.00    +0.000 A 
ATOM      3  C   UNL     1      20.276   0.142  53.130  0.00  0.00    +0.000 A 
ATOM      4  C   UNL     1      21.122  -0.577  53.975  0.00  0.00    +0.000 A 
ATOM      5  C   UNL     1      22.495  -0.301  54.010  0.00  0.00    +0.000 A 
ATOM      6  C   UNL     1      23.421  -1.051  54.883  0.00  0.00    +0.000 A 
ATOM      7  O   UNL     1      23.094  -1.934  55.663  0.00  0.00    +0.000 OA
ATOM      8  C   UNL     1      24.845  -0.704  54.782  0.00  0.00    +0.000 A 
ATOM      9  C   UNL     1      25.237   0.278  53.962  0.00  0.00    +0.000 A 
ATOM     10  O   UNL     1      24.365   1.033  53.195  0.00  0.00    +0.000 OA
ATOM     11  C   UNL     1      23.020   0.714  53.199  0.00  0.00    +0.000 A 
ENDROOT
BRANCH   1  16
ATOM     12  C   UNL     1      25.381   5.060  49.858  0.00  0.00    +0.000 C 
ATOM     13  N   UNL     1      23.981   4.671  49.931  0.00  0.00    +0.000 N 
ATOM     14  C   UNL     1      23.728   3.350  49.369  0.00  0.00    +0.000 C 
ATOM     15  C   UNL     1      23.148   2.306  50.266  0.00  0.00    +0.000 C 
ATOM     16  C   UNL     1      22.723   2.545  51.513  0.00  0.00    +0.000 C 
ATOM     17  C   UNL     1      22.788   3.908  52.118  0.00  0.00    +0.000 C 
ATOM     18  C   UNL     1      23.359   5.012  51.211  0.00  0.00    +0.000 C 
ATOM     19  H   UNL     1      23.450   5.263  49.292  0.00  0.00    +0.000 HD
ENDBRANCH   1  16
BRANCH   9  20
ATOM     20  C   UNL     1      26.665   0.632  53.808  0.00  0.00    +0.000 A 
ATOM     21  C   UNL     1      27.077   1.974  53.696  0.00  0.00    +0.000 A 
ATOM     22  C   UNL     1      28.427   2.312  53.586  0.00  0.00    +0.000 A 
ATOM     23  C   UNL     1      29.394   1.310  53.596  0.00  0.00    +0.000 A 
ATOM     24  C   UNL     1      29.003  -0.022  53.703  0.00  0.00    +0.000 A 
ATOM     25 CL   UNL     1      30.199  -1.260  53.713  0.00  0.00    +0.000 Cl
ATOM     26  C   UNL     1      27.653  -0.365  53.808  0.00  0.00    +0.000 A 
ENDBRANCH   9  20
BRANCH   2  27
ATOM     27  O   UNL     1      19.971   1.853  51.497  0.00  0.00    +0.000 OA
ATOM     28  H   UNL     1      19.109   2.085  51.784  0.00  0.00    +0.000 HD
ENDBRANCH   2  27
BRANCH   4  29
ATOM     29  O   UNL     1      20.590  -1.562  54.756  0.00  0.00    +0.000 OA
ATOM     30  H   UNL     1      19.676  -1.761  54.702  0.00  0.00    +0.000 HD
ENDBRANCH   4  29
TORSDOF 4
ENDMDL
MODEL 4
REMARK VINA RESULT:    -9.225      2.499      5.017
REMARK INTER + INTRA:         -11.592
REMARK INTER:                 -10.685
REMARK INTRA:                  -0.907
REMARK UNBOUND:                -0.748
REMARK  Name = 
REMARK  5 active torsions:
REMARK  status: ('A' for Active; 'I' for Inactive)
REMARK    1  A    between atoms: C_1  and  N_2
REMARK    2  A    between atoms: C_5  and  C_6
REMARK    3  A    between atoms: C_7  and  O_8
REMARK    4  A    between atoms: C_10  and  O_11
REMARK    5  A    between atoms: C_16  and  C_17
REMARK                            x       y       z     vdW  Elec       q    Type
REMARK                         _______ _______ _______ _____ _____    ______ ____
ROOT
ATOM      1  C   UNL     1      22.129   0.127  53.397  0.00  0.00    +0.000 A 
ATOM      2  C   UNL     1      21.772  -0.885  54.305  0.00  0.00    +0.000 A 
ATOM      3  C   UNL     1      22.723  -1.480  55.134  0.00  0.00    +0.000 A 
ATOM      4  C   UNL     1      24.052  -1.065  55.061  0.00  0.00    +0.000 A 
ATOM      5  C   UNL     1      24.438  -0.069  54.154  0.00  0.00    +0.000 A 
ATOM      6  C   UNL     1      25.840   0.385  54.042  0.00  0.00    +0.000 A 
ATOM      7  O   UNL     1      26.768  -0.018  54.728  0.00  0.00    +0.000 OA
ATOM      8  C   UNL     1      26.123   1.393  53.011  0.00  0.00    +0.000 A 
ATOM      9  C   UNL     1      25.127   1.881  52.263  0.00  0.00    +0.000 A 
ATOM     10  O   UNL     1      23.800   1.512  52.412  0.00  0.00    +0.000 OA
ATOM     11  C   UNL     1      23.479   0.522  53.323  0.00  0.00    +0.000 A 
ENDROOT
BRANCH   1  16
ATOM     12  C   UNL     1      17.538   1.586  50.896  0.00  0.00    +0.000 C 
ATOM     13  N   UNL     1      18.960   1.895  50.894  0.00  0.00    +0.000 N 
ATOM     14  C   UNL     1      19.404   2.543  52.122  0.00  0.00    +0.000 C 
ATOM     15  C   UNL     1      20.456   1.861  52.933  0.00  0.00    +0.000 C 
ATOM     16  C   UNL     1      21.111   0.762  52.536  0.00  0.00    +0.000 C 
ATOM     17  C   UNL     1      20.842   0.122  51.215  0.00  0.00    +0.000 C 
ATOM     18  C   UNL     1      19.779   0.814  50.345  0.00  0.00    +0.000 C 
ATOM     19  H   UNL     1      19.127   2.634  50.210  0.00  0.00    +0.000 HD
ENDBRANCH   1  16
BRANCH   9  20
ATOM     20  C   UNL     1      25.378   2.871  51.192  0.00  0.00    +0.000 A 
ATOM     21  C   UNL     1      26.589   2.880  50.475  0.00  0.00    +0.000 A 
ATOM     22  C   UNL     1      26.814   3.792  49.442  0.00  0.00    +0.000 A 
ATOM     23  C   UNL     1      25.824   4.708  49.101  0.00  0.00    +0.000 A 
ATOM     24  C   UNL     1      24.621   4.715  49.803  0.00  0.00    +0.000 A 
ATOM     25 CL   UNL     1      23.398   5.850  49.381  0.00  0.00    +0.000 Cl
ATOM     26  C   UNL     1      24.394   3.808  50.841  0.00  0.00    +0.000 A 
ENDBRANCH   9  20
BRANCH   2  27
ATOM     27  O   UNL     1      20.469  -1.300  54.377  0.00  0.00    +0.000 OA
ATOM     28  H   UNL     1      20.205  -2.094  53.955  0.00  0.00    +0.000 HD
ENDBRANCH   2  27
BRANCH   4  29
ATOM     29  O   UNL     1      24.972  -1.655  55.879  0.00  0.00    +0.000 OA
ATOM     30  H   UNL     1      25.733  -2.061  55.512  0.00  0.00    +0.000 HD
ENDBRANCH   4  29
TORSDOF 4
ENDMDL
MODEL 5
REMARK VINA RESULT:    -9.036      2.622      5.201
REMARK INTER + INTRA:         -11.369
REMARK INTER:                 -10.489
REMARK INTRA:                  -0.880
REMARK UNBOUND:                -0.748
REMARK  Name = 
REMARK  5 active torsions:
REMARK  status: ('A' for Active; 'I' for Inactive)
REMARK    1  A    between atoms: C_1  and  N_2
REMARK    2  A    between atoms: C_5  and  C_6
REMARK    3  A    between atoms: C_7  and  O_8
REMARK    4  A    between atoms: C_10  and  O_11
REMARK    5  A    between atoms: C_16  and  C_17
REMARK                            x       y       z     vdW  Elec       q    Type
REMARK                         _______ _______ _______ _____ _____    ______ ____
ROOT
ATOM      1  C   UNL     1      22.582   0.531  52.688  0.00  0.00    +0.000 A 
ATOM      2  C   UNL     1      22.334  -0.534  53.571  0.00  0.00    +0.000 A 
ATOM      3  C   UNL     1      23.355  -1.083  54.347  0.00  0.00    +0.000 A 
ATOM      4  C   UNL     1      24.647  -0.567  54.245  0.00  0.00    +0.000 A 
ATOM      5  C   UNL     1      24.926   0.484  53.361  0.00  0.00    +0.000 A 
ATOM      6  C   UNL     1      26.285   1.046  53.219  0.00  0.00    +0.000 A 
ATOM      7  O   UNL     1      27.264   0.691  53.859  0.00  0.00    +0.000 OA
ATOM      8  C   UNL     1      26.455   2.106  52.215  0.00  0.00    +0.000 A 
ATOM      9  C   UNL     1      25.400   2.541  51.518  0.00  0.00    +0.000 A 
ATOM     10  O   UNL     1      24.111   2.069  51.698  0.00  0.00    +0.000 OA
ATOM     11  C   UNL     1      23.896   1.029  52.583  0.00  0.00    +0.000 A 
ENDROOT
BRANCH   1  16
ATOM     12  C   UNL     1      19.574   3.547  49.325  0.00  0.00    +0.000 C 
ATOM     13  N   UNL     1      19.443   2.420  50.237  0.00  0.00    +0.000 N 
ATOM     14  C   UNL     1      20.150   1.230  49.776  0.00  0.00    +0.000 C 
ATOM     15  C   UNL     1      21.226   0.672  50.649  0.00  0.00    +0.000 C 
ATOM     16  C   UNL     1      21.490   1.116  51.885  0.00  0.00    +0.000 C 
ATOM     17  C   UNL     1      20.705   2.223  52.508  0.00  0.00    +0.000 C 
ATOM     18  C   UNL     1      19.574   2.804  51.643  0.00  0.00    +0.000 C 
ATOM     19  H   UNL     1      18.476   2.097  50.211  0.00  0.00    +0.000 HD
ENDBRANCH   1  16
BRANCH   9  20
ATOM     20  C   UNL     1      25.539   3.582  50.476  0.00  0.00    +0.000 A 
ATOM     21  C   UNL     1      24.433   4.343  50.050  0.00  0.00    +0.000 A 
ATOM     22  C   UNL     1      24.570   5.349  49.092  0.00  0.00    +0.000 A 
ATOM     23  C   UNL     1      25.822   5.619  48.547  0.00  0.00    +0.000 A 
ATOM     24  C   UNL     1      26.925   4.874  48.955  0.00  0.00    +0.000 A 
ATOM     25 CL   UNL     1      28.473   5.208  48.279  0.00  0.00    +0.000 Cl
ATOM     26  C   UNL     1      26.792   3.863  49.910  0.00  0.00    +0.000 A 
ENDBRANCH   9  20
BRANCH   2  27
ATOM     27  O   UNL     1      21.068  -1.048  53.672  0.00  0.00    +0.000 OA
ATOM     28  H   UNL     1      20.329  -0.473  53.692  0.00  0.00    +0.000 HD
ENDBRANCH   2  27
BRANCH   4  29
ATOM     29  O   UNL     1      25.637  -1.112  55.011  0.00  0.00    +0.000 OA
ATOM     30  H   UNL     1      25.446  -1.415  55.877  0.00  0.00    +0.000 HD
ENDBRANCH   4  29
TORSDOF 4
ENDMDL
MODEL 6
REMARK VINA RESULT:    -8.971      3.215      5.841
REMARK INTER + INTRA:         -11.293
REMARK INTER:                 -10.540
REMARK INTRA:                  -0.753
REMARK UNBOUND:                -0.748
REMARK  Name = 
REMARK  5 active torsions:
REMARK  status: ('A' for Active; 'I' for Inactive)
REMARK    1  A    between atoms: C_1  and  N_2
REMARK    2  A    between atoms: C_5  and  C_6
REMARK    3  A    between atoms: C_7  and  O_8
REMARK    4  A    between atoms: C_10  and  O_11
REMARK    5  A    between atoms: C_16  and  C_17
REMARK                            x       y       z     vdW  Elec       q    Type
REMARK                         _______ _______ _______ _____ _____    ______ ____
ROOT
ATOM      1  C   UNL     1      20.939   1.052  51.132  0.00  0.00    +0.000 A 
ATOM      2  C   UNL     1      19.562   0.780  51.073  0.00  0.00    +0.000 A 
ATOM      3  C   UNL     1      18.946  -0.045  52.013  0.00  0.00    +0.000 A 
ATOM      4  C   UNL     1      19.710  -0.614  53.031  0.00  0.00    +0.000 A 
ATOM      5  C   UNL     1      21.089  -0.374  53.106  0.00  0.00    +0.000 A 
ATOM      6  C   UNL     1      21.930  -0.970  54.163  0.00  0.00    +0.000 A 
ATOM      7  O   UNL     1      21.523  -1.680  55.072  0.00  0.00    +0.000 OA
ATOM      8  C   UNL     1      23.370  -0.686  54.095  0.00  0.00    +0.000 A 
ATOM      9  C   UNL     1      23.849   0.112  53.133  0.00  0.00    +0.000 A 
ATOM     10  O   UNL     1      23.055   0.731  52.182  0.00  0.00    +0.000 OA
ATOM     11  C   UNL     1      21.701   0.455  52.157  0.00  0.00    +0.000 A 
ENDROOT
BRANCH   1  16
ATOM     12  C   UNL     1      21.967   4.571  47.131  0.00  0.00    +0.000 C 
ATOM     13  N   UNL     1      22.669   3.740  48.097  0.00  0.00    +0.000 N 
ATOM     14  C   UNL     1      22.474   4.179  49.474  0.00  0.00    +0.000 C 
ATOM     15  C   UNL     1      21.848   3.221  50.433  0.00  0.00    +0.000 C 
ATOM     16  C   UNL     1      21.578   1.941  50.142  0.00  0.00    +0.000 C 
ATOM     17  C   UNL     1      21.898   1.354  48.807  0.00  0.00    +0.000 C 
ATOM     18  C   UNL     1      22.566   2.310  47.804  0.00  0.00    +0.000 C 
ATOM     19  H   UNL     1      23.672   3.891  47.983  0.00  0.00    +0.000 HD
ENDBRANCH   1  16
BRANCH   9  20
ATOM     20  C   UNL     1      25.297   0.393  53.012  0.00  0.00    +0.000 A 
ATOM     21  C   UNL     1      25.772   1.702  52.809  0.00  0.00    +0.000 A 
ATOM     22  C   UNL     1      27.139   1.973  52.730  0.00  0.00    +0.000 A 
ATOM     23  C   UNL     1      28.059   0.936  52.860  0.00  0.00    +0.000 A 
ATOM     24  C   UNL     1      27.604  -0.365  53.057  0.00  0.00    +0.000 A 
ATOM     25 CL   UNL     1      28.743  -1.647  53.217  0.00  0.00    +0.000 Cl
ATOM     26  C   UNL     1      26.237  -0.642  53.133  0.00  0.00    +0.000 A 
ENDBRANCH   9  20
BRANCH   2  27
ATOM     27  O   UNL     1      18.807   1.332  50.072  0.00  0.00    +0.000 OA
ATOM     28  H   UNL     1      19.025   2.178  49.731  0.00  0.00    +0.000 HD
ENDBRANCH   2  27
BRANCH   4  29
ATOM     29  O   UNL     1      19.095  -1.420  53.946  0.00  0.00    +0.000 OA
ATOM     30  H   UNL     1      18.262  -1.801  53.749  0.00  0.00    +0.000 HD
ENDBRANCH   4  29
TORSDOF 4
ENDMDL
MODEL 7
REMARK VINA RESULT:    -8.751      2.489      5.504
REMARK INTER + INTRA:         -11.034
REMARK INTER:                 -10.560
REMARK INTRA:                  -0.474
REMARK UNBOUND:                -0.748
REMARK  Name = 
REMARK  5 active torsions:
REMARK  status: ('A' for Active; 'I' for Inactive)
REMARK    1  A    between atoms: C_1  and  N_2
REMARK    2  A    between atoms: C_5  and  C_6
REMARK    3  A    between atoms: C_7  and  O_8
REMARK    4  A    between atoms: C_10  and  O_11
REMARK    5  A    between atoms: C_16  and  C_17
REMARK                            x       y       z     vdW  Elec       q    Type
REMARK                         _______ _______ _______ _____ _____    ______ ____
ROOT
ATOM      1  C   UNL     1      25.528   1.680  52.776  0.00  0.00    +0.000 A 
ATOM      2  C   UNL     1      26.665   1.615  53.599  0.00  0.00    +0.000 A 
ATOM      3  C   UNL     1      26.730   0.726  54.672  0.00  0.00    +0.000 A 
ATOM      4  C   UNL     1      25.648  -0.114  54.934  0.00  0.00    +0.000 A 
ATOM      5  C   UNL     1      24.496  -0.059  54.139  0.00  0.00    +0.000 A 
ATOM      6  C   UNL     1      23.326  -0.925  54.396  0.00  0.00    +0.000 A 
ATOM      7  O   UNL     1      23.257  -1.773  55.273  0.00  0.00    +0.000 OA
ATOM      8  C   UNL     1      22.160  -0.727  53.525  0.00  0.00    +0.000 A 
ATOM      9  C   UNL     1      22.209   0.171  52.535  0.00  0.00    +0.000 A 
ATOM     10  O   UNL     1      23.328   0.934  52.244  0.00  0.00    +0.000 OA
ATOM     11  C   UNL     1      24.436   0.838  53.065  0.00  0.00    +0.000 A 
ENDROOT
BRANCH   1  16
ATOM     12  C   UNL     1      26.202   5.850  49.368  0.00  0.00    +0.000 C 
ATOM     13  N   UNL     1      25.478   4.592  49.466  0.00  0.00    +0.000 N 
ATOM     14  C   UNL     1      26.356   3.427  49.437  0.00  0.00    +0.000 C 
ATOM     15  C   UNL     1      26.340   2.508  50.614  0.00  0.00    +0.000 C 
ATOM     16  C   UNL     1      25.477   2.613  51.632  0.00  0.00    +0.000 C 
ATOM     17  C   UNL     1      24.429   3.676  51.668  0.00  0.00    +0.000 C 
ATOM     18  C   UNL     1      24.403   4.625  50.458  0.00  0.00    +0.000 C 
ATOM     19  H   UNL     1      24.946   4.459  48.606  0.00  0.00    +0.000 HD
ENDBRANCH   1  16
BRANCH   9  20
ATOM     20  C   UNL     1      21.042   0.421  51.660  0.00  0.00    +0.000 A 
ATOM     21  C   UNL     1      19.748   0.013  52.033  0.00  0.00    +0.000 A 
ATOM     22  C   UNL     1      18.642   0.280  51.225  0.00  0.00    +0.000 A 
ATOM     23  C   UNL     1      18.810   0.970  50.028  0.00  0.00    +0.000 A 
ATOM     24  C   UNL     1      20.084   1.377  49.642  0.00  0.00    +0.000 A 
ATOM     25 CL   UNL     1      20.291   2.230  48.160  0.00  0.00    +0.000 Cl
ATOM     26  C   UNL     1      21.195   1.109  50.445  0.00  0.00    +0.000 A 
ENDBRANCH   9  20
BRANCH   2  27
ATOM     27  O   UNL     1      27.729   2.440  53.350  0.00  0.00    +0.000 OA
ATOM     28  H   UNL     1      28.495   2.104  52.926  0.00  0.00    +0.000 HD
ENDBRANCH   2  27
BRANCH   4  29
ATOM     29  O   UNL     1      25.726  -0.980  55.986  0.00  0.00    +0.000 OA
ATOM     30  H   UNL     1      26.162  -0.722  56.775  0.00  0.00    +0.000 HD
ENDBRANCH   4  29
TORSDOF 4
ENDMDL
MODEL 8
REMARK VINA RESULT:    -8.710      3.693      7.703
REMARK INTER + INTRA:         -10.986
REMARK INTER:                 -10.040
REMARK INTRA:                  -0.946
REMARK UNBOUND:                -0.748
REMARK  Name = 
REMARK  5 active torsions:
REMARK  status: ('A' for Active; 'I' for Inactive)
REMARK    1  A    between atoms: C_1  and  N_2
REMARK    2  A    between atoms: C_5  and  C_6
REMARK    3  A    between atoms: C_7  and  O_8
REMARK    4  A    between atoms: C_10  and  O_11
REMARK    5  A    between atoms: C_16  and  C_17
REMARK                            x       y       z     vdW  Elec       q    Type
REMARK                         _______ _______ _______ _____ _____    ______ ____
ROOT
ATOM      1  C   UNL     1      23.285   3.620  49.752  0.00  0.00    +0.000 A 
ATOM      2  C   UNL     1      24.047   4.572  49.052  0.00  0.00    +0.000 A 
ATOM      3  C   UNL     1      25.429   4.655  49.218  0.00  0.00    +0.000 A 
ATOM      4  C   UNL     1      26.068   3.779  50.095  0.00  0.00    +0.000 A 
ATOM      5  C   UNL     1      25.331   2.830  50.817  0.00  0.00    +0.000 A 
ATOM      6  C   UNL     1      25.974   1.895  51.763  0.00  0.00    +0.000 A 
ATOM      7  O   UNL     1      27.176   1.829  51.980  0.00  0.00    +0.000 OA
ATOM      8  C   UNL     1      25.083   0.990  52.500  0.00  0.00    +0.000 A 
ATOM      9  C   UNL     1      23.765   1.013  52.266  0.00  0.00    +0.000 A 
ATOM     10  O   UNL     1      23.165   1.837  51.328  0.00  0.00    +0.000 OA
ATOM     11  C   UNL     1      23.943   2.754  50.647  0.00  0.00    +0.000 A 
ENDROOT
BRANCH   1  16
ATOM     12  C   UNL     1      18.044   2.215  49.902  0.00  0.00    +0.000 C 
ATOM     13  N   UNL     1      18.925   3.184  49.268  0.00  0.00    +0.000 N 
ATOM     14  C   UNL     1      19.490   4.143  50.210  0.00  0.00    +0.000 C 
ATOM     15  C   UNL     1      20.976   4.204  50.342  0.00  0.00    +0.000 C 
ATOM     16  C   UNL     1      21.824   3.529  49.555  0.00  0.00    +0.000 C 
ATOM     17  C   UNL     1      21.340   2.650  48.449  0.00  0.00    +0.000 C 
ATOM     18  C   UNL     1      19.813   2.585  48.272  0.00  0.00    +0.000 C 
ATOM     19  H   UNL     1      18.358   3.797  48.680  0.00  0.00    +0.000 HD
ENDBRANCH   1  16
BRANCH   9  20
ATOM     20  C   UNL     1      22.833   0.141  53.013  0.00  0.00    +0.000 A 
ATOM     21  C   UNL     1      23.278  -0.659  54.083  0.00  0.00    +0.000 A 
ATOM     22  C   UNL     1      22.393  -1.456  54.811  0.00  0.00    +0.000 A 
ATOM     23  C   UNL     1      21.039  -1.460  54.486  0.00  0.00    +0.000 A 
ATOM     24  C   UNL     1      20.583  -0.678  53.429  0.00  0.00    +0.000 A 
ATOM     25 CL   UNL     1      18.909  -0.685  53.028  0.00  0.00    +0.000 Cl
ATOM     26  C   UNL     1      21.466   0.118  52.695  0.00  0.00    +0.000 A 
ENDBRANCH   9  20
BRANCH   2  27
ATOM     27  O   UNL     1      23.423   5.439  48.194  0.00  0.00    +0.000 OA
ATOM     28  H   UNL     1      22.528   5.677  48.336  0.00  0.00    +0.000 HD
ENDBRANCH   2  27
BRANCH   4  29
ATOM     29  O   UNL     1      27.422   3.870  50.247  0.00  0.00    +0.000 OA
ATOM     30  H   UNL     1      27.991   3.414  49.659  0.00  0.00    +0.000 HD
ENDBRANCH   4  29
TORSDOF 4
ENDMDL
MODEL 9
REMARK VINA RESULT:    -8.526      3.119      6.589
REMARK INTER + INTRA:         -10.770
REMARK INTER:                  -9.840
REMARK INTRA:                  -0.929
REMARK UNBOUND:                -0.748
REMARK  Name = 
REMARK  5 active torsions:
REMARK  status: ('A' for Active; 'I' for Inactive)
REMARK    1  A    between atoms: C_1  and  N_2
REMARK    2  A    between atoms: C_5  and  C_6
REMARK    3  A    between atoms: C_7  and  O_8
REMARK    4  A    between atoms: C_10  and  O_11
REMARK    5  A    between atoms: C_16  and  C_17
REMARK                            x       y       z     vdW  Elec       q    Type
REMARK                         _______ _______ _______ _____ _____    ______ ____
ROOT
ATOM      1  C   UNL     1      24.023   1.697  52.357  0.00  0.00    +0.000 A 
ATOM      2  C   UNL     1      25.355   1.860  52.774  0.00  0.00    +0.000 A 
ATOM      3  C   UNL     1      25.905   1.053  53.770  0.00  0.00    +0.000 A 
ATOM      4  C   UNL     1      25.119   0.067  54.365  0.00  0.00    +0.000 A 
ATOM      5  C   UNL     1      23.783  -0.107  53.981  0.00  0.00    +0.000 A 
ATOM      6  C   UNL     1      22.918  -1.133  54.599  0.00  0.00    +0.000 A 
ATOM      7  O   UNL     1      23.274  -1.932  55.453  0.00  0.00    +0.000 OA
ATOM      8  C   UNL     1      21.521  -1.173  54.148  0.00  0.00    +0.000 A 
ATOM      9  C   UNL     1      21.103  -0.335  53.192  0.00  0.00    +0.000 A 
ATOM     10  O   UNL     1      21.927   0.580  52.558  0.00  0.00    +0.000 OA
ATOM     11  C   UNL     1      23.236   0.708  52.981  0.00  0.00    +0.000 A 
ENDROOT
BRANCH   1  16
ATOM     12  C   UNL     1      23.214   5.370  48.444  0.00  0.00    +0.000 C 
ATOM     13  N   UNL     1      22.497   4.333  49.171  0.00  0.00    +0.000 N 
ATOM     14  C   UNL     1      22.982   2.990  48.874  0.00  0.00    +0.000 C 
ATOM     15  C   UNL     1      23.518   2.173  50.004  0.00  0.00    +0.000 C 
ATOM     16  C   UNL     1      23.456   2.545  51.290  0.00  0.00    +0.000 C 
ATOM     17  C   UNL     1      22.823   3.831  51.706  0.00  0.00    +0.000 C 
ATOM     18  C   UNL     1      22.241   4.685  50.568  0.00  0.00    +0.000 C 
ATOM     19  H   UNL     1      21.545   4.283  48.804  0.00  0.00    +0.000 HD
ENDBRANCH   1  16
BRANCH   9  20
ATOM     20  C   UNL     1      19.695  -0.323  52.737  0.00  0.00    +0.000 A 
ATOM     21  C   UNL     1      18.714  -1.104  53.376  0.00  0.00    +0.000 A 
ATOM     22  C   UNL     1      17.379  -1.067  52.969  0.00  0.00    +0.000 A 
ATOM     23  C   UNL     1      16.999  -0.238  51.917  0.00  0.00    +0.000 A 
ATOM     24  C   UNL     1      17.959   0.538  51.272  0.00  0.00    +0.000 A 
ATOM     25 CL   UNL     1      17.488   1.562  49.970  0.00  0.00    +0.000 Cl
ATOM     26  C   UNL     1      19.296   0.501  51.673  0.00  0.00    +0.000 A 
ENDBRANCH   9  20
BRANCH   2  27
ATOM     27  O   UNL     1      26.131   2.830  52.196  0.00  0.00    +0.000 OA
ATOM     28  H   UNL     1      25.791   3.696  52.083  0.00  0.00    +0.000 HD
ENDBRANCH   2  27
BRANCH   4  29
ATOM     29  O   UNL     1      25.670  -0.717  55.338  0.00  0.00    +0.000 OA
ATOM     30  H   UNL     1      26.302  -0.356  55.928  0.00  0.00    +0.000 HD
ENDBRANCH   4  29
TORSDOF 4
ENDMDL
