MODEL 1
REMARK VINA RESULT:    -7.374      0.000      0.000
REMARK INTER + INTRA:         -10.927
REMARK INTER:                  -9.960
REMARK INTRA:                  -0.967
REMARK UNBOUND:                -0.967
REMARK  Name = 
REMARK  7 active torsions:
REMARK  status: ('A' for Active; 'I' for Inactive)
REMARK    1  A    between atoms: C_1  and  C_2
REMARK    2  A    between atoms: C_5  and  S_6
REMARK    3  A    between atoms: S_6  and  C_7
REMARK    4  A    between atoms: C_13  and  C_14
REMARK    5  A    between atoms: N_15  and  O_16
REMARK    6  A    between atoms: O_16  and  C_17
REMARK    7  A    between atoms: C_17  and  C_18
REMARK                            x       y       z     vdW  Elec       q    Type
REMARK                         _______ _______ _______ _____ _____    ______ ____
ROOT
ATOM      1  C   UNL     1      22.018   0.385  52.270  0.00  0.00    +0.000 A 
ATOM      2  C   UNL     1      20.730   0.202  52.762  0.00  0.00    +0.000 A 
ATOM      3  N   UNL     1      20.438  -0.322  53.972  0.00  0.00    +0.000 NA
ATOM      4  C   UNL     1      21.453  -0.721  54.769  0.00  0.00    +0.000 A 
ATOM      5  C   UNL     1      22.776  -0.600  54.337  0.00  0.00    +0.000 A 
ATOM      6  S   UNL     1      24.193  -1.057  55.205  0.00  0.00    +0.000 S 
ATOM      7  C   UNL     1      25.221  -0.588  53.935  0.00  0.00    +0.000 A 
ATOM      8  C   UNL     1      24.514  -0.070  52.873  0.00  0.00    +0.000 A 
ATOM      9  C   UNL     1      23.089  -0.057  53.084  0.00  0.00    +0.000 A 
ENDROOT
BRANCH   7  10
ATOM     10  C   UNL     1      26.640  -0.788  54.055  0.00  0.00    +0.000 C 
ATOM     11  N   UNL     1      27.352   0.030  54.763  0.00  0.00    +0.000 NA
BRANCH  11  12
ATOM     12  O   UNL     1      28.707  -0.333  54.688  0.00  0.00    +0.000 OA
BRANCH  12  13
ATOM     13  C   UNL     1      29.317   0.464  53.677  0.00  0.00    +0.000 C 
BRANCH  13  14
ATOM     14  C   UNL     1      29.123   1.951  53.943  0.00  0.00    +0.000 C 
ATOM     15  N   UNL     1      29.821   2.489  54.980  0.00  0.00    +0.000 N 
ATOM     16  O   UNL     1      28.414   2.669  53.237  0.00  0.00    +0.000 OA
ATOM     17  H   UNL     1      30.387   1.914  55.543  0.00  0.00    +0.000 HD
ATOM     18  H   UNL     1      29.760   3.454  55.166  0.00  0.00    +0.000 HD
ENDBRANCH  13  14
ENDBRANCH  12  13
ENDBRANCH  11  12
ENDBRANCH   7  10
BRANCH   1  19
ATOM     19  S   UNL     1      22.338   1.071  50.673  0.00  0.00    +0.000 S 
BRANCH  19  24
ATOM     20  C   UNL     1      24.245   6.842  51.382  0.00  0.00    +0.000 C 
ATOM     21  C   UNL     1      23.781   5.422  51.244  0.00  0.00    +0.000 A 
ATOM     22  C   UNL     1      22.927   4.853  52.193  0.00  0.00    +0.000 A 
ATOM     23  C   UNL     1      22.488   3.531  52.061  0.00  0.00    +0.000 A 
ATOM     24  C   UNL     1      22.878   2.752  50.969  0.00  0.00    +0.000 A 
ATOM     25  C   UNL     1      23.744   3.325  50.024  0.00  0.00    +0.000 A 
ATOM     26  C   UNL     1      24.195   4.644  50.160  0.00  0.00    +0.000 A 
ENDBRANCH  19  24
ENDBRANCH   1  19
TORSDOF 6
ENDMDL
MODEL 2
REMARK VINA RESULT:    -7.268      4.338      6.730
REMARK INTER + INTRA:         -10.784
REMARK INTER:                  -9.705
REMARK INTRA:                  -1.079
REMARK UNBOUND:                -0.967
REMARK  Name = 
REMARK  7 active torsions:
REMARK  status: ('A' for Active; 'I' for Inactive)
REMARK    1  A    between atoms: C_1  and  C_2
REMARK    2  A    between atoms: C_5  and  S_6
REMARK    3  A    between atoms: S_6  and  C_7
REMARK    4  A    between atoms: C_13  and  C_14
REMARK    5  A    between atoms: N_15  and  O_16
REMARK    6  A    between atoms: O_16  and  C_17
REMARK    7  A    between atoms: C_17  and  C_18
REMARK                            x       y       z     vdW  Elec       q    Type
REMARK                         _______ _______ _______ _____ _____    ______ ____
ROOT
ATOM      1  C   UNL     1      23.878   3.713  50.909  0.00  0.00    +0.000 A 
ATOM      2  C   UNL     1      22.878   4.490  51.483  0.00  0.00    +0.000 A 
ATOM      3  N   UNL     1      22.826   5.838  51.426  0.00  0.00    +0.000 NA
ATOM      4  C   UNL     1      23.815   6.500  50.788  0.00  0.00    +0.000 A 
ATOM      5  C   UNL     1      24.874   5.795  50.210  0.00  0.00    +0.000 A 
ATOM      6  S   UNL     1      26.221   6.461  49.366  0.00  0.00    +0.000 S 
ATOM      7  C   UNL     1      26.914   4.932  49.101  0.00  0.00    +0.000 A 
ATOM      8  C   UNL     1      26.135   3.923  49.619  0.00  0.00    +0.000 A 
ATOM      9  C   UNL     1      24.936   4.396  50.263  0.00  0.00    +0.000 A 
ENDROOT
BRANCH   7  10
ATOM     10  C   UNL     1      28.184   4.831  48.433  0.00  0.00    +0.000 C 
ATOM     11  N   UNL     1      29.001   5.836  48.440  0.00  0.00    +0.000 NA
BRANCH  11  12
ATOM     12  O   UNL     1      30.143   5.525  47.683  0.00  0.00    +0.000 OA
BRANCH  12  13
ATOM     13  C   UNL     1      31.098   6.562  47.886  0.00  0.00    +0.000 C 
BRANCH  13  14
ATOM     14  C   UNL     1      31.489   6.684  49.353  0.00  0.00    +0.000 C 
ATOM     15  N   UNL     1      31.575   5.528  50.067  0.00  0.00    +0.000 N 
ATOM     16  O   UNL     1      31.771   7.759  49.882  0.00  0.00    +0.000 OA
ATOM     17  H   UNL     1      31.350   4.669  49.643  0.00  0.00    +0.000 HD
ATOM     18  H   UNL     1      31.865   5.551  51.008  0.00  0.00    +0.000 HD
ENDBRANCH  13  14
ENDBRANCH  12  13
ENDBRANCH  11  12
ENDBRANCH   7  10
BRANCH   1  19
ATOM     19  S   UNL     1      23.896   1.949  51.023  0.00  0.00    +0.000 S 
BRANCH  19  24
ATOM     20  C   UNL     1      28.571   0.459  54.679  0.00  0.00    +0.000 C 
ATOM     21  C   UNL     1      27.404   0.829  53.813  0.00  0.00    +0.000 A 
ATOM     22  C   UNL     1      26.552   1.879  54.170  0.00  0.00    +0.000 A 
ATOM     23  C   UNL     1      25.468   2.230  53.358  0.00  0.00    +0.000 A 
ATOM     24  C   UNL     1      25.219   1.553  52.161  0.00  0.00    +0.000 A 
ATOM     25  C   UNL     1      26.072   0.493  51.812  0.00  0.00    +0.000 A 
ATOM     26  C   UNL     1      27.150   0.132  52.629  0.00  0.00    +0.000 A 
ENDBRANCH  19  24
ENDBRANCH   1  19
TORSDOF 6
ENDMDL
MODEL 3
REMARK VINA RESULT:    -7.198      4.877      8.023
REMARK INTER + INTRA:         -10.690
REMARK INTER:                 -10.305
REMARK INTRA:                  -0.384
REMARK UNBOUND:                -0.967
REMARK  Name = 
REMARK  7 active torsions:
REMARK  status: ('A' for Active; 'I' for Inactive)
REMARK    1  A    between atoms: C_1  and  C_2
REMARK    2  A    between atoms: C_5  and  S_6
REMARK    3  A    between atoms: S_6  and  C_7
REMARK    4  A    between atoms: C_13  and  C_14
REMARK    5  A    between atoms: N_15  and  O_16
REMARK    6  A    between atoms: O_16  and  C_17
REMARK    7  A    between atoms: C_17  and  C_18
REMARK                            x       y       z     vdW  Elec       q    Type
REMARK                         _______ _______ _______ _____ _____    ______ ____
ROOT
ATOM      1  C   UNL     1      23.146   0.191  53.377  0.00  0.00    +0.000 A 
ATOM      2  C   UNL     1      23.541  -0.728  54.343  0.00  0.00    +0.000 A 
ATOM      3  N   UNL     1      22.709  -1.585  54.972  0.00  0.00    +0.000 NA
ATOM      4  C   UNL     1      21.393  -1.552  54.671  0.00  0.00    +0.000 A 
ATOM      5  C   UNL     1      20.909  -0.637  53.733  0.00  0.00    +0.000 A 
ATOM      6  S   UNL     1      19.273  -0.442  53.226  0.00  0.00    +0.000 S 
ATOM      7  C   UNL     1      19.665   0.836  52.176  0.00  0.00    +0.000 A 
ATOM      8  C   UNL     1      21.015   1.105  52.183  0.00  0.00    +0.000 A 
ATOM      9  C   UNL     1      21.765   0.256  53.074  0.00  0.00    +0.000 A 
ENDROOT
BRANCH   7  10
ATOM     10  C   UNL     1      18.622   1.504  51.445  0.00  0.00    +0.000 C 
ATOM     11  N   UNL     1      18.272   2.707  51.769  0.00  0.00    +0.000 NA
BRANCH  11  12
ATOM     12  O   UNL     1      17.205   3.127  50.956  0.00  0.00    +0.000 OA
BRANCH  12  13
ATOM     13  C   UNL     1      16.540   4.194  51.625  0.00  0.00    +0.000 C 
BRANCH  13  14
ATOM     14  C   UNL     1      15.529   3.676  52.640  0.00  0.00    +0.000 C 
ATOM     15  N   UNL     1      15.292   4.457  53.729  0.00  0.00    +0.000 N 
ATOM     16  O   UNL     1      14.902   2.628  52.483  0.00  0.00    +0.000 OA
ATOM     17  H   UNL     1      15.794   5.294  53.853  0.00  0.00    +0.000 HD
ATOM     18  H   UNL     1      14.617   4.184  54.393  0.00  0.00    +0.000 HD
ENDBRANCH  13  14
ENDBRANCH  12  13
ENDBRANCH  11  12
ENDBRANCH   7  10
BRANCH   1  19
ATOM     19  S   UNL     1      24.283   1.294  52.592  0.00  0.00    +0.000 S 
BRANCH  19  24
ATOM     20  C   UNL     1      29.855  -0.932  53.791  0.00  0.00    +0.000 C 
ATOM     21  C   UNL     1      28.486  -0.377  53.533  0.00  0.00    +0.000 A 
ATOM     22  C   UNL     1      28.075   0.820  54.128  0.00  0.00    +0.000 A 
ATOM     23  C   UNL     1      26.801   1.342  53.881  0.00  0.00    +0.000 A 
ATOM     24  C   UNL     1      25.913   0.692  53.019  0.00  0.00    +0.000 A 
ATOM     25  C   UNL     1      26.328  -0.515  52.432  0.00  0.00    +0.000 A 
ATOM     26  C   UNL     1      27.598  -1.046  52.687  0.00  0.00    +0.000 A 
ENDBRANCH  19  24
ENDBRANCH   1  19
TORSDOF 6
ENDMDL
MODEL 4
REMARK VINA RESULT:    -7.143      4.278      8.111
REMARK INTER + INTRA:         -10.616
REMARK INTER:                  -9.933
REMARK INTRA:                  -0.683
REMARK UNBOUND:                -0.967
REMARK  Name = 
REMARK  7 active torsions:
REMARK  status: ('A' for Active; 'I' for Inactive)
REMARK    1  A    between atoms: C_1  and  C_2
REMARK    2  A    between atoms: C_5  and  S_6
REMARK    3  A    between atoms: S_6  and  C_7
REMARK    4  A    between atoms: C_13  and  C_14
REMARK    5  A    between atoms: N_15  and  O_16
REMARK    6  A    between atoms: O_16  and  C_17
REMARK    7  A    between atoms: C_17  and  C_18
REMARK                            x       y       z     vdW  Elec       q    Type
REMARK                         _______ _______ _______ _____ _____    ______ ____
ROOT
ATOM      1  C   UNL     1      23.907   1.062  52.279  0.00  0.00    +0.000 A 
ATOM      2  C   UNL     1      24.938   1.882  51.833  0.00  0.00    +0.000 A 
ATOM      3  N   UNL     1      24.804   2.837  50.887  0.00  0.00    +0.000 NA
ATOM      4  C   UNL     1      23.597   3.012  50.306  0.00  0.00    +0.000 A 
ATOM      5  C   UNL     1      22.516   2.207  50.676  0.00  0.00    +0.000 A 
ATOM      6  S   UNL     1      20.912   2.277  50.046  0.00  0.00    +0.000 S 
ATOM      7  C   UNL     1      20.388   0.985  51.019  0.00  0.00    +0.000 A 
ATOM      8  C   UNL     1      21.397   0.515  51.829  0.00  0.00    +0.000 A 
ATOM      9  C   UNL     1      22.645   1.215  51.656  0.00  0.00    +0.000 A 
ENDROOT
BRANCH   7  10
ATOM     10  C   UNL     1      19.038   0.504  50.898  0.00  0.00    +0.000 C 
ATOM     11  N   UNL     1      18.570  -0.336  51.764  0.00  0.00    +0.000 NA
BRANCH  11  12
ATOM     12  O   UNL     1      17.259  -0.702  51.412  0.00  0.00    +0.000 OA
BRANCH  12  13
ATOM     13  C   UNL     1      16.563  -1.036  52.608  0.00  0.00    +0.000 C 
BRANCH  13  14
ATOM     14  C   UNL     1      17.090  -2.327  53.221  0.00  0.00    +0.000 C 
ATOM     15  N   UNL     1      18.190  -2.228  54.016  0.00  0.00    +0.000 N 
ATOM     16  O   UNL     1      16.537  -3.416  53.064  0.00  0.00    +0.000 OA
ATOM     17  H   UNL     1      18.631  -1.357  54.141  0.00  0.00    +0.000 HD
ATOM     18  H   UNL     1      18.544  -3.028  54.468  0.00  0.00    +0.000 HD
ENDBRANCH  13  14
ENDBRANCH  12  13
ENDBRANCH  11  12
ENDBRANCH   7  10
BRANCH   1  19
ATOM     19  S   UNL     1      24.145  -0.177  53.517  0.00  0.00    +0.000 S 
BRANCH  19  24
ATOM     20  C   UNL     1      30.215  -0.908  53.785  0.00  0.00    +0.000 C 
ATOM     21  C   UNL     1      28.726  -0.727  53.756  0.00  0.00    +0.000 A 
ATOM     22  C   UNL     1      28.094   0.155  54.638  0.00  0.00    +0.000 A 
ATOM     23  C   UNL     1      26.706   0.329  54.606  0.00  0.00    +0.000 A 
ATOM     24  C   UNL     1      25.918  -0.361  53.681  0.00  0.00    +0.000 A 
ATOM     25  C   UNL     1      26.556  -1.253  52.804  0.00  0.00    +0.000 A 
ATOM     26  C   UNL     1      27.943  -1.438  52.842  0.00  0.00    +0.000 A 
ENDBRANCH  19  24
ENDBRANCH   1  19
TORSDOF 6
ENDMDL
MODEL 5
REMARK VINA RESULT:    -7.056      3.895      6.875
REMARK INTER + INTRA:         -10.498
REMARK INTER:                  -9.951
REMARK INTRA:                  -0.548
REMARK UNBOUND:                -0.967
REMARK  Name = 
REMARK  7 active torsions:
REMARK  status: ('A' for Active; 'I' for Inactive)
REMARK    1  A    between atoms: C_1  and  C_2
REMARK    2  A    between atoms: C_5  and  S_6
REMARK    3  A    between atoms: S_6  and  C_7
REMARK    4  A    between atoms: C_13  and  C_14
REMARK    5  A    between atoms: N_15  and  O_16
REMARK    6  A    between atoms: O_16  and  C_17
REMARK    7  A    between atoms: C_17  and  C_18
REMARK                            x       y       z     vdW  Elec       q    Type
REMARK                         _______ _______ _______ _____ _____    ______ ____
ROOT
ATOM      1  C   UNL     1      23.817   2.129  52.027  0.00  0.00    +0.000 A 
ATOM      2  C   UNL     1      22.872   1.110  52.029  0.00  0.00    +0.000 A 
ATOM      3  N   UNL     1      22.031   0.841  51.007  0.00  0.00    +0.000 NA
ATOM      4  C   UNL     1      22.081   1.617  49.903  0.00  0.00    +0.000 A 
ATOM      5  C   UNL     1      22.982   2.683  49.833  0.00  0.00    +0.000 A 
ATOM      6  S   UNL     1      23.186   3.780  48.519  0.00  0.00    +0.000 S 
ATOM      7  C   UNL     1      24.390   4.660  49.335  0.00  0.00    +0.000 A 
ATOM      8  C   UNL     1      24.658   4.126  50.575  0.00  0.00    +0.000 A 
ATOM      9  C   UNL     1      23.859   2.969  50.888  0.00  0.00    +0.000 A 
ENDROOT
BRANCH   7  10
ATOM     10  C   UNL     1      24.964   5.825  48.717  0.00  0.00    +0.000 C 
ATOM     11  N   UNL     1      26.200   6.135  48.942  0.00  0.00    +0.000 NA
BRANCH  11  12
ATOM     12  O   UNL     1      26.518   7.333  48.280  0.00  0.00    +0.000 OA
BRANCH  12  13
ATOM     13  C   UNL     1      27.490   8.020  49.062  0.00  0.00    +0.000 C 
BRANCH  13  14
ATOM     14  C   UNL     1      26.841   9.016  50.015  0.00  0.00    +0.000 C 
ATOM     15  N   UNL     1      27.597   9.455  51.058  0.00  0.00    +0.000 N 
ATOM     16  O   UNL     1      25.705   9.460  49.845  0.00  0.00    +0.000 OA
ATOM     17  H   UNL     1      28.505   9.100  51.192  0.00  0.00    +0.000 HD
ATOM     18  H   UNL     1      27.236  10.130  51.677  0.00  0.00    +0.000 HD
ENDBRANCH  13  14
ENDBRANCH  12  13
ENDBRANCH  11  12
ENDBRANCH   7  10
BRANCH   1  19
ATOM     19  S   UNL     1      24.888   2.437  53.399  0.00  0.00    +0.000 S 
BRANCH  19  24
ATOM     20  C   UNL     1      29.416  -1.678  53.284  0.00  0.00    +0.000 C 
ATOM     21  C   UNL     1      28.292  -0.684  53.281  0.00  0.00    +0.000 A 
ATOM     22  C   UNL     1      26.997  -1.068  52.919  0.00  0.00    +0.000 A 
ATOM     23  C   UNL     1      25.947  -0.142  52.924  0.00  0.00    +0.000 A 
ATOM     24  C   UNL     1      26.163   1.185  53.307  0.00  0.00    +0.000 A 
ATOM     25  C   UNL     1      27.467   1.567  53.660  0.00  0.00    +0.000 A 
ATOM     26  C   UNL     1      28.522   0.646  53.644  0.00  0.00    +0.000 A 
ENDBRANCH  19  24
ENDBRANCH   1  19
TORSDOF 6
ENDMDL
MODEL 6
REMARK VINA RESULT:    -6.911      2.009      2.598
REMARK INTER + INTRA:         -10.302
REMARK INTER:                  -9.558
REMARK INTRA:                  -0.745
REMARK UNBOUND:                -0.967
REMARK  Name = 
REMARK  7 active torsions:
REMARK  status: ('A' for Active; 'I' for Inactive)
REMARK    1  A    between atoms: C_1  and  C_2
REMARK    2  A    between atoms: C_5  and  S_6
REMARK    3  A    between atoms: S_6  and  C_7
REMARK    4  A    between atoms: C_13  and  C_14
REMARK    5  A    between atoms: N_15  and  O_16
REMARK    6  A    between atoms: O_16  and  C_17
REMARK    7  A    between atoms: C_17  and  C_18
REMARK                            x       y       z     vdW  Elec       q    Type
REMARK                         _______ _______ _______ _____ _____    ______ ____
ROOT
ATOM      1  C   UNL     1      20.496   0.600  51.054  0.00  0.00    +0.000 A 
ATOM      2  C   UNL     1      19.135   0.434  51.283  0.00  0.00    +0.000 A 
ATOM      3  N   UNL     1      18.603  -0.054  52.424  0.00  0.00    +0.000 NA
ATOM      4  C   UNL     1      19.435  -0.434  53.418  0.00  0.00    +0.000 A 
ATOM      5  C   UNL     1      20.818  -0.329  53.256  0.00  0.00    +0.000 A 
ATOM      6  S   UNL     1      22.030  -0.766  54.402  0.00  0.00    +0.000 S 
ATOM      7  C   UNL     1      23.294  -0.335  53.351  0.00  0.00    +0.000 A 
ATOM      8  C   UNL     1      22.818   0.155  52.156  0.00  0.00    +0.000 A 
ATOM      9  C   UNL     1      21.379   0.178  52.077  0.00  0.00    +0.000 A 
ENDROOT
BRANCH   7  10
ATOM     10  C   UNL     1      24.659  -0.536  53.758  0.00  0.00    +0.000 C 
ATOM     11  N   UNL     1      25.614   0.099  53.157  0.00  0.00    +0.000 NA
BRANCH  11  12
ATOM     12  O   UNL     1      26.854  -0.297  53.686  0.00  0.00    +0.000 OA
BRANCH  12  13
ATOM     13  C   UNL     1      27.427  -1.245  52.791  0.00  0.00    +0.000 C 
BRANCH  13  14
ATOM     14  C   UNL     1      28.717  -1.834  53.348  0.00  0.00    +0.000 C 
ATOM     15  N   UNL     1      28.798  -3.191  53.414  0.00  0.00    +0.000 N 
ATOM     16  O   UNL     1      29.678  -1.140  53.684  0.00  0.00    +0.000 OA
ATOM     17  H   UNL     1      28.030  -3.744  53.145  0.00  0.00    +0.000 HD
ATOM     18  H   UNL     1      29.627  -3.619  53.728  0.00  0.00    +0.000 HD
ENDBRANCH  13  14
ENDBRANCH  12  13
ENDBRANCH  11  12
ENDBRANCH   7  10
BRANCH   1  19
ATOM     19  S   UNL     1      21.135   1.240  49.535  0.00  0.00    +0.000 S 
BRANCH  19  24
ATOM     20  C   UNL     1      24.070   6.309  51.308  0.00  0.00    +0.000 C 
ATOM     21  C   UNL     1      23.364   5.071  50.839  0.00  0.00    +0.000 A 
ATOM     22  C   UNL     1      23.979   4.191  49.944  0.00  0.00    +0.000 A 
ATOM     23  C   UNL     1      23.324   3.033  49.513  0.00  0.00    +0.000 A 
ATOM     24  C   UNL     1      22.044   2.717  49.979  0.00  0.00    +0.000 A 
ATOM     25  C   UNL     1      21.427   3.609  50.870  0.00  0.00    +0.000 A 
ATOM     26  C   UNL     1      22.076   4.775  51.294  0.00  0.00    +0.000 A 
ENDBRANCH  19  24
ENDBRANCH   1  19
TORSDOF 6
ENDMDL
MODEL 7
REMARK VINA RESULT:    -6.893      2.632      4.998
REMARK INTER + INTRA:         -10.278
REMARK INTER:                  -9.403
REMARK INTRA:                  -0.875
REMARK UNBOUND:                -0.967
REMARK  Name = 
REMARK  7 active torsions:
REMARK  status: ('A' for Active; 'I' for Inactive)
REMARK    1  A    between atoms: C_1  and  C_2
REMARK    2  A    between atoms: C_5  and  S_6
REMARK    3  A    between atoms: S_6  and  C_7
REMARK    4  A    between atoms: C_13  and  C_14
REMARK    5  A    between atoms: N_15  and  O_16
REMARK    6  A    between atoms: O_16  and  C_17
REMARK    7  A    between atoms: C_17  and  C_18
REMARK                            x       y       z     vdW  Elec       q    Type
REMARK                         _______ _______ _______ _____ _____    ______ ____
ROOT
ATOM      1  C   UNL     1      21.473   2.916  50.493  0.00  0.00    +0.000 A 
ATOM      2  C   UNL     1      20.928   4.195  50.455  0.00  0.00    +0.000 A 
ATOM      3  N   UNL     1      21.364   5.237  51.194  0.00  0.00    +0.000 NA
ATOM      4  C   UNL     1      22.389   5.042  52.052  0.00  0.00    +0.000 A 
ATOM      5  C   UNL     1      22.972   3.778  52.173  0.00  0.00    +0.000 A 
ATOM      6  S   UNL     1      24.276   3.337  53.212  0.00  0.00    +0.000 S 
ATOM      7  C   UNL     1      24.240   1.716  52.702  0.00  0.00    +0.000 A 
ATOM      8  C   UNL     1      23.275   1.505  51.743  0.00  0.00    +0.000 A 
ATOM      9  C   UNL     1      22.527   2.691  51.410  0.00  0.00    +0.000 A 
ENDROOT
BRANCH   7  10
ATOM     10  C   UNL     1      25.136   0.761  53.298  0.00  0.00    +0.000 C 
ATOM     11  N   UNL     1      26.353   0.660  52.869  0.00  0.00    +0.000 NA
BRANCH  11  12
ATOM     12  O   UNL     1      27.016  -0.369  53.559  0.00  0.00    +0.000 OA
BRANCH  12  13
ATOM     13  C   UNL     1      27.710   0.218  54.655  0.00  0.00    +0.000 C 
BRANCH  13  14
ATOM     14  C   UNL     1      28.871   1.085  54.184  0.00  0.00    +0.000 C 
ATOM     15  N   UNL     1      28.759   2.427  54.381  0.00  0.00    +0.000 N 
ATOM     16  O   UNL     1      29.898   0.616  53.692  0.00  0.00    +0.000 OA
ATOM     17  H   UNL     1      27.938   2.800  54.774  0.00  0.00    +0.000 HD
ATOM     18  H   UNL     1      29.501   3.024  54.130  0.00  0.00    +0.000 HD
ENDBRANCH  13  14
ENDBRANCH  12  13
ENDBRANCH  11  12
ENDBRANCH   7  10
BRANCH   1  19
ATOM     19  S   UNL     1      20.854   1.588  49.504  0.00  0.00    +0.000 S 
BRANCH  19  24
ATOM     20  C   UNL     1      16.429  -1.220  52.665  0.00  0.00    +0.000 C 
ATOM     21  C   UNL     1      17.525  -0.517  51.921  0.00  0.00    +0.000 A 
ATOM     22  C   UNL     1      18.805  -0.401  52.473  0.00  0.00    +0.000 A 
ATOM     23  C   UNL     1      19.830   0.249  51.777  0.00  0.00    +0.000 A 
ATOM     24  C   UNL     1      19.606   0.783  50.505  0.00  0.00    +0.000 A 
ATOM     25  C   UNL     1      18.317   0.673  49.959  0.00  0.00    +0.000 A 
ATOM     26  C   UNL     1      17.286   0.034  50.659  0.00  0.00    +0.000 A 
ENDBRANCH  19  24
ENDBRANCH   1  19
TORSDOF 6
ENDMDL
MODEL 8
REMARK VINA RESULT:    -6.824      4.708      8.489
REMARK INTER + INTRA:         -10.185
REMARK INTER:                  -9.494
REMARK INTRA:                  -0.691
REMARK UNBOUND:                -0.967
REMARK  Name = 
REMARK  7 active torsions:
REMARK  status: ('A' for Active; 'I' for Inactive)
REMARK    1  A    between atoms: C_1  and  C_2
REMARK    2  A    between atoms: C_5  and  S_6
REMARK    3  A    between atoms: S_6  and  C_7
REMARK    4  A    between atoms: C_13  and  C_14
REMARK    5  A    between atoms: N_15  and  O_16
REMARK    6  A    between atoms: O_16  and  C_17
REMARK    7  A    between atoms: C_17  and  C_18
REMARK                            x       y       z     vdW  Elec       q    Type
REMARK                         _______ _______ _______ _____ _____    ______ ____
ROOT
ATOM      1  C   UNL     1      23.329   0.789  53.234  0.00  0.00    +0.000 A 
ATOM      2  C   UNL     1      24.137   1.866  52.888  0.00  0.00    +0.000 A 
ATOM      3  N   UNL     1      23.712   2.959  52.218  0.00  0.00    +0.000 NA
ATOM      4  C   UNL     1      22.420   3.022  51.830  0.00  0.00    +0.000 A 
ATOM      5  C   UNL     1      21.549   1.967  52.112  0.00  0.00    +0.000 A 
ATOM      6  S   UNL     1      19.880   1.864  51.695  0.00  0.00    +0.000 S 
ATOM      7  C   UNL     1      19.720   0.318  52.382  0.00  0.00    +0.000 A 
ATOM      8  C   UNL     1      20.900  -0.115  52.942  0.00  0.00    +0.000 A 
ATOM      9  C   UNL     1      21.980   0.829  52.807  0.00  0.00    +0.000 A 
ENDROOT
BRANCH   7  10
ATOM     10  C   UNL     1      18.461  -0.374  52.297  0.00  0.00    +0.000 C 
ATOM     11  N   UNL     1      17.587  -0.019  51.410  0.00  0.00    +0.000 NA
BRANCH  11  12
ATOM     12  O   UNL     1      16.424  -0.796  51.554  0.00  0.00    +0.000 OA
BRANCH  12  13
ATOM     13  C   UNL     1      15.688  -0.279  52.657  0.00  0.00    +0.000 C 
BRANCH  13  14
ATOM     14  C   UNL     1      14.963   1.011  52.293  0.00  0.00    +0.000 C 
ATOM     15  N   UNL     1      14.753   1.248  50.969  0.00  0.00    +0.000 N 
ATOM     16  O   UNL     1      14.530   1.796  53.137  0.00  0.00    +0.000 OA
ATOM     17  H   UNL     1      15.099   0.619  50.295  0.00  0.00    +0.000 HD
ATOM     18  H   UNL     1      14.253   2.047  50.685  0.00  0.00    +0.000 HD
ENDBRANCH  13  14
ENDBRANCH  12  13
ENDBRANCH  11  12
ENDBRANCH   7  10
BRANCH   1  19
ATOM     19  S   UNL     1      23.945  -0.620  54.107  0.00  0.00    +0.000 S 
BRANCH  19  24
ATOM     20  C   UNL     1      30.043  -0.474  53.615  0.00  0.00    +0.000 C 
ATOM     21  C   UNL     1      28.545  -0.506  53.700  0.00  0.00    +0.000 A 
ATOM     22  C   UNL     1      27.788  -1.179  52.736  0.00  0.00    +0.000 A 
ATOM     23  C   UNL     1      26.392  -1.215  52.818  0.00  0.00    +0.000 A 
ATOM     24  C   UNL     1      25.719  -0.594  53.875  0.00  0.00    +0.000 A 
ATOM     25  C   UNL     1      26.484   0.089  54.834  0.00  0.00    +0.000 A 
ATOM     26  C   UNL     1      27.881   0.137  54.747  0.00  0.00    +0.000 A 
ENDBRANCH  19  24
ENDBRANCH   1  19
TORSDOF 6
ENDMDL
MODEL 9
REMARK VINA RESULT:    -6.716      4.928      8.141
REMARK INTER + INTRA:         -10.040
REMARK INTER:                  -9.383
REMARK INTRA:                  -0.657
REMARK UNBOUND:                -0.967
REMARK  Name = 
REMARK  7 active torsions:
REMARK  status: ('A' for Active; 'I' for Inactive)
REMARK    1  A    between atoms: C_1  and  C_2
REMARK    2  A    between atoms: C_5  and  S_6
REMARK    3  A    between atoms: S_6  and  C_7
REMARK    4  A    between atoms: C_13  and  C_14
REMARK    5  A    between atoms: N_15  and  O_16
REMARK    6  A    between atoms: O_16  and  C_17
REMARK    7  A    between atoms: C_17  and  C_18
REMARK                            x       y       z     vdW  Elec       q    Type
REMARK                         _______ _______ _______ _____ _____    ______ ____
ROOT
ATOM      1  C   UNL     1      23.521  -0.054  53.382  0.00  0.00    +0.000 A 
ATOM      2  C   UNL     1      24.004  -0.725  54.500  0.00  0.00    +0.000 A 
ATOM      3  N   UNL     1      23.242  -1.444  55.352  0.00  0.00    +0.000 NA
ATOM      4  C   UNL     1      21.911  -1.514  55.131  0.00  0.00    +0.000 A 
ATOM      5  C   UNL     1      21.342  -0.843  54.047  0.00  0.00    +0.000 A 
ATOM      6  S   UNL     1      19.674  -0.810  53.610  0.00  0.00    +0.000 S 
ATOM      7  C   UNL     1      19.958   0.214  52.284  0.00  0.00    +0.000 A 
ATOM      8  C   UNL     1      21.294   0.515  52.149  0.00  0.00    +0.000 A 
ATOM      9  C   UNL     1      22.124  -0.095  53.157  0.00  0.00    +0.000 A 
ENDROOT
BRANCH   7  10
ATOM     10  C   UNL     1      18.851   0.675  51.489  0.00  0.00    +0.000 C 
ATOM     11  N   UNL     1      17.977  -0.171  51.044  0.00  0.00    +0.000 NA
BRANCH  11  12
ATOM     12  O   UNL     1      17.028   0.499  50.254  0.00  0.00    +0.000 OA
BRANCH  12  13
ATOM     13  C   UNL     1      15.964   0.912  51.106  0.00  0.00    +0.000 C 
BRANCH  13  14
ATOM     14  C   UNL     1      15.376  -0.263  51.876  0.00  0.00    +0.000 C 
ATOM     15  N   UNL     1      15.717  -0.374  53.189  0.00  0.00    +0.000 N 
ATOM     16  O   UNL     1      14.584  -1.063  51.374  0.00  0.00    +0.000 OA
ATOM     17  H   UNL     1      16.349   0.265  53.589  0.00  0.00    +0.000 HD
ATOM     18  H   UNL     1      15.330  -1.093  53.740  0.00  0.00    +0.000 HD
ENDBRANCH  13  14
ENDBRANCH  12  13
ENDBRANCH  11  12
ENDBRANCH   7  10
BRANCH   1  19
ATOM     19  S   UNL     1      24.569   0.879  52.306  0.00  0.00    +0.000 S 
BRANCH  19  24
ATOM     20  C   UNL     1      30.295  -0.695  53.785  0.00  0.00    +0.000 C 
ATOM     21  C   UNL     1      28.894  -0.330  53.392  0.00  0.00    +0.000 A 
ATOM     22  C   UNL     1      28.036  -1.282  52.833  0.00  0.00    +0.000 A 
ATOM     23  C   UNL     1      26.726  -0.943  52.473  0.00  0.00    +0.000 A 
ATOM     24  C   UNL     1      26.238   0.350  52.680  0.00  0.00    +0.000 A 
ATOM     25  C   UNL     1      27.107   1.305  53.233  0.00  0.00    +0.000 A 
ATOM     26  C   UNL     1      28.421   0.971  53.582  0.00  0.00    +0.000 A 
ENDBRANCH  19  24
ENDBRANCH   1  19
TORSDOF 6
ENDMDL
