MODEL 1
REMARK VINA RESULT:    -8.185      0.000      0.000
REMARK INTER + INTRA:         -10.264
REMARK INTER:                 -10.099
REMARK INTRA:                  -0.165
REMARK UNBOUND:                -0.165
REMARK  Name = 
REMARK  8 active torsions:
REMARK  status: ('A' for Active; 'I' for Inactive)
REMARK    1  A    between atoms: C_1  and  C_2
REMARK    2  A    between atoms: C_5  and  N_6
REMARK    3  A    between atoms: N_6  and  S_7
REMARK    4  A    between atoms: S_7  and  C_10
REMARK    5  A    between atoms: C_15  and  N_16
REMARK    6  A    between atoms: N_16  and  C_17
REMARK    7  A    between atoms: N_16  and  C_18
REMARK    8  A    between atoms: C_23  and  C_24
REMARK                            x       y       z     vdW  Elec       q    Type
REMARK                         _______ _______ _______ _____ _____    ______ ____
ROOT
ATOM      1  C   UNL     1      23.438   1.503  51.617  0.00  0.00    +0.000 A 
ATOM      2  C   UNL     1      23.516   1.990  50.307  0.00  0.00    +0.000 A 
ATOM      3  C   UNL     1      22.415   1.900  49.478  0.00  0.00    +0.000 A 
ATOM      4  C   UNL     1      21.212   1.409  49.985  0.00  0.00    +0.000 A 
ATOM      5  C   UNL     1      21.086   0.859  51.283  0.00  0.00    +0.000 A 
ATOM      6  C   UNL     1      19.839   0.391  51.830  0.00  0.00    +0.000 A 
ATOM      7  C   UNL     1      19.889  -0.320  53.046  0.00  0.00    +0.000 A 
ATOM      8  C   UNL     1      21.079  -0.529  53.733  0.00  0.00    +0.000 A 
ATOM      9  C   UNL     1      22.247   0.051  53.266  0.00  0.00    +0.000 A 
ATOM     10  C   UNL     1      22.278   0.806  52.076  0.00  0.00    +0.000 A 
ENDROOT
BRANCH   1  11
ATOM     11  S   UNL     1      24.839   1.879  52.683  0.00  0.00    +0.000 S 
ATOM     12  O   UNL     1      24.440   2.943  53.580  0.00  0.00    +0.000 OA
ATOM     13  O   UNL     1      25.982   2.038  51.817  0.00  0.00    +0.000 OA
BRANCH  11  14
ATOM     14  N   UNL     1      25.158   0.511  53.654  0.00  0.00    +0.000 N 
ATOM     15  H   UNL     1      24.438  -0.048  54.027  0.00  0.00    +0.000 HD
BRANCH  14  20
ATOM     16  C   UNL     1      29.870  -1.211  53.562  0.00  0.00    +0.000 C 
ATOM     17  C   UNL     1      28.580  -0.561  53.893  0.00  0.00    +0.000 A 
ATOM     18  N   UNL     1      28.554   0.393  54.831  0.00  0.00    +0.000 NA
ATOM     19  O   UNL     1      27.258   0.861  54.850  0.00  0.00    +0.000 OA
ATOM     20  C   UNL     1      26.531   0.238  53.887  0.00  0.00    +0.000 A 
ATOM     21  C   UNL     1      27.286  -0.779  53.337  0.00  0.00    +0.000 A 
ATOM     22  C   UNL     1      26.862  -1.875  52.433  0.00  0.00    +0.000 C 
ENDBRANCH  14  20
ENDBRANCH  11  14
ENDBRANCH   1  11
BRANCH   6  23
ATOM     23  N   UNL     1      18.582   0.706  51.268  0.00  0.00    +0.000 N 
ATOM     24  C   UNL     1      18.068   2.064  51.466  0.00  0.00    +0.000 C 
ATOM     25  C   UNL     1      17.553  -0.327  51.161  0.00  0.00    +0.000 C 
ENDBRANCH   6  23
TORSDOF 4
ENDMDL
MODEL 2
REMARK VINA RESULT:    -7.997      1.615      2.673
REMARK INTER + INTRA:         -10.033
REMARK INTER:                  -9.559
REMARK INTRA:                  -0.474
REMARK UNBOUND:                -0.165
REMARK  Name = 
REMARK  8 active torsions:
REMARK  status: ('A' for Active; 'I' for Inactive)
REMARK    1  A    between atoms: C_1  and  C_2
REMARK    2  A    between atoms: C_5  and  N_6
REMARK    3  A    between atoms: N_6  and  S_7
REMARK    4  A    between atoms: S_7  and  C_10
REMARK    5  A    between atoms: C_15  and  N_16
REMARK    6  A    between atoms: N_16  and  C_17
REMARK    7  A    between atoms: N_16  and  C_18
REMARK    8  A    between atoms: C_23  and  C_24
REMARK                            x       y       z     vdW  Elec       q    Type
REMARK                         _______ _______ _______ _____ _____    ______ ____
ROOT
ATOM      1  C   UNL     1      22.678   1.465  52.969  0.00  0.00    +0.000 A 
ATOM      2  C   UNL     1      22.037   0.359  53.540  0.00  0.00    +0.000 A 
ATOM      3  C   UNL     1      20.663   0.247  53.457  0.00  0.00    +0.000 A 
ATOM      4  C   UNL     1      19.941   1.189  52.725  0.00  0.00    +0.000 A 
ATOM      5  C   UNL     1      20.526   2.351  52.168  0.00  0.00    +0.000 A 
ATOM      6  C   UNL     1      19.796   3.306  51.374  0.00  0.00    +0.000 A 
ATOM      7  C   UNL     1      20.444   4.517  51.056  0.00  0.00    +0.000 A 
ATOM      8  C   UNL     1      21.753   4.779  51.441  0.00  0.00    +0.000 A 
ATOM      9  C   UNL     1      22.487   3.793  52.080  0.00  0.00    +0.000 A 
ATOM     10  C   UNL     1      21.925   2.541  52.404  0.00  0.00    +0.000 A 
ENDROOT
BRANCH   1  11
ATOM     11  S   UNL     1      24.476   1.400  52.926  0.00  0.00    +0.000 S 
ATOM     12  O   UNL     1      24.979   2.536  53.669  0.00  0.00    +0.000 OA
ATOM     13  O   UNL     1      24.845   1.205  51.544  0.00  0.00    +0.000 OA
BRANCH  11  14
ATOM     14  N   UNL     1      24.984   0.002  53.762  0.00  0.00    +0.000 N 
ATOM     15  H   UNL     1      24.348  -0.670  54.100  0.00  0.00    +0.000 HD
BRANCH  14  20
ATOM     16  C   UNL     1      29.865  -1.104  53.389  0.00  0.00    +0.000 C 
ATOM     17  C   UNL     1      28.516  -0.661  53.817  0.00  0.00    +0.000 A 
ATOM     18  N   UNL     1      28.404   0.167  54.861  0.00  0.00    +0.000 NA
ATOM     19  O   UNL     1      27.062   0.466  54.958  0.00  0.00    +0.000 OA
ATOM     20  C   UNL     1      26.386  -0.126  53.939  0.00  0.00    +0.000 A 
ATOM     21  C   UNL     1      27.241  -0.971  53.260  0.00  0.00    +0.000 A 
ATOM     22  C   UNL     1      26.925  -1.998  52.238  0.00  0.00    +0.000 C 
ENDBRANCH  14  20
ENDBRANCH  11  14
ENDBRANCH   1  11
BRANCH   6  23
ATOM     23  N   UNL     1      18.526   3.037  50.816  0.00  0.00    +0.000 N 
ATOM     24  C   UNL     1      18.460   2.743  49.382  0.00  0.00    +0.000 C 
ATOM     25  C   UNL     1      17.339   3.694  51.361  0.00  0.00    +0.000 C 
ENDBRANCH   6  23
TORSDOF 4
ENDMDL
MODEL 3
REMARK VINA RESULT:    -7.805      4.175      6.067
REMARK INTER + INTRA:          -9.796
REMARK INTER:                  -9.713
REMARK INTRA:                  -0.083
REMARK UNBOUND:                -0.165
REMARK  Name = 
REMARK  8 active torsions:
REMARK  status: ('A' for Active; 'I' for Inactive)
REMARK    1  A    between atoms: C_1  and  C_2
REMARK    2  A    between atoms: C_5  and  N_6
REMARK    3  A    between atoms: N_6  and  S_7
REMARK    4  A    between atoms: S_7  and  C_10
REMARK    5  A    between atoms: C_15  and  N_16
REMARK    6  A    between atoms: N_16  and  C_17
REMARK    7  A    between atoms: N_16  and  C_18
REMARK    8  A    between atoms: C_23  and  C_24
REMARK                            x       y       z     vdW  Elec       q    Type
REMARK                         _______ _______ _______ _____ _____    ______ ____
ROOT
ATOM      1  C   UNL     1      25.195   3.581  50.878  0.00  0.00    +0.000 A 
ATOM      2  C   UNL     1      26.200   3.019  50.082  0.00  0.00    +0.000 A 
ATOM      3  C   UNL     1      26.867   3.807  49.165  0.00  0.00    +0.000 A 
ATOM      4  C   UNL     1      26.595   5.173  49.108  0.00  0.00    +0.000 A 
ATOM      5  C   UNL     1      25.559   5.789  49.851  0.00  0.00    +0.000 A 
ATOM      6  C   UNL     1      25.300   7.205  49.832  0.00  0.00    +0.000 A 
ATOM      7  C   UNL     1      24.117   7.658  50.451  0.00  0.00    +0.000 A 
ATOM      8  C   UNL     1      23.246   6.794  51.103  0.00  0.00    +0.000 A 
ATOM      9  C   UNL     1      23.582   5.457  51.235  0.00  0.00    +0.000 A 
ATOM     10  C   UNL     1      24.764   4.929  50.676  0.00  0.00    +0.000 A 
ENDROOT
BRANCH   1  11
ATOM     11  S   UNL     1      24.555   2.536  52.197  0.00  0.00    +0.000 S 
ATOM     12  O   UNL     1      24.705   1.158  51.782  0.00  0.00    +0.000 OA
ATOM     13  O   UNL     1      23.257   3.062  52.542  0.00  0.00    +0.000 OA
BRANCH  11  14
ATOM     14  N   UNL     1      25.541   2.745  53.574  0.00  0.00    +0.000 N 
ATOM     15  H   UNL     1      25.289   3.342  54.316  0.00  0.00    +0.000 HD
BRANCH  14  20
ATOM     16  C   UNL     1      29.108  -0.759  53.995  0.00  0.00    +0.000 C 
ATOM     17  C   UNL     1      28.328   0.489  53.820  0.00  0.00    +0.000 A 
ATOM     18  N   UNL     1      28.921   1.554  53.269  0.00  0.00    +0.000 NA
ATOM     19  O   UNL     1      27.936   2.512  53.156  0.00  0.00    +0.000 OA
ATOM     20  C   UNL     1      26.749   2.001  53.575  0.00  0.00    +0.000 A 
ATOM     21  C   UNL     1      26.966   0.759  54.140  0.00  0.00    +0.000 A 
ATOM     22  C   UNL     1      26.040  -0.080  54.938  0.00  0.00    +0.000 C 
ENDBRANCH  14  20
ENDBRANCH  11  14
ENDBRANCH   1  11
BRANCH   6  23
ATOM     23  N   UNL     1      26.220   8.152  49.328  0.00  0.00    +0.000 N 
ATOM     24  C   UNL     1      26.927   8.996  50.295  0.00  0.00    +0.000 C 
ATOM     25  C   UNL     1      25.979   8.779  48.029  0.00  0.00    +0.000 C 
ENDBRANCH   6  23
TORSDOF 4
ENDMDL
MODEL 4
REMARK VINA RESULT:    -7.803      2.606      7.019
REMARK INTER + INTRA:          -9.793
REMARK INTER:                  -9.469
REMARK INTRA:                  -0.325
REMARK UNBOUND:                -0.165
REMARK  Name = 
REMARK  8 active torsions:
REMARK  status: ('A' for Active; 'I' for Inactive)
REMARK    1  A    between atoms: C_1  and  C_2
REMARK    2  A    between atoms: C_5  and  N_6
REMARK    3  A    between atoms: N_6  and  S_7
REMARK    4  A    between atoms: S_7  and  C_10
REMARK    5  A    between atoms: C_15  and  N_16
REMARK    6  A    between atoms: N_16  and  C_17
REMARK    7  A    between atoms: N_16  and  C_18
REMARK    8  A    between atoms: C_23  and  C_24
REMARK                            x       y       z     vdW  Elec       q    Type
REMARK                         _______ _______ _______ _____ _____    ______ ____
ROOT
ATOM      1  C   UNL     1      23.746   1.769  51.632  0.00  0.00    +0.000 A 
ATOM      2  C   UNL     1      24.390   2.735  50.850  0.00  0.00    +0.000 A 
ATOM      3  C   UNL     1      25.764   2.862  50.915  0.00  0.00    +0.000 A 
ATOM      4  C   UNL     1      26.500   1.965  51.688  0.00  0.00    +0.000 A 
ATOM      5  C   UNL     1      25.903   1.001  52.535  0.00  0.00    +0.000 A 
ATOM      6  C   UNL     1      26.655   0.042  53.303  0.00  0.00    +0.000 A 
ATOM      7  C   UNL     1      25.953  -0.720  54.258  0.00  0.00    +0.000 A 
ATOM      8  C   UNL     1      24.579  -0.603  54.434  0.00  0.00    +0.000 A 
ATOM      9  C   UNL     1      23.851   0.219  53.590  0.00  0.00    +0.000 A 
ATOM     10  C   UNL     1      24.472   0.990  52.585  0.00  0.00    +0.000 A 
ENDROOT
BRANCH   1  11
ATOM     11  S   UNL     1      21.993   1.525  51.301  0.00  0.00    +0.000 S 
ATOM     12  O   UNL     1      21.843   0.259  50.617  0.00  0.00    +0.000 OA
ATOM     13  O   UNL     1      21.518   2.747  50.697  0.00  0.00    +0.000 OA
BRANCH  11  14
ATOM     14  N   UNL     1      21.180   1.378  52.794  0.00  0.00    +0.000 N 
ATOM     15  H   UNL     1      21.468   1.863  53.600  0.00  0.00    +0.000 HD
BRANCH  14  20
ATOM     16  C   UNL     1      17.832  -2.261  53.653  0.00  0.00    +0.000 C 
ATOM     17  C   UNL     1      18.619  -1.124  53.119  0.00  0.00    +0.000 A 
ATOM     18  N   UNL     1      18.063  -0.318  52.207  0.00  0.00    +0.000 NA
ATOM     19  O   UNL     1      18.987   0.678  51.976  0.00  0.00    +0.000 OA
ATOM     20  C   UNL     1      20.060   0.506  52.792  0.00  0.00    +0.000 A 
ATOM     21  C   UNL     1      19.943  -0.706  53.444  0.00  0.00    +0.000 A 
ATOM     22  C   UNL     1      20.952  -1.439  54.244  0.00  0.00    +0.000 C 
ENDBRANCH  14  20
ENDBRANCH  11  14
ENDBRANCH   1  11
BRANCH   6  23
ATOM     23  N   UNL     1      28.019  -0.240  53.064  0.00  0.00    +0.000 N 
ATOM     24  C   UNL     1      28.403  -1.643  52.890  0.00  0.00    +0.000 C 
ATOM     25  C   UNL     1      29.051   0.609  53.656  0.00  0.00    +0.000 C 
ENDBRANCH   6  23
TORSDOF 4
ENDMDL
MODEL 5
REMARK VINA RESULT:    -7.732      3.675      7.197
REMARK INTER + INTRA:          -9.705
REMARK INTER:                  -9.024
REMARK INTRA:                  -0.681
REMARK UNBOUND:                -0.165
REMARK  Name = 
REMARK  8 active torsions:
REMARK  status: ('A' for Active; 'I' for Inactive)
REMARK    1  A    between atoms: C_1  and  C_2
REMARK    2  A    between atoms: C_5  and  N_6
REMARK    3  A    between atoms: N_6  and  S_7
REMARK    4  A    between atoms: S_7  and  C_10
REMARK    5  A    between atoms: C_15  and  N_16
REMARK    6  A    between atoms: N_16  and  C_17
REMARK    7  A    between atoms: N_16  and  C_18
REMARK    8  A    between atoms: C_23  and  C_24
REMARK                            x       y       z     vdW  Elec       q    Type
REMARK                         _______ _______ _______ _____ _____    ______ ____
ROOT
ATOM      1  C   UNL     1      22.591   1.883  52.153  0.00  0.00    +0.000 A 
ATOM      2  C   UNL     1      21.809   0.908  52.783  0.00  0.00    +0.000 A 
ATOM      3  C   UNL     1      22.411  -0.220  53.304  0.00  0.00    +0.000 A 
ATOM      4  C   UNL     1      23.800  -0.330  53.278  0.00  0.00    +0.000 A 
ATOM      5  C   UNL     1      24.639   0.597  52.614  0.00  0.00    +0.000 A 
ATOM      6  C   UNL     1      26.077   0.516  52.620  0.00  0.00    +0.000 A 
ATOM      7  C   UNL     1      26.780   1.377  51.754  0.00  0.00    +0.000 A 
ATOM      8  C   UNL     1      26.133   2.311  50.953  0.00  0.00    +0.000 A 
ATOM      9  C   UNL     1      24.763   2.474  51.066  0.00  0.00    +0.000 A 
ATOM     10  C   UNL     1      23.988   1.677  51.934  0.00  0.00    +0.000 A 
ENDROOT
BRANCH   1  11
ATOM     11  S   UNL     1      21.748   3.414  51.720  0.00  0.00    +0.000 S 
ATOM     12  O   UNL     1      20.562   3.514  52.544  0.00  0.00    +0.000 OA
ATOM     13  O   UNL     1      21.646   3.432  50.281  0.00  0.00    +0.000 OA
BRANCH  11  14
ATOM     14  N   UNL     1      22.757   4.722  52.149  0.00  0.00    +0.000 N 
ATOM     15  H   UNL     1      23.377   4.681  52.912  0.00  0.00    +0.000 HD
BRANCH  14  20
ATOM     16  C   UNL     1      23.437   8.480  48.892  0.00  0.00    +0.000 C 
ATOM     17  C   UNL     1      22.958   7.560  49.952  0.00  0.00    +0.000 A 
ATOM     18  N   UNL     1      21.709   7.692  50.412  0.00  0.00    +0.000 NA
ATOM     19  O   UNL     1      21.529   6.657  51.305  0.00  0.00    +0.000 OA
ATOM     20  C   UNL     1      22.639   5.874  51.328  0.00  0.00    +0.000 A 
ATOM     21  C   UNL     1      23.636   6.480  50.589  0.00  0.00    +0.000 A 
ATOM     22  C   UNL     1      25.077   6.143  50.509  0.00  0.00    +0.000 C 
ENDBRANCH  14  20
ENDBRANCH  11  14
ENDBRANCH   1  11
BRANCH   6  23
ATOM     23  N   UNL     1      26.801  -0.296  53.522  0.00  0.00    +0.000 N 
ATOM     24  C   UNL     1      27.293   0.327  54.754  0.00  0.00    +0.000 C 
ATOM     25  C   UNL     1      27.631  -1.386  53.013  0.00  0.00    +0.000 C 
ENDBRANCH   6  23
TORSDOF 4
ENDMDL
MODEL 6
REMARK VINA RESULT:    -7.686      3.529      6.944
REMARK INTER + INTRA:          -9.648
REMARK INTER:                  -8.912
REMARK INTRA:                  -0.736
REMARK UNBOUND:                -0.165
REMARK  Name = 
REMARK  8 active torsions:
REMARK  status: ('A' for Active; 'I' for Inactive)
REMARK    1  A    between atoms: C_1  and  C_2
REMARK    2  A    between atoms: C_5  and  N_6
REMARK    3  A    between atoms: N_6  and  S_7
REMARK    4  A    between atoms: S_7  and  C_10
REMARK    5  A    between atoms: C_15  and  N_16
REMARK    6  A    between atoms: N_16  and  C_17
REMARK    7  A    between atoms: N_16  and  C_18
REMARK    8  A    between atoms: C_23  and  C_24
REMARK                            x       y       z     vdW  Elec       q    Type
REMARK                         _______ _______ _______ _____ _____    ______ ____
ROOT
ATOM      1  C   UNL     1      24.127   2.244  50.580  0.00  0.00    +0.000 A 
ATOM      2  C   UNL     1      25.163   2.991  50.007  0.00  0.00    +0.000 A 
ATOM      3  C   UNL     1      26.447   2.871  50.502  0.00  0.00    +0.000 A 
ATOM      4  C   UNL     1      26.711   1.939  51.505  0.00  0.00    +0.000 A 
ATOM      5  C   UNL     1      25.699   1.192  52.155  0.00  0.00    +0.000 A 
ATOM      6  C   UNL     1      25.967   0.196  53.160  0.00  0.00    +0.000 A 
ATOM      7  C   UNL     1      24.865  -0.323  53.870  0.00  0.00    +0.000 A 
ATOM      8  C   UNL     1      23.559   0.061  53.593  0.00  0.00    +0.000 A 
ATOM      9  C   UNL     1      23.308   0.911  52.529  0.00  0.00    +0.000 A 
ATOM     10  C   UNL     1      24.350   1.448  51.746  0.00  0.00    +0.000 A 
ENDROOT
BRANCH   1  11
ATOM     11  S   UNL     1      22.548   2.293  49.716  0.00  0.00    +0.000 S 
ATOM     12  O   UNL     1      21.899   1.013  49.907  0.00  0.00    +0.000 OA
ATOM     13  O   UNL     1      22.823   2.786  48.389  0.00  0.00    +0.000 OA
BRANCH  11  14
ATOM     14  N   UNL     1      21.559   3.463  50.470  0.00  0.00    +0.000 N 
ATOM     15  H   UNL     1      20.742   3.223  50.963  0.00  0.00    +0.000 HD
BRANCH  14  20
ATOM     16  C   UNL     1      23.822   7.921  50.904  0.00  0.00    +0.000 C 
ATOM     17  C   UNL     1      22.938   6.781  50.563  0.00  0.00    +0.000 A 
ATOM     18  N   UNL     1      22.129   6.879  49.502  0.00  0.00    +0.000 NA
ATOM     19  O   UNL     1      21.512   5.652  49.389  0.00  0.00    +0.000 OA
ATOM     20  C   UNL     1      21.997   4.807  50.334  0.00  0.00    +0.000 A 
ATOM     21  C   UNL     1      22.808   5.513  51.200  0.00  0.00    +0.000 A 
ATOM     22  C   UNL     1      23.370   5.095  52.506  0.00  0.00    +0.000 C 
ENDBRANCH  14  20
ENDBRANCH  11  14
ENDBRANCH   1  11
BRANCH   6  23
ATOM     23  N   UNL     1      27.249  -0.354  53.380  0.00  0.00    +0.000 N 
ATOM     24  C   UNL     1      27.494  -1.721  52.913  0.00  0.00    +0.000 C 
ATOM     25  C   UNL     1      28.013   0.034  54.565  0.00  0.00    +0.000 C 
ENDBRANCH   6  23
TORSDOF 4
ENDMDL
MODEL 7
REMARK VINA RESULT:    -7.658      2.471      7.751
REMARK INTER + INTRA:          -9.614
REMARK INTER:                  -8.971
REMARK INTRA:                  -0.643
REMARK UNBOUND:                -0.165
REMARK  Name = 
REMARK  8 active torsions:
REMARK  status: ('A' for Active; 'I' for Inactive)
REMARK    1  A    between atoms: C_1  and  C_2
REMARK    2  A    between atoms: C_5  and  N_6
REMARK    3  A    between atoms: N_6  and  S_7
REMARK    4  A    between atoms: S_7  and  C_10
REMARK    5  A    between atoms: C_15  and  N_16
REMARK    6  A    between atoms: N_16  and  C_17
REMARK    7  A    between atoms: N_16  and  C_18
REMARK    8  A    between atoms: C_23  and  C_24
REMARK                            x       y       z     vdW  Elec       q    Type
REMARK                         _______ _______ _______ _____ _____    ______ ____
ROOT
ATOM      1  C   UNL     1      22.632   1.667  52.312  0.00  0.00    +0.000 A 
ATOM      2  C   UNL     1      21.934   0.642  52.962  0.00  0.00    +0.000 A 
ATOM      3  C   UNL     1      22.624  -0.446  53.459  0.00  0.00    +0.000 A 
ATOM      4  C   UNL     1      24.017  -0.466  53.391  0.00  0.00    +0.000 A 
ATOM      5  C   UNL     1      24.772   0.516  52.706  0.00  0.00    +0.000 A 
ATOM      6  C   UNL     1      26.212   0.528  52.668  0.00  0.00    +0.000 A 
ATOM      7  C   UNL     1      26.831   1.435  51.784  0.00  0.00    +0.000 A 
ATOM      8  C   UNL     1      26.101   2.327  51.007  0.00  0.00    +0.000 A 
ATOM      9  C   UNL     1      24.727   2.400  51.162  0.00  0.00    +0.000 A 
ATOM     10  C   UNL     1      24.033   1.552  52.050  0.00  0.00    +0.000 A 
ENDROOT
BRANCH   1  11
ATOM     11  S   UNL     1      21.679   3.141  51.913  0.00  0.00    +0.000 S 
ATOM     12  O   UNL     1      21.451   3.146  50.483  0.00  0.00    +0.000 OA
ATOM     13  O   UNL     1      22.348   4.247  52.553  0.00  0.00    +0.000 OA
BRANCH  11  14
ATOM     14  N   UNL     1      20.148   3.008  52.655  0.00  0.00    +0.000 N 
ATOM     15  H   UNL     1      20.041   2.933  53.631  0.00  0.00    +0.000 HD
BRANCH  14  20
ATOM     16  C   UNL     1      16.241   1.849  49.726  0.00  0.00    +0.000 C 
ATOM     17  C   UNL     1      17.369   2.502  50.432  0.00  0.00    +0.000 A 
ATOM     18  N   UNL     1      17.471   3.836  50.400  0.00  0.00    +0.000 NA
ATOM     19  O   UNL     1      18.545   4.147  51.206  0.00  0.00    +0.000 OA
ATOM     20  C   UNL     1      19.040   3.013  51.768  0.00  0.00    +0.000 A 
ATOM     21  C   UNL     1      18.417   1.919  51.201  0.00  0.00    +0.000 A 
ATOM     22  C   UNL     1      18.771   0.483  51.308  0.00  0.00    +0.000 C 
ENDBRANCH  14  20
ENDBRANCH  11  14
ENDBRANCH   1  11
BRANCH   6  23
ATOM     23  N   UNL     1      27.014  -0.237  53.544  0.00  0.00    +0.000 N 
ATOM     24  C   UNL     1      27.627   0.452  54.683  0.00  0.00    +0.000 C 
ATOM     25  C   UNL     1      27.785  -1.366  53.025  0.00  0.00    +0.000 C 
ENDBRANCH   6  23
TORSDOF 4
ENDMDL
MODEL 8
REMARK VINA RESULT:    -7.468      4.912      7.553
REMARK INTER + INTRA:          -9.380
REMARK INTER:                  -9.201
REMARK INTRA:                  -0.179
REMARK UNBOUND:                -0.165
REMARK  Name = 
REMARK  8 active torsions:
REMARK  status: ('A' for Active; 'I' for Inactive)
REMARK    1  A    between atoms: C_1  and  C_2
REMARK    2  A    between atoms: C_5  and  N_6
REMARK    3  A    between atoms: N_6  and  S_7
REMARK    4  A    between atoms: S_7  and  C_10
REMARK    5  A    between atoms: C_15  and  N_16
REMARK    6  A    between atoms: N_16  and  C_17
REMARK    7  A    between atoms: N_16  and  C_18
REMARK    8  A    between atoms: C_23  and  C_24
REMARK                            x       y       z     vdW  Elec       q    Type
REMARK                         _______ _______ _______ _____ _____    ______ ____
ROOT
ATOM      1  C   UNL     1      24.243   5.171  50.409  0.00  0.00    +0.000 A 
ATOM      2  C   UNL     1      23.561   6.226  51.025  0.00  0.00    +0.000 A 
ATOM      3  C   UNL     1      24.079   7.505  50.960  0.00  0.00    +0.000 A 
ATOM      4  C   UNL     1      25.225   7.744  50.204  0.00  0.00    +0.000 A 
ATOM      5  C   UNL     1      25.983   6.712  49.600  0.00  0.00    +0.000 A 
ATOM      6  C   UNL     1      27.143   6.953  48.780  0.00  0.00    +0.000 A 
ATOM      7  C   UNL     1      27.922   5.837  48.413  0.00  0.00    +0.000 A 
ATOM      8  C   UNL     1      27.575   4.541  48.775  0.00  0.00    +0.000 A 
ATOM      9  C   UNL     1      26.382   4.314  49.440  0.00  0.00    +0.000 A 
ATOM     10  C   UNL     1      25.527   5.371  49.814  0.00  0.00    +0.000 A 
ENDROOT
BRANCH   1  11
ATOM     11  S   UNL     1      23.372   3.596  50.348  0.00  0.00    +0.000 S 
ATOM     12  O   UNL     1      23.277   3.196  48.960  0.00  0.00    +0.000 OA
ATOM     13  O   UNL     1      22.182   3.756  51.149  0.00  0.00    +0.000 OA
BRANCH  11  14
ATOM     14  N   UNL     1      24.328   2.422  51.135  0.00  0.00    +0.000 N 
ATOM     15  H   UNL     1      25.313   2.444  51.112  0.00  0.00    +0.000 HD
BRANCH  14  20
ATOM     16  C   UNL     1      22.654  -1.030  54.369  0.00  0.00    +0.000 C 
ATOM     17  C   UNL     1      22.904  -0.148  53.204  0.00  0.00    +0.000 A 
ATOM     18  N   UNL     1      21.982  -0.070  52.238  0.00  0.00    +0.000 NA
ATOM     19  O   UNL     1      22.448   0.879  51.353  0.00  0.00    +0.000 OA
ATOM     20  C   UNL     1      23.607   1.411  51.822  0.00  0.00    +0.000 A 
ATOM     21  C   UNL     1      24.018   0.696  52.929  0.00  0.00    +0.000 A 
ATOM     22  C   UNL     1      25.319   0.739  53.639  0.00  0.00    +0.000 C 
ENDBRANCH  14  20
ENDBRANCH  11  14
ENDBRANCH   1  11
BRANCH   6  23
ATOM     23  N   UNL     1      27.461   8.221  48.246  0.00  0.00    +0.000 N 
ATOM     24  C   UNL     1      26.936   8.553  46.919  0.00  0.00    +0.000 C 
ATOM     25  C   UNL     1      28.743   8.846  48.571  0.00  0.00    +0.000 C 
ENDBRANCH   6  23
TORSDOF 4
ENDMDL
MODEL 9
REMARK VINA RESULT:    -7.444      3.172      5.185
REMARK INTER + INTRA:          -9.350
REMARK INTER:                  -8.786
REMARK INTRA:                  -0.563
REMARK UNBOUND:                -0.165
REMARK  Name = 
REMARK  8 active torsions:
REMARK  status: ('A' for Active; 'I' for Inactive)
REMARK    1  A    between atoms: C_1  and  C_2
REMARK    2  A    between atoms: C_5  and  N_6
REMARK    3  A    between atoms: N_6  and  S_7
REMARK    4  A    between atoms: S_7  and  C_10
REMARK    5  A    between atoms: C_15  and  N_16
REMARK    6  A    between atoms: N_16  and  C_17
REMARK    7  A    between atoms: N_16  and  C_18
REMARK    8  A    between atoms: C_23  and  C_24
REMARK                            x       y       z     vdW  Elec       q    Type
REMARK                         _______ _______ _______ _____ _____    ______ ____
ROOT
ATOM      1  C   UNL     1      23.073   1.890  50.865  0.00  0.00    +0.000 A 
ATOM      2  C   UNL     1      22.738   1.939  49.507  0.00  0.00    +0.000 A 
ATOM      3  C   UNL     1      21.573   1.341  49.068  0.00  0.00    +0.000 A 
ATOM      4  C   UNL     1      20.700   0.777  49.997  0.00  0.00    +0.000 A 
ATOM      5  C   UNL     1      21.006   0.654  51.374  0.00  0.00    +0.000 A 
ATOM      6  C   UNL     1      20.092   0.114  52.346  0.00  0.00    +0.000 A 
ATOM      7  C   UNL     1      20.594  -0.142  53.638  0.00  0.00    +0.000 A 
ATOM      8  C   UNL     1      21.904   0.156  53.995  0.00  0.00    +0.000 A 
ATOM      9  C   UNL     1      22.727   0.807  53.091  0.00  0.00    +0.000 A 
ATOM     10  C   UNL     1      22.291   1.130  51.789  0.00  0.00    +0.000 A 
ENDROOT
BRANCH   1  11
ATOM     11  S   UNL     1      24.480   2.894  51.368  0.00  0.00    +0.000 S 
ATOM     12  O   UNL     1      24.989   3.565  50.191  0.00  0.00    +0.000 OA
ATOM     13  O   UNL     1      25.335   2.037  52.153  0.00  0.00    +0.000 OA
BRANCH  11  14
ATOM     14  N   UNL     1      23.920   4.113  52.424  0.00  0.00    +0.000 N 
ATOM     15  H   UNL     1      23.943   4.012  53.404  0.00  0.00    +0.000 HD
BRANCH  14  20
ATOM     16  C   UNL     1      21.084   7.721  50.393  0.00  0.00    +0.000 C 
ATOM     17  C   UNL     1      22.184   6.833  50.843  0.00  0.00    +0.000 A 
ATOM     18  N   UNL     1      23.443   7.280  50.790  0.00  0.00    +0.000 NA
ATOM     19  O   UNL     1      24.216   6.285  51.349  0.00  0.00    +0.000 OA
ATOM     20  C   UNL     1      23.417   5.280  51.793  0.00  0.00    +0.000 A 
ATOM     21  C   UNL     1      22.123   5.512  51.372  0.00  0.00    +0.000 A 
ATOM     22  C   UNL     1      20.953   4.601  51.401  0.00  0.00    +0.000 C 
ENDBRANCH  14  20
ENDBRANCH  11  14
ENDBRANCH   1  11
BRANCH   6  23
ATOM     23  N   UNL     1      18.712  -0.062  52.096  0.00  0.00    +0.000 N 
ATOM     24  C   UNL     1      17.937   1.117  51.700  0.00  0.00    +0.000 C 
ATOM     25  C   UNL     1      17.959  -1.066  52.847  0.00  0.00    +0.000 C 
ENDBRANCH   6  23
TORSDOF 4
ENDMDL
