MODEL 1
REMARK VINA RESULT:    -8.178      0.000      0.000
REMARK INTER + INTRA:         -12.122
REMARK INTER:                 -11.524
REMARK INTRA:                  -0.598
REMARK UNBOUND:                -0.598
REMARK  Name = 
REMARK  8 active torsions:
REMARK  status: ('A' for Active; 'I' for Inactive)
REMARK    1  A    between atoms: C_1  and  C_2
REMARK    2  A    between atoms: C_5  and  S_6
REMARK    3  A    between atoms: S_6  and  C_7
REMARK    4  A    between atoms: C_13  and  C_14
REMARK    5  A    between atoms: N_16  and  C_17
REMARK    6  A    between atoms: C_17  and  C_18
REMARK    7  A    between atoms: C_18  and  C_19
REMARK    8  A    between atoms: C_19  and  N_20
REMARK                            x       y       z     vdW  Elec       q    Type
REMARK                         _______ _______ _______ _____ _____    ______ ____
ROOT
ATOM      1  C   UNL     1      23.367   0.179  53.421  0.00  0.00    +0.000 A 
ATOM      2  C   UNL     1      23.752  -0.688  54.435  0.00  0.00    +0.000 A 
ATOM      3  N   UNL     1      22.910  -1.515  55.088  0.00  0.00    +0.000 NA
ATOM      4  C   UNL     1      21.598  -1.507  54.754  0.00  0.00    +0.000 A 
ATOM      5  C   UNL     1      21.123  -0.624  53.778  0.00  0.00    +0.000 A 
ATOM      6  S   UNL     1      19.495  -0.440  53.233  0.00  0.00    +0.000 S 
ATOM      7  C   UNL     1      19.885   0.871  52.218  0.00  0.00    +0.000 A 
ATOM      8  C   UNL     1      21.250   1.088  52.203  0.00  0.00    +0.000 A 
ATOM      9  C   UNL     1      21.985   0.249  53.107  0.00  0.00    +0.000 A 
ENDROOT
BRANCH   7  10
ATOM     10  C   UNL     1      18.898   1.660  51.490  0.00  0.00    +0.000 C 
ATOM     11  O   UNL     1      18.392   1.254  50.443  0.00  0.00    +0.000 OA
ATOM     12  N   UNL     1      18.573   2.897  52.013  0.00  0.00    +0.000 N 
ATOM     13  H   UNL     1      18.857   3.116  52.930  0.00  0.00    +0.000 HD
BRANCH  12  14
ATOM     14  C   UNL     1      17.825   3.888  51.253  0.00  0.00    +0.000 C 
BRANCH  14  15
ATOM     15  C   UNL     1      16.458   4.300  51.817  0.00  0.00    +0.000 C 
BRANCH  15  16
ATOM     16  C   UNL     1      15.443   3.152  51.908  0.00  0.00    +0.000 C 
BRANCH  16  17
ATOM     17  N   UNL     1      14.770   3.050  53.218  0.00  0.00    +0.000 N 
ATOM     18  C   UNL     1      13.778   1.946  53.236  0.00  0.00    +0.000 C 
ATOM     19  C   UNL     1      12.453   2.276  52.523  0.00  0.00    +0.000 C 
ATOM     20  O   UNL     1      11.850   3.455  53.066  0.00  0.00    +0.000 OA
ATOM     21  C   UNL     1      12.747   4.569  52.961  0.00  0.00    +0.000 C 
ATOM     22  C   UNL     1      14.081   4.281  53.668  0.00  0.00    +0.000 C 
ATOM     23  H   UNL     1      15.538   2.873  53.868  0.00  0.00    +0.000 HD
ENDBRANCH  16  17
ENDBRANCH  15  16
ENDBRANCH  14  15
ENDBRANCH  12  14
ENDBRANCH   7  10
BRANCH   1  24
ATOM     24  S   UNL     1      24.526   1.166  52.528  0.00  0.00    +0.000 S 
BRANCH  24  29
ATOM     25  C   UNL     1      29.996  -1.241  53.835  0.00  0.00    +0.000 C 
ATOM     26  C   UNL     1      28.645  -0.644  53.571  0.00  0.00    +0.000 A 
ATOM     27  C   UNL     1      28.256   0.554  54.175  0.00  0.00    +0.000 A 
ATOM     28  C   UNL     1      27.007   1.120  53.895  0.00  0.00    +0.000 A 
ATOM     29  C   UNL     1      26.122   0.502  53.002  0.00  0.00    +0.000 A 
ATOM     30  C   UNL     1      26.508  -0.712  52.421  0.00  0.00    +0.000 A 
ATOM     31  C   UNL     1      27.756  -1.279  52.700  0.00  0.00    +0.000 A 
ENDBRANCH  24  29
ENDBRANCH   1  24
TORSDOF 7
ENDMDL
MODEL 2
REMARK VINA RESULT:    -8.152      4.541      9.109
REMARK INTER + INTRA:         -12.086
REMARK INTER:                 -10.873
REMARK INTRA:                  -1.212
REMARK UNBOUND:                -0.598
REMARK  Name = 
REMARK  8 active torsions:
REMARK  status: ('A' for Active; 'I' for Inactive)
REMARK    1  A    between atoms: C_1  and  C_2
REMARK    2  A    between atoms: C_5  and  S_6
REMARK    3  A    between atoms: S_6  and  C_7
REMARK    4  A    between atoms: C_13  and  C_14
REMARK    5  A    between atoms: N_16  and  C_17
REMARK    6  A    between atoms: C_17  and  C_18
REMARK    7  A    between atoms: C_18  and  C_19
REMARK    8  A    between atoms: C_19  and  N_20
REMARK                            x       y       z     vdW  Elec       q    Type
REMARK                         _______ _______ _______ _____ _____    ______ ____
ROOT
ATOM      1  C   UNL     1      21.823   4.115  50.156  0.00  0.00    +0.000 A 
ATOM      2  C   UNL     1      21.276   4.281  48.891  0.00  0.00    +0.000 A 
ATOM      3  N   UNL     1      20.454   3.392  48.296  0.00  0.00    +0.000 NA
ATOM      4  C   UNL     1      20.138   2.253  48.955  0.00  0.00    +0.000 A 
ATOM      5  C   UNL     1      20.691   1.989  50.214  0.00  0.00    +0.000 A 
ATOM      6  S   UNL     1      20.439   0.592  51.199  0.00  0.00    +0.000 S 
ATOM      7  C   UNL     1      21.562   1.103  52.373  0.00  0.00    +0.000 A 
ATOM      8  C   UNL     1      22.031   2.370  52.081  0.00  0.00    +0.000 A 
ATOM      9  C   UNL     1      21.557   2.896  50.831  0.00  0.00    +0.000 A 
ENDROOT
BRANCH   7  10
ATOM     10  C   UNL     1      21.977   0.292  53.512  0.00  0.00    +0.000 C 
ATOM     11  O   UNL     1      21.309   0.242  54.546  0.00  0.00    +0.000 OA
ATOM     12  N   UNL     1      23.166  -0.400  53.390  0.00  0.00    +0.000 N 
ATOM     13  H   UNL     1      23.582  -0.479  52.501  0.00  0.00    +0.000 HD
BRANCH  12  14
ATOM     14  C   UNL     1      23.826  -1.014  54.532  0.00  0.00    +0.000 C 
BRANCH  14  15
ATOM     15  C   UNL     1      25.296  -0.635  54.764  0.00  0.00    +0.000 C 
BRANCH  15  16
ATOM     16  C   UNL     1      25.740   0.640  54.034  0.00  0.00    +0.000 C 
BRANCH  16  17
ATOM     17  N   UNL     1      26.843   0.429  53.076  0.00  0.00    +0.000 N 
ATOM     18  C   UNL     1      27.899  -0.445  53.646  0.00  0.00    +0.000 C 
ATOM     19  C   UNL     1      28.833   0.261  54.645  0.00  0.00    +0.000 C 
ATOM     20  O   UNL     1      29.447   1.413  54.058  0.00  0.00    +0.000 OA
ATOM     21  C   UNL     1      28.448   2.332  53.597  0.00  0.00    +0.000 C 
ATOM     22  C   UNL     1      27.498   1.665  52.589  0.00  0.00    +0.000 C 
ATOM     23  H   UNL     1      26.385  -0.011  52.277  0.00  0.00    +0.000 HD
ENDBRANCH  16  17
ENDBRANCH  15  16
ENDBRANCH  14  15
ENDBRANCH  12  14
ENDBRANCH   7  10
BRANCH   1  24
ATOM     24  S   UNL     1      22.810   5.356  50.932  0.00  0.00    +0.000 S 
BRANCH  24  29
ATOM     25  C   UNL     1      28.352   5.108  48.354  0.00  0.00    +0.000 C 
ATOM     26  C   UNL     1      26.978   5.121  48.957  0.00  0.00    +0.000 A 
ATOM     27  C   UNL     1      26.434   3.972  49.536  0.00  0.00    +0.000 A 
ATOM     28  C   UNL     1      25.165   4.004  50.127  0.00  0.00    +0.000 A 
ATOM     29  C   UNL     1      24.416   5.187  50.154  0.00  0.00    +0.000 A 
ATOM     30  C   UNL     1      24.956   6.328  49.549  0.00  0.00    +0.000 A 
ATOM     31  C   UNL     1      26.223   6.298  48.957  0.00  0.00    +0.000 A 
ENDBRANCH  24  29
ENDBRANCH   1  24
TORSDOF 7
ENDMDL
MODEL 3
REMARK VINA RESULT:    -7.966      2.705      4.881
REMARK INTER + INTRA:         -11.824
REMARK INTER:                 -10.905
REMARK INTRA:                  -0.919
REMARK UNBOUND:                -0.598
REMARK  Name = 
REMARK  8 active torsions:
REMARK  status: ('A' for Active; 'I' for Inactive)
REMARK    1  A    between atoms: C_1  and  C_2
REMARK    2  A    between atoms: C_5  and  S_6
REMARK    3  A    between atoms: S_6  and  C_7
REMARK    4  A    between atoms: C_13  and  C_14
REMARK    5  A    between atoms: N_16  and  C_17
REMARK    6  A    between atoms: C_17  and  C_18
REMARK    7  A    between atoms: C_18  and  C_19
REMARK    8  A    between atoms: C_19  and  N_20
REMARK                            x       y       z     vdW  Elec       q    Type
REMARK                         _______ _______ _______ _____ _____    ______ ____
ROOT
ATOM      1  C   UNL     1      23.402   0.215  53.503  0.00  0.00    +0.000 A 
ATOM      2  C   UNL     1      23.774  -0.686  54.492  0.00  0.00    +0.000 A 
ATOM      3  N   UNL     1      22.920  -1.522  55.119  0.00  0.00    +0.000 NA
ATOM      4  C   UNL     1      21.610  -1.489  54.783  0.00  0.00    +0.000 A 
ATOM      5  C   UNL     1      21.148  -0.571  53.832  0.00  0.00    +0.000 A 
ATOM      6  S   UNL     1      19.523  -0.352  53.288  0.00  0.00    +0.000 S 
ATOM      7  C   UNL     1      19.931   0.983  52.312  0.00  0.00    +0.000 A 
ATOM      8  C   UNL     1      21.300   1.184  52.307  0.00  0.00    +0.000 A 
ATOM      9  C   UNL     1      22.022   0.310  53.189  0.00  0.00    +0.000 A 
ENDROOT
BRANCH   7  10
ATOM     10  C   UNL     1      18.956   1.805  51.605  0.00  0.00    +0.000 C 
ATOM     11  O   UNL     1      18.150   1.313  50.814  0.00  0.00    +0.000 OA
ATOM     12  N   UNL     1      18.992   3.166  51.842  0.00  0.00    +0.000 N 
ATOM     13  H   UNL     1      19.522   3.503  52.600  0.00  0.00    +0.000 HD
BRANCH  12  14
ATOM     14  C   UNL     1      18.274   4.117  51.007  0.00  0.00    +0.000 C 
BRANCH  14  15
ATOM     15  C   UNL     1      19.126   5.052  50.138  0.00  0.00    +0.000 C 
BRANCH  15  16
ATOM     16  C   UNL     1      20.638   4.813  50.254  0.00  0.00    +0.000 C 
BRANCH  16  17
ATOM     17  N   UNL     1      21.294   5.618  51.304  0.00  0.00    +0.000 N 
ATOM     18  C   UNL     1      21.926   6.837  50.740  0.00  0.00    +0.000 C 
ATOM     19  C   UNL     1      23.266   6.582  50.026  0.00  0.00    +0.000 C 
ATOM     20  O   UNL     1      24.201   5.930  50.893  0.00  0.00    +0.000 OA
ATOM     21  C   UNL     1      23.661   4.689  51.367  0.00  0.00    +0.000 C 
ATOM     22  C   UNL     1      22.322   4.903  52.093  0.00  0.00    +0.000 C 
ATOM     23  H   UNL     1      20.528   5.853  51.937  0.00  0.00    +0.000 HD
ENDBRANCH  16  17
ENDBRANCH  15  16
ENDBRANCH  14  15
ENDBRANCH  12  14
ENDBRANCH   7  10
BRANCH   1  24
ATOM     24  S   UNL     1      24.575   1.213  52.642  0.00  0.00    +0.000 S 
BRANCH  24  29
ATOM     25  C   UNL     1      30.005  -1.330  53.855  0.00  0.00    +0.000 C 
ATOM     26  C   UNL     1      28.665  -0.700  53.615  0.00  0.00    +0.000 A 
ATOM     27  C   UNL     1      28.306   0.494  54.244  0.00  0.00    +0.000 A 
ATOM     28  C   UNL     1      27.066   1.091  53.985  0.00  0.00    +0.000 A 
ATOM     29  C   UNL     1      26.161   0.508  53.089  0.00  0.00    +0.000 A 
ATOM     30  C   UNL     1      26.517  -0.703  52.483  0.00  0.00    +0.000 A 
ATOM     31  C   UNL     1      27.755  -1.301  52.740  0.00  0.00    +0.000 A 
ENDBRANCH  24  29
ENDBRANCH   1  24
TORSDOF 7
ENDMDL
MODEL 4
REMARK VINA RESULT:    -7.872      2.052      2.505
REMARK INTER + INTRA:         -11.691
REMARK INTER:                 -11.143
REMARK INTRA:                  -0.548
REMARK UNBOUND:                -0.598
REMARK  Name = 
REMARK  8 active torsions:
REMARK  status: ('A' for Active; 'I' for Inactive)
REMARK    1  A    between atoms: C_1  and  C_2
REMARK    2  A    between atoms: C_5  and  S_6
REMARK    3  A    between atoms: S_6  and  C_7
REMARK    4  A    between atoms: C_13  and  C_14
REMARK    5  A    between atoms: N_16  and  C_17
REMARK    6  A    between atoms: C_17  and  C_18
REMARK    7  A    between atoms: C_18  and  C_19
REMARK    8  A    between atoms: C_19  and  N_20
REMARK                            x       y       z     vdW  Elec       q    Type
REMARK                         _______ _______ _______ _____ _____    ______ ____
ROOT
ATOM      1  C   UNL     1      23.379   1.229  53.013  0.00  0.00    +0.000 A 
ATOM      2  C   UNL     1      24.349   2.213  52.877  0.00  0.00    +0.000 A 
ATOM      3  N   UNL     1      24.103   3.469  52.451  0.00  0.00    +0.000 NA
ATOM      4  C   UNL     1      22.835   3.810  52.122  0.00  0.00    +0.000 A 
ATOM      5  C   UNL     1      21.810   2.858  52.183  0.00  0.00    +0.000 A 
ATOM      6  S   UNL     1      20.145   3.083  51.782  0.00  0.00    +0.000 S 
ATOM      7  C   UNL     1      19.768   1.441  52.029  0.00  0.00    +0.000 A 
ATOM      8  C   UNL     1      20.863   0.758  52.525  0.00  0.00    +0.000 A 
ATOM      9  C   UNL     1      22.058   1.550  52.607  0.00  0.00    +0.000 A 
ENDROOT
BRANCH   7  10
ATOM     10  C   UNL     1      18.468   0.849  51.732  0.00  0.00    +0.000 C 
ATOM     11  O   UNL     1      18.319  -0.371  51.650  0.00  0.00    +0.000 OA
ATOM     12  N   UNL     1      17.416   1.718  51.520  0.00  0.00    +0.000 N 
ATOM     13  H   UNL     1      17.525   2.667  51.762  0.00  0.00    +0.000 HD
BRANCH  12  14
ATOM     14  C   UNL     1      16.151   1.279  50.950  0.00  0.00    +0.000 C 
BRANCH  14  15
ATOM     15  C   UNL     1      15.058   0.857  51.942  0.00  0.00    +0.000 C 
BRANCH  15  16
ATOM     16  C   UNL     1      14.556   1.993  52.845  0.00  0.00    +0.000 C 
BRANCH  16  17
ATOM     17  N   UNL     1      13.089   2.159  52.840  0.00  0.00    +0.000 N 
ATOM     18  C   UNL     1      12.623   2.842  51.608  0.00  0.00    +0.000 C 
ATOM     19  C   UNL     1      12.847   4.365  51.606  0.00  0.00    +0.000 C 
ATOM     20  O   UNL     1      12.234   4.983  52.742  0.00  0.00    +0.000 OA
ATOM     21  C   UNL     1      12.748   4.419  53.955  0.00  0.00    +0.000 C 
ATOM     22  C   UNL     1      12.537   2.897  53.999  0.00  0.00    +0.000 C 
ATOM     23  H   UNL     1      12.741   1.201  52.891  0.00  0.00    +0.000 HD
ENDBRANCH  16  17
ENDBRANCH  15  16
ENDBRANCH  14  15
ENDBRANCH  12  14
ENDBRANCH   7  10
BRANCH   1  24
ATOM     24  S   UNL     1      23.736  -0.368  53.673  0.00  0.00    +0.000 S 
BRANCH  24  29
ATOM     25  C   UNL     1      29.852  -0.500  53.679  0.00  0.00    +0.000 C 
ATOM     26  C   UNL     1      28.353  -0.487  53.732  0.00  0.00    +0.000 A 
ATOM     27  C   UNL     1      27.674   0.109  54.798  0.00  0.00    +0.000 A 
ATOM     28  C   UNL     1      26.275   0.146  54.820  0.00  0.00    +0.000 A 
ATOM     29  C   UNL     1      25.525  -0.409  53.775  0.00  0.00    +0.000 A 
ATOM     30  C   UNL     1      26.212  -1.028  52.724  0.00  0.00    +0.000 A 
ATOM     31  C   UNL     1      27.610  -1.066  52.700  0.00  0.00    +0.000 A 
ENDBRANCH  24  29
ENDBRANCH   1  24
TORSDOF 7
ENDMDL
MODEL 5
REMARK VINA RESULT:    -7.821      2.653      4.627
REMARK INTER + INTRA:         -11.619
REMARK INTER:                 -10.573
REMARK INTRA:                  -1.046
REMARK UNBOUND:                -0.598
REMARK  Name = 
REMARK  8 active torsions:
REMARK  status: ('A' for Active; 'I' for Inactive)
REMARK    1  A    between atoms: C_1  and  C_2
REMARK    2  A    between atoms: C_5  and  S_6
REMARK    3  A    between atoms: S_6  and  C_7
REMARK    4  A    between atoms: C_13  and  C_14
REMARK    5  A    between atoms: N_16  and  C_17
REMARK    6  A    between atoms: C_17  and  C_18
REMARK    7  A    between atoms: C_18  and  C_19
REMARK    8  A    between atoms: C_19  and  N_20
REMARK                            x       y       z     vdW  Elec       q    Type
REMARK                         _______ _______ _______ _____ _____    ______ ____
ROOT
ATOM      1  C   UNL     1      23.376   0.258  53.511  0.00  0.00    +0.000 A 
ATOM      2  C   UNL     1      23.806  -0.682  54.439  0.00  0.00    +0.000 A 
ATOM      3  N   UNL     1      22.997  -1.575  55.046  0.00  0.00    +0.000 NA
ATOM      4  C   UNL     1      21.676  -1.565  54.751  0.00  0.00    +0.000 A 
ATOM      5  C   UNL     1      21.158  -0.614  53.864  0.00  0.00    +0.000 A 
ATOM      6  S   UNL     1      19.511  -0.417  53.382  0.00  0.00    +0.000 S 
ATOM      7  C   UNL     1      19.849   0.979  52.466  0.00  0.00    +0.000 A 
ATOM      8  C   UNL     1      21.210   1.222  52.431  0.00  0.00    +0.000 A 
ATOM      9  C   UNL     1      21.985   0.326  53.243  0.00  0.00    +0.000 A 
ENDROOT
BRANCH   7  10
ATOM     10  C   UNL     1      18.828   1.806  51.833  0.00  0.00    +0.000 C 
ATOM     11  O   UNL     1      17.845   1.308  51.282  0.00  0.00    +0.000 OA
ATOM     12  N   UNL     1      19.024   3.173  51.857  0.00  0.00    +0.000 N 
ATOM     13  H   UNL     1      19.718   3.545  52.449  0.00  0.00    +0.000 HD
BRANCH  12  14
ATOM     14  C   UNL     1      18.240   4.083  51.034  0.00  0.00    +0.000 C 
BRANCH  14  15
ATOM     15  C   UNL     1      19.016   4.940  50.024  0.00  0.00    +0.000 C 
BRANCH  15  16
ATOM     16  C   UNL     1      20.530   4.687  50.017  0.00  0.00    +0.000 C 
BRANCH  16  17
ATOM     17  N   UNL     1      21.067   4.299  48.697  0.00  0.00    +0.000 N 
ATOM     18  C   UNL     1      20.281   3.194  48.094  0.00  0.00    +0.000 C 
ATOM     19  C   UNL     1      20.586   1.805  48.684  0.00  0.00    +0.000 C 
ATOM     20  O   UNL     1      21.980   1.493  48.587  0.00  0.00    +0.000 OA
ATOM     21  C   UNL     1      22.763   2.488  49.260  0.00  0.00    +0.000 C 
ATOM     22  C   UNL     1      22.491   3.892  48.693  0.00  0.00    +0.000 C 
ATOM     23  H   UNL     1      20.991   5.155  48.147  0.00  0.00    +0.000 HD
ENDBRANCH  16  17
ENDBRANCH  15  16
ENDBRANCH  14  15
ENDBRANCH  12  14
ENDBRANCH   7  10
BRANCH   1  24
ATOM     24  S   UNL     1      24.492   1.335  52.669  0.00  0.00    +0.000 S 
BRANCH  24  29
ATOM     25  C   UNL     1      30.003  -1.039  53.856  0.00  0.00    +0.000 C 
ATOM     26  C   UNL     1      28.659  -0.471  53.509  0.00  0.00    +0.000 A 
ATOM     27  C   UNL     1      27.739  -1.204  52.755  0.00  0.00    +0.000 A 
ATOM     28  C   UNL     1      26.474  -0.679  52.467  0.00  0.00    +0.000 A 
ATOM     29  C   UNL     1      26.101   0.590  52.930  0.00  0.00    +0.000 A 
ATOM     30  C   UNL     1      27.037   1.330  53.662  0.00  0.00    +0.000 A 
ATOM     31  C   UNL     1      28.302   0.807  53.950  0.00  0.00    +0.000 A 
ENDBRANCH  24  29
ENDBRANCH   1  24
TORSDOF 7
ENDMDL
MODEL 6
REMARK VINA RESULT:    -7.741      3.971      5.927
REMARK INTER + INTRA:         -11.506
REMARK INTER:                 -10.953
REMARK INTRA:                  -0.553
REMARK UNBOUND:                -0.598
REMARK  Name = 
REMARK  8 active torsions:
REMARK  status: ('A' for Active; 'I' for Inactive)
REMARK    1  A    between atoms: C_1  and  C_2
REMARK    2  A    between atoms: C_5  and  S_6
REMARK    3  A    between atoms: S_6  and  C_7
REMARK    4  A    between atoms: C_13  and  C_14
REMARK    5  A    between atoms: N_16  and  C_17
REMARK    6  A    between atoms: C_17  and  C_18
REMARK    7  A    between atoms: C_18  and  C_19
REMARK    8  A    between atoms: C_19  and  N_20
REMARK                            x       y       z     vdW  Elec       q    Type
REMARK                         _______ _______ _______ _____ _____    ______ ____
ROOT
ATOM      1  C   UNL     1      25.100   2.238  51.642  0.00  0.00    +0.000 A 
ATOM      2  C   UNL     1      26.436   2.504  51.915  0.00  0.00    +0.000 A 
ATOM      3  N   UNL     1      27.176   1.828  52.817  0.00  0.00    +0.000 NA
ATOM      4  C   UNL     1      26.595   0.827  53.519  0.00  0.00    +0.000 A 
ATOM      5  C   UNL     1      25.239   0.533  53.339  0.00  0.00    +0.000 A 
ATOM      6  S   UNL     1      24.311  -0.676  54.150  0.00  0.00    +0.000 S 
ATOM      7  C   UNL     1      22.858  -0.195  53.404  0.00  0.00    +0.000 A 
ATOM      8  C   UNL     1      23.096   0.790  52.463  0.00  0.00    +0.000 A 
ATOM      9  C   UNL     1      24.459   1.239  52.418  0.00  0.00    +0.000 A 
ENDROOT
BRANCH   7  10
ATOM     10  C   UNL     1      21.548  -0.742  53.739  0.00  0.00    +0.000 C 
ATOM     11  O   UNL     1      21.429  -1.750  54.437  0.00  0.00    +0.000 OA
ATOM     12  N   UNL     1      20.445  -0.094  53.218  0.00  0.00    +0.000 N 
ATOM     13  H   UNL     1      20.562   0.797  52.816  0.00  0.00    +0.000 HD
BRANCH  12  14
ATOM     14  C   UNL     1      19.115  -0.685  53.243  0.00  0.00    +0.000 C 
BRANCH  14  15
ATOM     15  C   UNL     1      18.168  -0.300  52.098  0.00  0.00    +0.000 C 
BRANCH  15  16
ATOM     16  C   UNL     1      18.866   0.364  50.902  0.00  0.00    +0.000 C 
BRANCH  16  17
ATOM     17  N   UNL     1      18.381   1.727  50.606  0.00  0.00    +0.000 N 
ATOM     18  C   UNL     1      18.964   2.250  49.345  0.00  0.00    +0.000 C 
ATOM     19  C   UNL     1      20.418   2.739  49.477  0.00  0.00    +0.000 C 
ATOM     20  O   UNL     1      20.541   3.736  50.496  0.00  0.00    +0.000 OA
ATOM     21  C   UNL     1      20.088   3.221  51.755  0.00  0.00    +0.000 C 
ATOM     22  C   UNL     1      18.635   2.728  51.668  0.00  0.00    +0.000 C 
ATOM     23  H   UNL     1      17.370   1.609  50.530  0.00  0.00    +0.000 HD
ENDBRANCH  16  17
ENDBRANCH  15  16
ENDBRANCH  14  15
ENDBRANCH  12  14
ENDBRANCH   7  10
BRANCH   1  24
ATOM     24  S   UNL     1      24.205   3.085  50.378  0.00  0.00    +0.000 S 
BRANCH  24  29
ATOM     25  C   UNL     1      28.245   6.958  47.909  0.00  0.00    +0.000 C 
ATOM     26  C   UNL     1      27.268   5.970  48.473  0.00  0.00    +0.000 A 
ATOM     27  C   UNL     1      27.640   4.646  48.716  0.00  0.00    +0.000 A 
ATOM     28  C   UNL     1      26.731   3.741  49.276  0.00  0.00    +0.000 A 
ATOM     29  C   UNL     1      25.431   4.142  49.607  0.00  0.00    +0.000 A 
ATOM     30  C   UNL     1      25.056   5.463  49.336  0.00  0.00    +0.000 A 
ATOM     31  C   UNL     1      25.963   6.369  48.777  0.00  0.00    +0.000 A 
ENDBRANCH  24  29
ENDBRANCH   1  24
TORSDOF 7
ENDMDL
MODEL 7
REMARK VINA RESULT:    -7.615      3.566      5.704
REMARK INTER + INTRA:         -11.328
REMARK INTER:                 -10.203
REMARK INTRA:                  -1.125
REMARK UNBOUND:                -0.598
REMARK  Name = 
REMARK  8 active torsions:
REMARK  status: ('A' for Active; 'I' for Inactive)
REMARK    1  A    between atoms: C_1  and  C_2
REMARK    2  A    between atoms: C_5  and  S_6
REMARK    3  A    between atoms: S_6  and  C_7
REMARK    4  A    between atoms: C_13  and  C_14
REMARK    5  A    between atoms: N_16  and  C_17
REMARK    6  A    between atoms: C_17  and  C_18
REMARK    7  A    between atoms: C_18  and  C_19
REMARK    8  A    between atoms: C_19  and  N_20
REMARK                            x       y       z     vdW  Elec       q    Type
REMARK                         _______ _______ _______ _____ _____    ______ ____
ROOT
ATOM      1  C   UNL     1      25.298   2.823  51.687  0.00  0.00    +0.000 A 
ATOM      2  C   UNL     1      26.445   3.056  50.939  0.00  0.00    +0.000 A 
ATOM      3  N   UNL     1      26.449   3.601  49.705  0.00  0.00    +0.000 NA
ATOM      4  C   UNL     1      25.268   3.942  49.138  0.00  0.00    +0.000 A 
ATOM      5  C   UNL     1      24.065   3.689  49.807  0.00  0.00    +0.000 A 
ATOM      6  S   UNL     1      22.465   4.019  49.247  0.00  0.00    +0.000 S 
ATOM      7  C   UNL     1      21.739   3.285  50.601  0.00  0.00    +0.000 A 
ATOM      8  C   UNL     1      22.698   2.902  51.521  0.00  0.00    +0.000 A 
ATOM      9  C   UNL     1      24.049   3.110  51.078  0.00  0.00    +0.000 A 
ENDROOT
BRANCH   7  10
ATOM     10  C   UNL     1      20.303   3.076  50.744  0.00  0.00    +0.000 C 
ATOM     11  O   UNL     1      19.568   3.947  51.212  0.00  0.00    +0.000 OA
ATOM     12  N   UNL     1      19.806   1.847  50.356  0.00  0.00    +0.000 N 
ATOM     13  H   UNL     1      20.381   1.245  49.830  0.00  0.00    +0.000 HD
BRANCH  12  14
ATOM     14  C   UNL     1      18.460   1.412  50.698  0.00  0.00    +0.000 C 
BRANCH  14  15
ATOM     15  C   UNL     1      18.321   0.507  51.930  0.00  0.00    +0.000 C 
BRANCH  15  16
ATOM     16  C   UNL     1      19.590  -0.287  52.274  0.00  0.00    +0.000 C 
BRANCH  16  17
ATOM     17  N   UNL     1      19.850  -0.403  53.722  0.00  0.00    +0.000 N 
ATOM     18  C   UNL     1      20.779   0.654  54.195  0.00  0.00    +0.000 C 
ATOM     19  C   UNL     1      22.258   0.394  53.855  0.00  0.00    +0.000 C 
ATOM     20  O   UNL     1      22.694  -0.871  54.364  0.00  0.00    +0.000 OA
ATOM     21  C   UNL     1      21.883  -1.928  53.835  0.00  0.00    +0.000 C 
ATOM     22  C   UNL     1      20.396  -1.709  54.159  0.00  0.00    +0.000 C 
ATOM     23  H   UNL     1      18.925  -0.302  54.140  0.00  0.00    +0.000 HD
ENDBRANCH  16  17
ENDBRANCH  15  16
ENDBRANCH  14  15
ENDBRANCH  12  14
ENDBRANCH   7  10
BRANCH   1  24
ATOM     24  S   UNL     1      25.354   2.202  53.338  0.00  0.00    +0.000 S 
BRANCH  24  29
ATOM     25  C   UNL     1      29.295  -2.475  53.279  0.00  0.00    +0.000 C 
ATOM     26  C   UNL     1      28.315  -1.340  53.239  0.00  0.00    +0.000 A 
ATOM     27  C   UNL     1      27.019  -1.524  52.753  0.00  0.00    +0.000 A 
ATOM     28  C   UNL     1      26.102  -0.467  52.752  0.00  0.00    +0.000 A 
ATOM     29  C   UNL     1      26.461   0.796  53.240  0.00  0.00    +0.000 A 
ATOM     30  C   UNL     1      27.771   0.981  53.700  0.00  0.00    +0.000 A 
ATOM     31  C   UNL     1      28.689  -0.075  53.701  0.00  0.00    +0.000 A 
ENDBRANCH  24  29
ENDBRANCH   1  24
TORSDOF 7
ENDMDL
MODEL 8
REMARK VINA RESULT:    -7.500      5.195      9.377
REMARK INTER + INTRA:         -11.167
REMARK INTER:                 -10.671
REMARK INTRA:                  -0.496
REMARK UNBOUND:                -0.598
REMARK  Name = 
REMARK  8 active torsions:
REMARK  status: ('A' for Active; 'I' for Inactive)
REMARK    1  A    between atoms: C_1  and  C_2
REMARK    2  A    between atoms: C_5  and  S_6
REMARK    3  A    between atoms: S_6  and  C_7
REMARK    4  A    between atoms: C_13  and  C_14
REMARK    5  A    between atoms: N_16  and  C_17
REMARK    6  A    between atoms: C_17  and  C_18
REMARK    7  A    between atoms: C_18  and  C_19
REMARK    8  A    between atoms: C_19  and  N_20
REMARK                            x       y       z     vdW  Elec       q    Type
REMARK                         _______ _______ _______ _____ _____    ______ ____
ROOT
ATOM      1  C   UNL     1      24.325   4.106  49.533  0.00  0.00    +0.000 A 
ATOM      2  C   UNL     1      23.829   5.077  48.672  0.00  0.00    +0.000 A 
ATOM      3  N   UNL     1      22.561   5.536  48.693  0.00  0.00    +0.000 NA
ATOM      4  C   UNL     1      21.697   5.023  49.600  0.00  0.00    +0.000 A 
ATOM      5  C   UNL     1      22.106   4.004  50.468  0.00  0.00    +0.000 A 
ATOM      6  S   UNL     1      21.156   3.202  51.668  0.00  0.00    +0.000 S 
ATOM      7  C   UNL     1      22.406   2.116  52.066  0.00  0.00    +0.000 A 
ATOM      8  C   UNL     1      23.566   2.435  51.383  0.00  0.00    +0.000 A 
ATOM      9  C   UNL     1      23.414   3.510  50.443  0.00  0.00    +0.000 A 
ENDROOT
BRANCH   7  10
ATOM     10  C   UNL     1      22.250   0.996  52.986  0.00  0.00    +0.000 C 
ATOM     11  O   UNL     1      21.298   0.927  53.763  0.00  0.00    +0.000 OA
ATOM     12  N   UNL     1      23.234   0.026  52.966  0.00  0.00    +0.000 N 
ATOM     13  H   UNL     1      23.880   0.018  52.222  0.00  0.00    +0.000 HD
BRANCH  12  14
ATOM     14  C   UNL     1      23.347  -0.985  54.006  0.00  0.00    +0.000 C 
BRANCH  14  15
ATOM     15  C   UNL     1      24.579  -0.900  54.918  0.00  0.00    +0.000 C 
BRANCH  15  16
ATOM     16  C   UNL     1      25.880  -0.544  54.185  0.00  0.00    +0.000 C 
BRANCH  16  17
ATOM     17  N   UNL     1      26.637   0.560  54.809  0.00  0.00    +0.000 N 
ATOM     18  C   UNL     1      26.465   1.829  54.058  0.00  0.00    +0.000 C 
ATOM     19  C   UNL     1      27.300   1.917  52.767  0.00  0.00    +0.000 C 
ATOM     20  O   UNL     1      28.692   1.717  53.033  0.00  0.00    +0.000 OA
ATOM     21  C   UNL     1      28.903   0.445  53.660  0.00  0.00    +0.000 C 
ATOM     22  C   UNL     1      28.090   0.320  54.959  0.00  0.00    +0.000 C 
ATOM     23  H   UNL     1      26.237   0.624  55.746  0.00  0.00    +0.000 HD
ENDBRANCH  16  17
ENDBRANCH  15  16
ENDBRANCH  14  15
ENDBRANCH  12  14
ENDBRANCH   7  10
BRANCH   1  24
ATOM     24  S   UNL     1      26.020   3.616  49.532  0.00  0.00    +0.000 S 
BRANCH  24  29
ATOM     25  C   UNL     1      29.181   8.490  47.618  0.00  0.00    +0.000 C 
ATOM     26  C   UNL     1      28.398   7.322  48.138  0.00  0.00    +0.000 A 
ATOM     27  C   UNL     1      27.155   7.501  48.749  0.00  0.00    +0.000 A 
ATOM     28  C   UNL     1      26.416   6.401  49.199  0.00  0.00    +0.000 A 
ATOM     29  C   UNL     1      26.904   5.097  49.045  0.00  0.00    +0.000 A 
ATOM     30  C   UNL     1      28.162   4.926  48.456  0.00  0.00    +0.000 A 
ATOM     31  C   UNL     1      28.902   6.024  48.006  0.00  0.00    +0.000 A 
ENDBRANCH  24  29
ENDBRANCH   1  24
TORSDOF 7
ENDMDL
MODEL 9
REMARK VINA RESULT:    -7.460      3.698      4.539
REMARK INTER + INTRA:         -11.110
REMARK INTER:                 -10.542
REMARK INTRA:                  -0.568
REMARK UNBOUND:                -0.598
REMARK  Name = 
REMARK  8 active torsions:
REMARK  status: ('A' for Active; 'I' for Inactive)
REMARK    1  A    between atoms: C_1  and  C_2
REMARK    2  A    between atoms: C_5  and  S_6
REMARK    3  A    between atoms: S_6  and  C_7
REMARK    4  A    between atoms: C_13  and  C_14
REMARK    5  A    between atoms: N_16  and  C_17
REMARK    6  A    between atoms: C_17  and  C_18
REMARK    7  A    between atoms: C_18  and  C_19
REMARK    8  A    between atoms: C_19  and  N_20
REMARK                            x       y       z     vdW  Elec       q    Type
REMARK                         _______ _______ _______ _____ _____    ______ ____
ROOT
ATOM      1  C   UNL     1      23.673   0.761  52.590  0.00  0.00    +0.000 A 
ATOM      2  C   UNL     1      24.592   1.576  51.943  0.00  0.00    +0.000 A 
ATOM      3  N   UNL     1      24.277   2.446  50.961  0.00  0.00    +0.000 NA
ATOM      4  C   UNL     1      22.988   2.538  50.560  0.00  0.00    +0.000 A 
ATOM      5  C   UNL     1      22.011   1.712  51.128  0.00  0.00    +0.000 A 
ATOM      6  S   UNL     1      20.329   1.656  50.738  0.00  0.00    +0.000 S 
ATOM      7  C   UNL     1      20.036   0.344  51.784  0.00  0.00    +0.000 A 
ATOM      8  C   UNL     1      21.173   0.032  52.507  0.00  0.00    +0.000 A 
ATOM      9  C   UNL     1      22.330   0.796  52.135  0.00  0.00    +0.000 A 
ENDROOT
BRANCH   7  10
ATOM     10  C   UNL     1      18.760  -0.357  51.874  0.00  0.00    +0.000 C 
ATOM     11  O   UNL     1      17.885  -0.218  51.019  0.00  0.00    +0.000 OA
ATOM     12  N   UNL     1      18.565  -1.166  52.977  0.00  0.00    +0.000 N 
ATOM     13  H   UNL     1      19.338  -1.392  53.545  0.00  0.00    +0.000 HD
BRANCH  12  14
ATOM     14  C   UNL     1      17.256  -1.695  53.329  0.00  0.00    +0.000 C 
BRANCH  14  15
ATOM     15  C   UNL     1      17.125  -3.223  53.393  0.00  0.00    +0.000 C 
BRANCH  15  16
ATOM     16  C   UNL     1      15.779  -3.761  52.887  0.00  0.00    +0.000 C 
BRANCH  16  17
ATOM     17  N   UNL     1      14.847  -2.710  52.431  0.00  0.00    +0.000 N 
ATOM     18  C   UNL     1      13.456  -2.989  52.866  0.00  0.00    +0.000 C 
ATOM     19  C   UNL     1      12.736  -4.063  52.030  0.00  0.00    +0.000 C 
ATOM     20  O   UNL     1      12.730  -3.723  50.640  0.00  0.00    +0.000 OA
ATOM     21  C   UNL     1      14.071  -3.555  50.161  0.00  0.00    +0.000 C 
ATOM     22  C   UNL     1      14.823  -2.484  50.967  0.00  0.00    +0.000 C 
ATOM     23  H   UNL     1      15.212  -1.862  52.867  0.00  0.00    +0.000 HD
ENDBRANCH  16  17
ENDBRANCH  15  16
ENDBRANCH  14  15
ENDBRANCH  12  14
ENDBRANCH   7  10
BRANCH   1  24
ATOM     24  S   UNL     1      24.120  -0.284  53.940  0.00  0.00    +0.000 S 
BRANCH  24  29
ATOM     25  C   UNL     1      30.218  -0.742  53.799  0.00  0.00    +0.000 C 
ATOM     26  C   UNL     1      28.723  -0.625  53.776  0.00  0.00    +0.000 A 
ATOM     27  C   UNL     1      27.953  -1.398  52.905  0.00  0.00    +0.000 A 
ATOM     28  C   UNL     1      26.556  -1.306  52.916  0.00  0.00    +0.000 A 
ATOM     29  C   UNL     1      25.900  -0.441  53.801  0.00  0.00    +0.000 A 
ATOM     30  C   UNL     1      26.680   0.351  54.653  0.00  0.00    +0.000 A 
ATOM     31  C   UNL     1      28.076   0.261  54.643  0.00  0.00    +0.000 A 
ENDBRANCH  24  29
ENDBRANCH   1  24
TORSDOF 7
ENDMDL
