MODEL 1
REMARK VINA RESULT:   -10.348      0.000      0.000
REMARK INTER + INTRA:         -12.888
REMARK INTER:                 -12.163
REMARK INTRA:                  -0.725
REMARK UNBOUND:                -0.725
REMARK  Name = 
REMARK  5 active torsions:
REMARK  status: ('A' for Active; 'I' for Inactive)
REMARK    1  A    between atoms: C_1  and  N_2
REMARK    2  A    between atoms: C_5  and  C_6
REMARK    3  A    between atoms: C_7  and  O_8
REMARK    4  A    between atoms: C_10  and  O_11
REMARK    5  A    between atoms: C_16  and  C_17
REMARK                            x       y       z     vdW  Elec       q    Type
REMARK                         _______ _______ _______ _____ _____    ______ ____
ROOT
ATOM      1  C   UNL     1      24.406  -0.357  54.154  0.00  0.00    +0.000 A 
ATOM      2  C   UNL     1      23.679  -1.136  55.065  0.00  0.00    +0.000 A 
ATOM      3  C   UNL     1      22.287  -1.110  55.085  0.00  0.00    +0.000 A 
ATOM      4  C   UNL     1      21.601  -0.303  54.179  0.00  0.00    +0.000 A 
ATOM      5  C   UNL     1      22.300   0.494  53.263  0.00  0.00    +0.000 A 
ATOM      6  C   UNL     1      21.611   1.345  52.267  0.00  0.00    +0.000 A 
ATOM      7  O   UNL     1      20.393   1.387  52.111  0.00  0.00    +0.000 OA
ATOM      8  C   UNL     1      22.461   2.186  51.412  0.00  0.00    +0.000 A 
ATOM      9  C   UNL     1      23.792   2.129  51.540  0.00  0.00    +0.000 A 
ATOM     10  O   UNL     1      24.445   1.265  52.405  0.00  0.00    +0.000 OA
ATOM     11  C   UNL     1      23.700   0.483  53.264  0.00  0.00    +0.000 A 
ENDROOT
BRANCH   1  16
ATOM     12  C   UNL     1      30.045  -0.256  53.476  0.00  0.00    +0.000 C 
ATOM     13  N   UNL     1      28.784  -0.783  54.010  0.00  0.00    +0.000 N 
ATOM     14  C   UNL     1      28.155   0.199  54.893  0.00  0.00    +0.000 C 
ATOM     15  C   UNL     1      26.662   0.244  54.927  0.00  0.00    +0.000 C 
ATOM     16  C   UNL     1      25.876  -0.455  54.096  0.00  0.00    +0.000 C 
ATOM     17  C   UNL     1      26.442  -1.382  53.070  0.00  0.00    +0.000 C 
ATOM     18  C   UNL     1      27.971  -1.342  52.927  0.00  0.00    +0.000 C 
ATOM     19  H   UNL     1      28.940  -1.581  54.625  0.00  0.00    +0.000 HD
ENDBRANCH   1  16
BRANCH   9  20
ATOM     20  C   UNL     1      24.691   2.981  50.725  0.00  0.00    +0.000 A 
ATOM     21  C   UNL     1      24.189   4.123  50.077  0.00  0.00    +0.000 A 
ATOM     22  C   UNL     1      25.022   4.937  49.297  0.00  0.00    +0.000 A 
ATOM     23  C   UNL     1      26.371   4.620  49.145  0.00  0.00    +0.000 A 
ATOM     24  C   UNL     1      26.886   3.489  49.768  0.00  0.00    +0.000 A 
ATOM     25  C   UNL     1      26.051   2.682  50.540  0.00  0.00    +0.000 A 
ATOM     26  F   UNL     1      26.594   1.587  51.095  0.00  0.00    +0.000 F 
ENDBRANCH   9  20
BRANCH   2  27
ATOM     27  O   UNL     1      24.350  -1.947  55.941  0.00  0.00    +0.000 OA
ATOM     28  H   UNL     1      24.241  -2.876  55.897  0.00  0.00    +0.000 HD
ENDBRANCH   2  27
BRANCH   4  29
ATOM     29  O   UNL     1      20.235  -0.307  54.204  0.00  0.00    +0.000 OA
ATOM     30  H   UNL     1      19.770   0.426  54.558  0.00  0.00    +0.000 HD
ENDBRANCH   4  29
TORSDOF 4
ENDMDL
MODEL 2
REMARK VINA RESULT:    -9.480      1.981      5.307
REMARK INTER + INTRA:         -11.868
REMARK INTER:                 -11.032
REMARK INTRA:                  -0.836
REMARK UNBOUND:                -0.725
REMARK  Name = 
REMARK  5 active torsions:
REMARK  status: ('A' for Active; 'I' for Inactive)
REMARK    1  A    between atoms: C_1  and  N_2
REMARK    2  A    between atoms: C_5  and  C_6
REMARK    3  A    between atoms: C_7  and  O_8
REMARK    4  A    between atoms: C_10  and  O_11
REMARK    5  A    between atoms: C_16  and  C_17
REMARK                            x       y       z     vdW  Elec       q    Type
REMARK                         _______ _______ _______ _____ _____    ______ ____
ROOT
ATOM      1  C   UNL     1      22.328   1.973  52.281  0.00  0.00    +0.000 A 
ATOM      2  C   UNL     1      20.943   2.070  52.091  0.00  0.00    +0.000 A 
ATOM      3  C   UNL     1      20.071   1.146  52.661  0.00  0.00    +0.000 A 
ATOM      4  C   UNL     1      20.580   0.109  53.441  0.00  0.00    +0.000 A 
ATOM      5  C   UNL     1      21.961  -0.020  53.641  0.00  0.00    +0.000 A 
ATOM      6  C   UNL     1      22.542  -1.090  54.483  0.00  0.00    +0.000 A 
ATOM      7  O   UNL     1      21.885  -1.909  55.120  0.00  0.00    +0.000 OA
ATOM      8  C   UNL     1      24.009  -1.155  54.552  0.00  0.00    +0.000 A 
ATOM      9  C   UNL     1      24.745  -0.251  53.895  0.00  0.00    +0.000 A 
ATOM     10  O   UNL     1      24.206   0.808  53.183  0.00  0.00    +0.000 OA
ATOM     11  C   UNL     1      22.835   0.898  53.045  0.00  0.00    +0.000 A 
ENDROOT
BRANCH   1  16
ATOM     12  C   UNL     1      25.297   6.135  49.804  0.00  0.00    +0.000 C 
ATOM     13  N   UNL     1      25.128   4.960  50.667  0.00  0.00    +0.000 N 
ATOM     14  C   UNL     1      24.261   5.281  51.800  0.00  0.00    +0.000 C 
ATOM     15  C   UNL     1      23.378   4.196  52.327  0.00  0.00    +0.000 C 
ATOM     16  C   UNL     1      23.231   3.003  51.735  0.00  0.00    +0.000 C 
ATOM     17  C   UNL     1      23.980   2.641  50.493  0.00  0.00    +0.000 C 
ATOM     18  C   UNL     1      24.787   3.785  49.861  0.00  0.00    +0.000 C 
ATOM     19  H   UNL     1      26.005   4.693  51.115  0.00  0.00    +0.000 HD
ENDBRANCH   1  16
BRANCH   9  20
ATOM     20  C   UNL     1      26.227  -0.295  53.907  0.00  0.00    +0.000 A 
ATOM     21  C   UNL     1      26.954   0.533  54.781  0.00  0.00    +0.000 A 
ATOM     22  C   UNL     1      28.355   0.510  54.801  0.00  0.00    +0.000 A 
ATOM     23  C   UNL     1      29.056  -0.338  53.944  0.00  0.00    +0.000 A 
ATOM     24  C   UNL     1      28.357  -1.158  53.065  0.00  0.00    +0.000 A 
ATOM     25  C   UNL     1      26.963  -1.127  53.047  0.00  0.00    +0.000 A 
ATOM     26  F   UNL     1      26.341  -1.918  52.159  0.00  0.00    +0.000 F 
ENDBRANCH   9  20
BRANCH   2  27
ATOM     27  O   UNL     1      20.439   3.101  51.344  0.00  0.00    +0.000 OA
ATOM     28  H   UNL     1      20.944   3.462  50.642  0.00  0.00    +0.000 HD
ENDBRANCH   2  27
BRANCH   4  29
ATOM     29  O   UNL     1      19.706  -0.775  54.005  0.00  0.00    +0.000 OA
ATOM     30  H   UNL     1      19.673  -0.872  54.937  0.00  0.00    +0.000 HD
ENDBRANCH   4  29
TORSDOF 4
ENDMDL
MODEL 3
REMARK VINA RESULT:    -9.359      2.710      5.321
REMARK INTER + INTRA:         -11.726
REMARK INTER:                 -10.818
REMARK INTRA:                  -0.908
REMARK UNBOUND:                -0.725
REMARK  Name = 
REMARK  5 active torsions:
REMARK  status: ('A' for Active; 'I' for Inactive)
REMARK    1  A    between atoms: C_1  and  N_2
REMARK    2  A    between atoms: C_5  and  C_6
REMARK    3  A    between atoms: C_7  and  O_8
REMARK    4  A    between atoms: C_10  and  O_11
REMARK    5  A    between atoms: C_16  and  C_17
REMARK                            x       y       z     vdW  Elec       q    Type
REMARK                         _______ _______ _______ _____ _____    ______ ____
ROOT
ATOM      1  C   UNL     1      22.132   0.065  53.318  0.00  0.00    +0.000 A 
ATOM      2  C   UNL     1      21.758  -0.963  54.193  0.00  0.00    +0.000 A 
ATOM      3  C   UNL     1      22.679  -1.543  55.061  0.00  0.00    +0.000 A 
ATOM      4  C   UNL     1      23.997  -1.090  55.067  0.00  0.00    +0.000 A 
ATOM      5  C   UNL     1      24.405  -0.070  54.198  0.00  0.00    +0.000 A 
ATOM      6  C   UNL     1      25.787   0.460  54.190  0.00  0.00    +0.000 A 
ATOM      7  O   UNL     1      26.671   0.108  54.967  0.00  0.00    +0.000 OA
ATOM      8  C   UNL     1      26.101   1.479  53.180  0.00  0.00    +0.000 A 
ATOM      9  C   UNL     1      25.144   1.904  52.346  0.00  0.00    +0.000 A 
ATOM     10  O   UNL     1      23.826   1.481  52.410  0.00  0.00    +0.000 OA
ATOM     11  C   UNL     1      23.479   0.493  53.309  0.00  0.00    +0.000 A 
ENDROOT
BRANCH   1  16
ATOM     12  C   UNL     1      18.749   2.966  49.796  0.00  0.00    +0.000 C 
ATOM     13  N   UNL     1      19.036   1.994  50.856  0.00  0.00    +0.000 N 
ATOM     14  C   UNL     1      19.829   0.883  50.329  0.00  0.00    +0.000 C 
ATOM     15  C   UNL     1      20.822   0.245  51.245  0.00  0.00    +0.000 C 
ATOM     16  C   UNL     1      21.127   0.719  52.460  0.00  0.00    +0.000 C 
ATOM     17  C   UNL     1      20.459   1.931  53.023  0.00  0.00    +0.000 C 
ATOM     18  C   UNL     1      19.536   2.680  52.050  0.00  0.00    +0.000 C 
ATOM     19  H   UNL     1      18.187   1.535  51.186  0.00  0.00    +0.000 HD
ENDBRANCH   1  16
BRANCH   9  20
ATOM     20  C   UNL     1      25.419   2.906  51.288  0.00  0.00    +0.000 A 
ATOM     21  C   UNL     1      26.519   2.744  50.428  0.00  0.00    +0.000 A 
ATOM     22  C   UNL     1      26.799   3.684  49.428  0.00  0.00    +0.000 A 
ATOM     23  C   UNL     1      25.987   4.807  49.272  0.00  0.00    +0.000 A 
ATOM     24  C   UNL     1      24.900   4.992  50.118  0.00  0.00    +0.000 A 
ATOM     25  C   UNL     1      24.629   4.054  51.114  0.00  0.00    +0.000 A 
ATOM     26  F   UNL     1      23.584   4.297  51.921  0.00  0.00    +0.000 F 
ENDBRANCH   9  20
BRANCH   2  27
ATOM     27  O   UNL     1      20.458  -1.395  54.204  0.00  0.00    +0.000 OA
ATOM     28  H   UNL     1      20.264  -2.293  54.388  0.00  0.00    +0.000 HD
ENDBRANCH   2  27
BRANCH   4  29
ATOM     29  O   UNL     1      24.880  -1.659  55.940  0.00  0.00    +0.000 OA
ATOM     30  H   UNL     1      24.689  -2.492  56.325  0.00  0.00    +0.000 HD
ENDBRANCH   4  29
TORSDOF 4
ENDMDL
MODEL 4
REMARK VINA RESULT:    -8.816      2.264      5.443
REMARK INTER + INTRA:         -11.088
REMARK INTER:                 -10.385
REMARK INTRA:                  -0.703
REMARK UNBOUND:                -0.725
REMARK  Name = 
REMARK  5 active torsions:
REMARK  status: ('A' for Active; 'I' for Inactive)
REMARK    1  A    between atoms: C_1  and  N_2
REMARK    2  A    between atoms: C_5  and  C_6
REMARK    3  A    between atoms: C_7  and  O_8
REMARK    4  A    between atoms: C_10  and  O_11
REMARK    5  A    between atoms: C_16  and  C_17
REMARK                            x       y       z     vdW  Elec       q    Type
REMARK                         _______ _______ _______ _____ _____    ______ ____
ROOT
ATOM      1  C   UNL     1      25.277   2.581  51.063  0.00  0.00    +0.000 A 
ATOM      2  C   UNL     1      25.961   3.470  50.223  0.00  0.00    +0.000 A 
ATOM      3  C   UNL     1      25.284   4.224  49.267  0.00  0.00    +0.000 A 
ATOM      4  C   UNL     1      23.901   4.100  49.147  0.00  0.00    +0.000 A 
ATOM      5  C   UNL     1      23.190   3.212  49.966  0.00  0.00    +0.000 A 
ATOM      6  C   UNL     1      21.719   3.069  49.889  0.00  0.00    +0.000 A 
ATOM      7  O   UNL     1      20.992   3.741  49.162  0.00  0.00    +0.000 OA
ATOM      8  C   UNL     1      21.107   2.052  50.754  0.00  0.00    +0.000 A 
ATOM      9  C   UNL     1      21.876   1.333  51.581  0.00  0.00    +0.000 A 
ATOM     10  O   UNL     1      23.240   1.528  51.725  0.00  0.00    +0.000 OA
ATOM     11  C   UNL     1      23.880   2.439  50.908  0.00  0.00    +0.000 A 
ENDROOT
BRANCH   1  16
ATOM     12  C   UNL     1      28.598   0.072  54.929  0.00  0.00    +0.000 C 
ATOM     13  N   UNL     1      27.343   0.288  54.201  0.00  0.00    +0.000 N 
ATOM     14  C   UNL     1      26.821   1.628  54.472  0.00  0.00    +0.000 C 
ATOM     15  C   UNL     1      26.082   2.319  53.372  0.00  0.00    +0.000 C 
ATOM     16  C   UNL     1      25.999   1.848  52.120  0.00  0.00    +0.000 C 
ATOM     17  C   UNL     1      26.621   0.549  51.723  0.00  0.00    +0.000 C 
ATOM     18  C   UNL     1      27.497  -0.111  52.799  0.00  0.00    +0.000 C 
ATOM     19  H   UNL     1      26.601  -0.323  54.540  0.00  0.00    +0.000 HD
ENDBRANCH   1  16
BRANCH   9  20
ATOM     20  C   UNL     1      21.310   0.272  52.449  0.00  0.00    +0.000 A 
ATOM     21  C   UNL     1      19.917   0.117  52.560  0.00  0.00    +0.000 A 
ATOM     22  C   UNL     1      19.364  -0.875  53.381  0.00  0.00    +0.000 A 
ATOM     23  C   UNL     1      20.193  -1.727  54.110  0.00  0.00    +0.000 A 
ATOM     24  C   UNL     1      21.573  -1.584  54.023  0.00  0.00    +0.000 A 
ATOM     25  C   UNL     1      22.117  -0.592  53.207  0.00  0.00    +0.000 A 
ATOM     26  F   UNL     1      23.454  -0.480  53.182  0.00  0.00    +0.000 F 
ENDBRANCH   9  20
BRANCH   2  27
ATOM     27  O   UNL     1      27.317   3.610  50.354  0.00  0.00    +0.000 OA
ATOM     28  H   UNL     1      27.885   2.900  50.128  0.00  0.00    +0.000 HD
ENDBRANCH   2  27
BRANCH   4  29
ATOM     29  O   UNL     1      23.255   4.861  48.216  0.00  0.00    +0.000 OA
ATOM     30  H   UNL     1      23.450   4.755  47.305  0.00  0.00    +0.000 HD
ENDBRANCH   4  29
TORSDOF 4
ENDMDL
MODEL 5
REMARK VINA RESULT:    -8.775      2.400      5.252
REMARK INTER + INTRA:         -11.040
REMARK INTER:                 -10.701
REMARK INTRA:                  -0.339
REMARK UNBOUND:                -0.725
REMARK  Name = 
REMARK  5 active torsions:
REMARK  status: ('A' for Active; 'I' for Inactive)
REMARK    1  A    between atoms: C_1  and  N_2
REMARK    2  A    between atoms: C_5  and  C_6
REMARK    3  A    between atoms: C_7  and  O_8
REMARK    4  A    between atoms: C_10  and  O_11
REMARK    5  A    between atoms: C_16  and  C_17
REMARK                            x       y       z     vdW  Elec       q    Type
REMARK                         _______ _______ _______ _____ _____    ______ ____
ROOT
ATOM      1  C   UNL     1      25.307   1.345  53.128  0.00  0.00    +0.000 A 
ATOM      2  C   UNL     1      26.375   1.188  54.022  0.00  0.00    +0.000 A 
ATOM      3  C   UNL     1      26.321   0.253  55.052  0.00  0.00    +0.000 A 
ATOM      4  C   UNL     1      25.189  -0.548  55.195  0.00  0.00    +0.000 A 
ATOM      5  C   UNL     1      24.102  -0.409  54.322  0.00  0.00    +0.000 A 
ATOM      6  C   UNL     1      22.893  -1.257  54.421  0.00  0.00    +0.000 A 
ATOM      7  O   UNL     1      22.755  -2.182  55.218  0.00  0.00    +0.000 OA
ATOM      8  C   UNL     1      21.796  -0.959  53.490  0.00  0.00    +0.000 A 
ATOM      9  C   UNL     1      21.938   0.021  52.589  0.00  0.00    +0.000 A 
ATOM     10  O   UNL     1      23.103   0.755  52.430  0.00  0.00    +0.000 OA
ATOM     11  C   UNL     1      24.152   0.551  53.303  0.00  0.00    +0.000 A 
ENDROOT
BRANCH   1  16
ATOM     12  C   UNL     1      26.117   5.324  49.155  0.00  0.00    +0.000 C 
ATOM     13  N   UNL     1      25.491   4.123  49.718  0.00  0.00    +0.000 N 
ATOM     14  C   UNL     1      26.482   3.056  49.871  0.00  0.00    +0.000 C 
ATOM     15  C   UNL     1      26.319   2.120  51.024  0.00  0.00    +0.000 C 
ATOM     16  C   UNL     1      25.413   2.287  51.997  0.00  0.00    +0.000 C 
ATOM     17  C   UNL     1      24.448   3.428  51.989  0.00  0.00    +0.000 C 
ATOM     18  C   UNL     1      24.685   4.475  50.890  0.00  0.00    +0.000 C 
ATOM     19  H   UNL     1      24.811   3.716  49.077  0.00  0.00    +0.000 HD
ENDBRANCH   1  16
BRANCH   9  20
ATOM     20  C   UNL     1      20.849   0.382  51.650  0.00  0.00    +0.000 A 
ATOM     21  C   UNL     1      19.508   0.131  51.991  0.00  0.00    +0.000 A 
ATOM     22  C   UNL     1      18.466   0.459  51.114  0.00  0.00    +0.000 A 
ATOM     23  C   UNL     1      18.744   1.038  49.877  0.00  0.00    +0.000 A 
ATOM     24  C   UNL     1      20.064   1.285  49.515  0.00  0.00    +0.000 A 
ATOM     25  C   UNL     1      21.097   0.953  50.391  0.00  0.00    +0.000 A 
ATOM     26  F   UNL     1      22.353   1.186  49.979  0.00  0.00    +0.000 F 
ENDBRANCH   9  20
BRANCH   2  27
ATOM     27  O   UNL     1      27.496   1.959  53.870  0.00  0.00    +0.000 OA
ATOM     28  H   UNL     1      28.245   1.615  53.423  0.00  0.00    +0.000 HD
ENDBRANCH   2  27
BRANCH   4  29
ATOM     29  O   UNL     1      25.164  -1.472  56.200  0.00  0.00    +0.000 OA
ATOM     30  H   UNL     1      24.479  -2.111  56.234  0.00  0.00    +0.000 HD
ENDBRANCH   4  29
TORSDOF 4
ENDMDL
MODEL 6
REMARK VINA RESULT:    -8.678      3.229      6.982
REMARK INTER + INTRA:         -10.925
REMARK INTER:                 -10.374
REMARK INTRA:                  -0.551
REMARK UNBOUND:                -0.725
REMARK  Name = 
REMARK  5 active torsions:
REMARK  status: ('A' for Active; 'I' for Inactive)
REMARK    1  A    between atoms: C_1  and  N_2
REMARK    2  A    between atoms: C_5  and  C_6
REMARK    3  A    between atoms: C_7  and  O_8
REMARK    4  A    between atoms: C_10  and  O_11
REMARK    5  A    between atoms: C_16  and  C_17
REMARK                            x       y       z     vdW  Elec       q    Type
REMARK                         _______ _______ _______ _____ _____    ______ ____
ROOT
ATOM      1  C   UNL     1      24.693   2.546  51.277  0.00  0.00    +0.000 A 
ATOM      2  C   UNL     1      26.032   2.951  51.358  0.00  0.00    +0.000 A 
ATOM      3  C   UNL     1      26.938   2.287  52.181  0.00  0.00    +0.000 A 
ATOM      4  C   UNL     1      26.510   1.193  52.932  0.00  0.00    +0.000 A 
ATOM      5  C   UNL     1      25.175   0.770  52.880  0.00  0.00    +0.000 A 
ATOM      6  C   UNL     1      24.686  -0.402  53.640  0.00  0.00    +0.000 A 
ATOM      7  O   UNL     1      25.396  -1.134  54.325  0.00  0.00    +0.000 OA
ATOM      8  C   UNL     1      23.249  -0.695  53.552  0.00  0.00    +0.000 A 
ATOM      9  C   UNL     1      22.461   0.067  52.783  0.00  0.00    +0.000 A 
ATOM     10  O   UNL     1      22.930   1.106  51.996  0.00  0.00    +0.000 OA
ATOM     11  C   UNL     1      24.263   1.458  52.070  0.00  0.00    +0.000 A 
ENDROOT
BRANCH   1  16
ATOM     12  C   UNL     1      21.635   5.491  47.503  0.00  0.00    +0.000 C 
ATOM     13  N   UNL     1      21.824   4.515  48.582  0.00  0.00    +0.000 N 
ATOM     14  C   UNL     1      22.642   3.394  48.117  0.00  0.00    +0.000 C 
ATOM     15  C   UNL     1      23.551   2.743  49.108  0.00  0.00    +0.000 C 
ATOM     16  C   UNL     1      23.766   3.214  50.344  0.00  0.00    +0.000 C 
ATOM     17  C   UNL     1      23.072   4.434  50.854  0.00  0.00    +0.000 C 
ATOM     18  C   UNL     1      22.239   5.195  49.812  0.00  0.00    +0.000 C 
ATOM     19  H   UNL     1      20.946   4.068  48.844  0.00  0.00    +0.000 HD
ENDBRANCH   1  16
BRANCH   9  20
ATOM     20  C   UNL     1      21.001  -0.168  52.688  0.00  0.00    +0.000 A 
ATOM     21  C   UNL     1      20.265   0.369  51.616  0.00  0.00    +0.000 A 
ATOM     22  C   UNL     1      18.883   0.162  51.514  0.00  0.00    +0.000 A 
ATOM     23  C   UNL     1      18.209  -0.579  52.483  0.00  0.00    +0.000 A 
ATOM     24  C   UNL     1      18.915  -1.110  53.556  0.00  0.00    +0.000 A 
ATOM     25  C   UNL     1      20.290  -0.898  53.655  0.00  0.00    +0.000 A 
ATOM     26  F   UNL     1      20.917  -1.409  54.726  0.00  0.00    +0.000 F 
ENDBRANCH   9  20
BRANCH   2  27
ATOM     27  O   UNL     1      26.459   4.012  50.604  0.00  0.00    +0.000 OA
ATOM     28  H   UNL     1      25.854   4.681  50.351  0.00  0.00    +0.000 HD
ENDBRANCH   2  27
BRANCH   4  29
ATOM     29  O   UNL     1      27.419   0.544  53.718  0.00  0.00    +0.000 OA
ATOM     30  H   UNL     1      27.150   0.167  54.533  0.00  0.00    +0.000 HD
ENDBRANCH   4  29
TORSDOF 4
ENDMDL
MODEL 7
REMARK VINA RESULT:    -8.503      2.279      5.627
REMARK INTER + INTRA:         -10.720
REMARK INTER:                  -9.969
REMARK INTRA:                  -0.751
REMARK UNBOUND:                -0.725
REMARK  Name = 
REMARK  5 active torsions:
REMARK  status: ('A' for Active; 'I' for Inactive)
REMARK    1  A    between atoms: C_1  and  N_2
REMARK    2  A    between atoms: C_5  and  C_6
REMARK    3  A    between atoms: C_7  and  O_8
REMARK    4  A    between atoms: C_10  and  O_11
REMARK    5  A    between atoms: C_16  and  C_17
REMARK                            x       y       z     vdW  Elec       q    Type
REMARK                         _______ _______ _______ _____ _____    ______ ____
ROOT
ATOM      1  C   UNL     1      22.644   3.205  50.916  0.00  0.00    +0.000 A 
ATOM      2  C   UNL     1      21.337   3.443  50.469  0.00  0.00    +0.000 A 
ATOM      3  C   UNL     1      20.296   2.573  50.786  0.00  0.00    +0.000 A 
ATOM      4  C   UNL     1      20.555   1.449  51.569  0.00  0.00    +0.000 A 
ATOM      5  C   UNL     1      21.852   1.179  52.024  0.00  0.00    +0.000 A 
ATOM      6  C   UNL     1      22.165   0.013  52.879  0.00  0.00    +0.000 A 
ATOM      7  O   UNL     1      21.330  -0.777  53.312  0.00  0.00    +0.000 OA
ATOM      8  C   UNL     1      23.578  -0.194  53.226  0.00  0.00    +0.000 A 
ATOM      9  C   UNL     1      24.501   0.674  52.796  0.00  0.00    +0.000 A 
ATOM     10  O   UNL     1      24.202   1.818  52.075  0.00  0.00    +0.000 OA
ATOM     11  C   UNL     1      22.899   2.045  51.680  0.00  0.00    +0.000 A 
ENDROOT
BRANCH   1  16
ATOM     12  C   UNL     1      26.387   7.185  49.362  0.00  0.00    +0.000 C 
ATOM     13  N   UNL     1      25.941   6.008  50.115  0.00  0.00    +0.000 N 
ATOM     14  C   UNL     1      24.856   6.368  51.028  0.00  0.00    +0.000 C 
ATOM     15  C   UNL     1      23.802   5.341  51.292  0.00  0.00    +0.000 C 
ATOM     16  C   UNL     1      23.717   4.176  50.635  0.00  0.00    +0.000 C 
ATOM     17  C   UNL     1      24.710   3.787  49.588  0.00  0.00    +0.000 C 
ATOM     18  C   UNL     1      25.718   4.881  49.206  0.00  0.00    +0.000 C 
ATOM     19  H   UNL     1      26.667   5.666  50.743  0.00  0.00    +0.000 HD
ENDBRANCH   1  16
BRANCH   9  20
ATOM     20  C   UNL     1      25.942   0.490  53.092  0.00  0.00    +0.000 A 
ATOM     21  C   UNL     1      26.592  -0.706  52.738  0.00  0.00    +0.000 A 
ATOM     22  C   UNL     1      27.951  -0.900  53.016  0.00  0.00    +0.000 A 
ATOM     23  C   UNL     1      28.686   0.096  53.659  0.00  0.00    +0.000 A 
ATOM     24  C   UNL     1      28.062   1.282  54.027  0.00  0.00    +0.000 A 
ATOM     25  C   UNL     1      26.707   1.467  53.750  0.00  0.00    +0.000 A 
ATOM     26  F   UNL     1      26.148   2.619  54.153  0.00  0.00    +0.000 F 
ENDBRANCH   9  20
BRANCH   2  27
ATOM     27  O   UNL     1      21.077   4.558  49.718  0.00  0.00    +0.000 OA
ATOM     28  H   UNL     1      20.242   4.980  49.779  0.00  0.00    +0.000 HD
ENDBRANCH   2  27
BRANCH   4  29
ATOM     29  O   UNL     1      19.517   0.620  51.884  0.00  0.00    +0.000 OA
ATOM     30  H   UNL     1      18.884   0.882  52.524  0.00  0.00    +0.000 HD
ENDBRANCH   4  29
TORSDOF 4
ENDMDL
MODEL 8
REMARK VINA RESULT:    -8.265      3.172      6.893
REMARK INTER + INTRA:         -10.440
REMARK INTER:                  -9.459
REMARK INTRA:                  -0.981
REMARK UNBOUND:                -0.725
REMARK  Name = 
REMARK  5 active torsions:
REMARK  status: ('A' for Active; 'I' for Inactive)
REMARK    1  A    between atoms: C_1  and  N_2
REMARK    2  A    between atoms: C_5  and  C_6
REMARK    3  A    between atoms: C_7  and  O_8
REMARK    4  A    between atoms: C_10  and  O_11
REMARK    5  A    between atoms: C_16  and  C_17
REMARK                            x       y       z     vdW  Elec       q    Type
REMARK                         _______ _______ _______ _____ _____    ______ ____
ROOT
ATOM      1  C   UNL     1      22.554   3.625  50.213  0.00  0.00    +0.000 A 
ATOM      2  C   UNL     1      22.016   4.641  49.410  0.00  0.00    +0.000 A 
ATOM      3  C   UNL     1      22.839   5.499  48.685  0.00  0.00    +0.000 A 
ATOM      4  C   UNL     1      24.223   5.343  48.751  0.00  0.00    +0.000 A 
ATOM      5  C   UNL     1      24.791   4.343  49.552  0.00  0.00    +0.000 A 
ATOM      6  C   UNL     1      26.253   4.126  49.629  0.00  0.00    +0.000 A 
ATOM      7  O   UNL     1      27.084   4.744  48.969  0.00  0.00    +0.000 OA
ATOM      8  C   UNL     1      26.721   3.091  50.561  0.00  0.00    +0.000 A 
ATOM      9  C   UNL     1      25.831   2.380  51.264  0.00  0.00    +0.000 A 
ATOM     10  O   UNL     1      24.459   2.514  51.126  0.00  0.00    +0.000 OA
ATOM     11  C   UNL     1      23.959   3.499  50.298  0.00  0.00    +0.000 A 
ENDROOT
BRANCH   1  16
ATOM     12  C   UNL     1      19.684  -0.320  53.122  0.00  0.00    +0.000 C 
ATOM     13  N   UNL     1      19.812   0.815  52.202  0.00  0.00    +0.000 N 
ATOM     14  C   UNL     1      20.327   1.988  52.909  0.00  0.00    +0.000 C 
ATOM     15  C   UNL     1      21.208   2.925  52.148  0.00  0.00    +0.000 C 
ATOM     16  C   UNL     1      21.666   2.678  50.914  0.00  0.00    +0.000 C 
ATOM     17  C   UNL     1      21.298   1.437  50.169  0.00  0.00    +0.000 C 
ATOM     18  C   UNL     1      20.506   0.400  50.980  0.00  0.00    +0.000 C 
ATOM     19  H   UNL     1      18.904   1.129  51.863  0.00  0.00    +0.000 HD
ENDBRANCH   1  16
BRANCH   9  20
ATOM     20  C   UNL     1      26.254   1.348  52.241  0.00  0.00    +0.000 A 
ATOM     21  C   UNL     1      26.714   0.097  51.796  0.00  0.00    +0.000 A 
ATOM     22  C   UNL     1      27.112  -0.893  52.705  0.00  0.00    +0.000 A 
ATOM     23  C   UNL     1      27.052  -0.651  54.077  0.00  0.00    +0.000 A 
ATOM     24  C   UNL     1      26.590   0.576  54.540  0.00  0.00    +0.000 A 
ATOM     25  C   UNL     1      26.192   1.555  53.629  0.00  0.00    +0.000 A 
ATOM     26  F   UNL     1      25.727   2.710  54.131  0.00  0.00    +0.000 F 
ENDBRANCH   9  20
BRANCH   2  27
ATOM     27  O   UNL     1      20.656   4.781  49.328  0.00  0.00    +0.000 OA
ATOM     28  H   UNL     1      20.130   4.716  50.101  0.00  0.00    +0.000 HD
ENDBRANCH   2  27
BRANCH   4  29
ATOM     29  O   UNL     1      25.010   6.183  48.017  0.00  0.00    +0.000 OA
ATOM     30  H   UNL     1      25.100   7.081  48.269  0.00  0.00    +0.000 HD
ENDBRANCH   4  29
TORSDOF 4
ENDMDL
MODEL 9
REMARK VINA RESULT:    -8.249      3.534      7.782
REMARK INTER + INTRA:         -10.421
REMARK INTER:                  -9.698
REMARK INTRA:                  -0.723
REMARK UNBOUND:                -0.725
REMARK  Name = 
REMARK  5 active torsions:
REMARK  status: ('A' for Active; 'I' for Inactive)
REMARK    1  A    between atoms: C_1  and  N_2
REMARK    2  A    between atoms: C_5  and  C_6
REMARK    3  A    between atoms: C_7  and  O_8
REMARK    4  A    between atoms: C_10  and  O_11
REMARK    5  A    between atoms: C_16  and  C_17
REMARK                            x       y       z     vdW  Elec       q    Type
REMARK                         _______ _______ _______ _____ _____    ______ ____
ROOT
ATOM      1  C   UNL     1      23.292   3.746  49.802  0.00  0.00    +0.000 A 
ATOM      2  C   UNL     1      24.039   4.702  49.102  0.00  0.00    +0.000 A 
ATOM      3  C   UNL     1      25.424   4.777  49.237  0.00  0.00    +0.000 A 
ATOM      4  C   UNL     1      26.081   3.881  50.078  0.00  0.00    +0.000 A 
ATOM      5  C   UNL     1      25.361   2.920  50.800  0.00  0.00    +0.000 A 
ATOM      6  C   UNL     1      26.022   1.933  51.683  0.00  0.00    +0.000 A 
ATOM      7  O   UNL     1      27.238   1.824  51.818  0.00  0.00    +0.000 OA
ATOM      8  C   UNL     1      25.145   1.026  52.437  0.00  0.00    +0.000 A 
ATOM      9  C   UNL     1      23.818   1.102  52.278  0.00  0.00    +0.000 A 
ATOM     10  O   UNL     1      23.199   1.960  51.383  0.00  0.00    +0.000 OA
ATOM     11  C   UNL     1      23.966   2.866  50.678  0.00  0.00    +0.000 A 
ENDROOT
BRANCH   1  16
ATOM     12  C   UNL     1      17.710   2.783  49.378  0.00  0.00    +0.000 C 
ATOM     13  N   UNL     1      18.968   3.456  49.036  0.00  0.00    +0.000 N 
ATOM     14  C   UNL     1      19.477   4.200  50.189  0.00  0.00    +0.000 C 
ATOM     15  C   UNL     1      20.960   4.300  50.349  0.00  0.00    +0.000 C 
ATOM     16  C   UNL     1      21.837   3.632  49.589  0.00  0.00    +0.000 C 
ATOM     17  C   UNL     1      21.397   2.742  48.473  0.00  0.00    +0.000 C 
ATOM     18  C   UNL     1      19.880   2.518  48.376  0.00  0.00    +0.000 C 
ATOM     19  H   UNL     1      18.828   4.183  48.335  0.00  0.00    +0.000 HD
ENDBRANCH   1  16
BRANCH   9  20
ATOM     20  C   UNL     1      22.890   0.233  53.041  0.00  0.00    +0.000 A 
ATOM     21  C   UNL     1      23.372  -0.568  54.091  0.00  0.00    +0.000 A 
ATOM     22  C   UNL     1      22.511  -1.401  54.818  0.00  0.00    +0.000 A 
ATOM     23  C   UNL     1      21.153  -1.453  54.505  0.00  0.00    +0.000 A 
ATOM     24  C   UNL     1      20.657  -0.677  53.464  0.00  0.00    +0.000 A 
ATOM     25  C   UNL     1      21.520   0.147  52.741  0.00  0.00    +0.000 A 
ATOM     26  F   UNL     1      20.994   0.853  51.728  0.00  0.00    +0.000 F 
ENDBRANCH   9  20
BRANCH   2  27
ATOM     27  O   UNL     1      23.398   5.569  48.258  0.00  0.00    +0.000 OA
ATOM     28  H   UNL     1      23.863   5.958  47.543  0.00  0.00    +0.000 HD
ENDBRANCH   2  27
BRANCH   4  29
ATOM     29  O   UNL     1      27.440   3.960  50.182  0.00  0.00    +0.000 OA
ATOM     30  H   UNL     1      27.922   3.257  50.574  0.00  0.00    +0.000 HD
ENDBRANCH   4  29
TORSDOF 4
ENDMDL
