MODEL 1
REMARK VINA RESULT:    -9.704      0.000      0.000
REMARK INTER + INTRA:         -12.816
REMARK INTER:                 -11.973
REMARK INTRA:                  -0.843
REMARK UNBOUND:                -0.843
REMARK  Name = 
REMARK  4 active torsions:
REMARK  status: ('A' for Active; 'I' for Inactive)
REMARK    1  A    between atoms: C_2  and  C_3
REMARK    2  A    between atoms: C_6  and  C_7
REMARK    3  A    between atoms: C_9  and  C_10
REMARK    4  A    between atoms: C_19  and  C_20
REMARK                            x       y       z     vdW  Elec       q    Type
REMARK                         _______ _______ _______ _____ _____    ______ ____
ROOT
ATOM      1  C   UNL     1      22.478   1.086  51.863  0.00  0.00    +0.000 A 
ATOM      2  N   UNL     1      23.542   0.576  52.461  0.00  0.00    +0.000 NA
ATOM      3  C   UNL     1      24.616   1.361  52.094  0.00  0.00    +0.000 A 
ATOM      4  C   UNL     1      24.226   2.317  51.169  0.00  0.00    +0.000 A 
ATOM      5  N   UNL     1      22.858   2.179  51.116  0.00  0.00    +0.000 N 
ATOM      6  H   UNL     1      22.245   2.769  50.619  0.00  0.00    +0.000 HD
ENDROOT
BRANCH   3   7
ATOM      7  C   UNL     1      25.957   1.162  52.632  0.00  0.00    +0.000 A 
ATOM      8  C   UNL     1      26.677   2.239  53.210  0.00  0.00    +0.000 A 
ATOM      9  C   UNL     1      27.999   2.096  53.632  0.00  0.00    +0.000 A 
ATOM     10  C   UNL     1      28.556   0.845  53.538  0.00  0.00    +0.000 A 
ATOM     11  C   UNL     1      27.853  -0.227  53.037  0.00  0.00    +0.000 A 
ATOM     12  C   UNL     1      26.558  -0.102  52.571  0.00  0.00    +0.000 A 
ATOM     13  O   UNL     1      28.588  -1.373  53.057  0.00  0.00    +0.000 OA
ATOM     14  C   UNL     1      29.833  -0.891  53.604  0.00  0.00    +0.000 C 
ATOM     15  O   UNL     1      29.816   0.514  53.924  0.00  0.00    +0.000 OA
ENDBRANCH   3   7
BRANCH   1  19
ATOM     16  C   UNL     1      18.456  -0.382  52.288  0.00  0.00    +0.000 A 
ATOM     17  C   UNL     1      19.403  -0.596  53.290  0.00  0.00    +0.000 A 
ATOM     18  C   UNL     1      20.711  -0.113  53.136  0.00  0.00    +0.000 A 
ATOM     19  C   UNL     1      21.096   0.590  51.983  0.00  0.00    +0.000 A 
ATOM     20  C   UNL     1      20.136   0.790  50.981  0.00  0.00    +0.000 A 
ATOM     21  C   UNL     1      18.825   0.309  51.132  0.00  0.00    +0.000 A 
BRANCH  16  23
ATOM     22  N   UNL     1      16.027  -1.253  52.560  0.00  0.00    +0.000 NA
ATOM     23  C   UNL     1      17.112  -0.867  52.442  0.00  0.00    +0.000 C 
ENDBRANCH  16  23
ENDBRANCH   1  19
BRANCH   4  24
ATOM     24  C   UNL     1      24.941   3.331  50.407  0.00  0.00    +0.000 A 
ATOM     25  C   UNL     1      26.095   3.034  49.688  0.00  0.00    +0.000 A 
ATOM     26  C   UNL     1      26.853   4.076  49.170  0.00  0.00    +0.000 A 
ATOM     27  C   UNL     1      26.403   5.378  49.331  0.00  0.00    +0.000 A 
ATOM     28  C   UNL     1      25.203   5.580  49.997  0.00  0.00    +0.000 A 
ATOM     29  N   UNL     1      24.456   4.587  50.539  0.00  0.00    +0.000 NA
ENDBRANCH   4  24
TORSDOF 4
ENDMDL
MODEL 2
REMARK VINA RESULT:    -9.259      3.131      7.757
REMARK INTER + INTRA:         -12.268
REMARK INTER:                 -11.855
REMARK INTRA:                  -0.412
REMARK UNBOUND:                -0.843
REMARK  Name = 
REMARK  4 active torsions:
REMARK  status: ('A' for Active; 'I' for Inactive)
REMARK    1  A    between atoms: C_2  and  C_3
REMARK    2  A    between atoms: C_6  and  C_7
REMARK    3  A    between atoms: C_9  and  C_10
REMARK    4  A    between atoms: C_19  and  C_20
REMARK                            x       y       z     vdW  Elec       q    Type
REMARK                         _______ _______ _______ _____ _____    ______ ____
ROOT
ATOM      1  C   UNL     1      25.874   3.882  50.367  0.00  0.00    +0.000 A 
ATOM      2  N   UNL     1      24.699   3.302  50.550  0.00  0.00    +0.000 NA
ATOM      3  C   UNL     1      24.926   2.192  51.337  0.00  0.00    +0.000 A 
ATOM      4  C   UNL     1      26.283   2.025  51.564  0.00  0.00    +0.000 A 
ATOM      5  N   UNL     1      26.846   3.156  51.020  0.00  0.00    +0.000 N 
ATOM      6  H   UNL     1      27.796   3.407  51.085  0.00  0.00    +0.000 HD
ENDROOT
BRANCH   3   7
ATOM      7  C   UNL     1      23.847   1.342  51.830  0.00  0.00    +0.000 A 
ATOM      8  C   UNL     1      22.661   1.159  51.073  0.00  0.00    +0.000 A 
ATOM      9  C   UNL     1      21.576   0.439  51.574  0.00  0.00    +0.000 A 
ATOM     10  C   UNL     1      21.729  -0.156  52.801  0.00  0.00    +0.000 A 
ATOM     11  C   UNL     1      22.895  -0.041  53.523  0.00  0.00    +0.000 A 
ATOM     12  C   UNL     1      23.967   0.703  53.071  0.00  0.00    +0.000 A 
ATOM     13  O   UNL     1      22.837  -0.726  54.698  0.00  0.00    +0.000 OA
ATOM     14  C   UNL     1      21.499  -1.262  54.638  0.00  0.00    +0.000 C 
ATOM     15  O   UNL     1      20.793  -0.914  53.430  0.00  0.00    +0.000 OA
ENDBRANCH   3   7
BRANCH   1  19
ATOM     16  C   UNL     1      26.530   7.533  48.186  0.00  0.00    +0.000 A 
ATOM     17  C   UNL     1      25.399   7.374  48.987  0.00  0.00    +0.000 A 
ATOM     18  C   UNL     1      25.198   6.177  49.690  0.00  0.00    +0.000 A 
ATOM     19  C   UNL     1      26.119   5.121  49.608  0.00  0.00    +0.000 A 
ATOM     20  C   UNL     1      27.248   5.292  48.793  0.00  0.00    +0.000 A 
ATOM     21  C   UNL     1      27.453   6.489  48.088  0.00  0.00    +0.000 A 
BRANCH  16  23
ATOM     22  N   UNL     1      26.929   9.749  46.897  0.00  0.00    +0.000 NA
ATOM     23  C   UNL     1      26.748   8.759  47.469  0.00  0.00    +0.000 C 
ENDBRANCH  16  23
ENDBRANCH   1  19
BRANCH   4  24
ATOM     24  C   UNL     1      27.072   1.007  52.243  0.00  0.00    +0.000 A 
ATOM     25  C   UNL     1      26.872  -0.352  52.017  0.00  0.00    +0.000 A 
ATOM     26  C   UNL     1      27.493  -1.272  52.852  0.00  0.00    +0.000 A 
ATOM     27  C   UNL     1      28.343  -0.810  53.846  0.00  0.00    +0.000 A 
ATOM     28  C   UNL     1      28.544   0.558  53.954  0.00  0.00    +0.000 A 
ATOM     29  N   UNL     1      27.931   1.482  53.175  0.00  0.00    +0.000 NA
ENDBRANCH   4  24
TORSDOF 4
ENDMDL
MODEL 3
REMARK VINA RESULT:    -9.169      3.256      7.733
REMARK INTER + INTRA:         -12.157
REMARK INTER:                 -11.804
REMARK INTRA:                  -0.353
REMARK UNBOUND:                -0.843
REMARK  Name = 
REMARK  4 active torsions:
REMARK  status: ('A' for Active; 'I' for Inactive)
REMARK    1  A    between atoms: C_2  and  C_3
REMARK    2  A    between atoms: C_6  and  C_7
REMARK    3  A    between atoms: C_9  and  C_10
REMARK    4  A    between atoms: C_19  and  C_20
REMARK                            x       y       z     vdW  Elec       q    Type
REMARK                         _______ _______ _______ _____ _____    ______ ____
ROOT
ATOM      1  C   UNL     1      25.847   3.035  50.794  0.00  0.00    +0.000 A 
ATOM      2  N   UNL     1      24.670   2.576  51.186  0.00  0.00    +0.000 NA
ATOM      3  C   UNL     1      24.919   1.465  51.965  0.00  0.00    +0.000 A 
ATOM      4  C   UNL     1      26.274   1.170  51.974  0.00  0.00    +0.000 A 
ATOM      5  N   UNL     1      26.842   2.230  51.305  0.00  0.00    +0.000 N 
ATOM      6  H   UNL     1      27.808   2.388  51.205  0.00  0.00    +0.000 HD
ENDROOT
BRANCH   3   7
ATOM      7  C   UNL     1      23.863   0.735  52.658  0.00  0.00    +0.000 A 
ATOM      8  C   UNL     1      24.151  -0.053  53.801  0.00  0.00    +0.000 A 
ATOM      9  C   UNL     1      23.176  -0.842  54.413  0.00  0.00    +0.000 A 
ATOM     10  C   UNL     1      21.901  -0.767  53.910  0.00  0.00    +0.000 A 
ATOM     11  C   UNL     1      21.588   0.039  52.840  0.00  0.00    +0.000 A 
ATOM     12  C   UNL     1      22.544   0.796  52.189  0.00  0.00    +0.000 A 
ATOM     13  O   UNL     1      20.266  -0.022  52.524  0.00  0.00    +0.000 OA
ATOM     14  C   UNL     1      19.794  -0.973  53.501  0.00  0.00    +0.000 C 
ATOM     15  O   UNL     1      20.825  -1.441  54.393  0.00  0.00    +0.000 OA
ENDBRANCH   3   7
BRANCH   1  19
ATOM     16  C   UNL     1      26.458   6.552  48.392  0.00  0.00    +0.000 A 
ATOM     17  C   UNL     1      25.307   6.408  49.167  0.00  0.00    +0.000 A 
ATOM     18  C   UNL     1      25.121   5.254  49.942  0.00  0.00    +0.000 A 
ATOM     19  C   UNL     1      26.078   4.227  49.960  0.00  0.00    +0.000 A 
ATOM     20  C   UNL     1      27.226   4.382  49.171  0.00  0.00    +0.000 A 
ATOM     21  C   UNL     1      27.417   5.536  48.393  0.00  0.00    +0.000 A 
BRANCH  16  23
ATOM     22  N   UNL     1      26.830   8.688  46.967  0.00  0.00    +0.000 NA
ATOM     23  C   UNL     1      26.660   7.735  47.601  0.00  0.00    +0.000 C 
ENDBRANCH  16  23
ENDBRANCH   1  19
BRANCH   4  24
ATOM     24  C   UNL     1      27.066   0.094  52.552  0.00  0.00    +0.000 A 
ATOM     25  C   UNL     1      28.163   0.345  53.371  0.00  0.00    +0.000 A 
ATOM     26  C   UNL     1      29.008  -0.705  53.707  0.00  0.00    +0.000 A 
ATOM     27  C   UNL     1      28.697  -1.984  53.268  0.00  0.00    +0.000 A 
ATOM     28  C   UNL     1      27.543  -2.157  52.518  0.00  0.00    +0.000 A 
ATOM     29  N   UNL     1      26.715  -1.149  52.149  0.00  0.00    +0.000 NA
ENDBRANCH   4  24
TORSDOF 4
ENDMDL
MODEL 4
REMARK VINA RESULT:    -9.079      2.555      4.831
REMARK INTER + INTRA:         -12.045
REMARK INTER:                 -11.405
REMARK INTRA:                  -0.640
REMARK UNBOUND:                -0.843
REMARK  Name = 
REMARK  4 active torsions:
REMARK  status: ('A' for Active; 'I' for Inactive)
REMARK    1  A    between atoms: C_2  and  C_3
REMARK    2  A    between atoms: C_6  and  C_7
REMARK    3  A    between atoms: C_9  and  C_10
REMARK    4  A    between atoms: C_19  and  C_20
REMARK                            x       y       z     vdW  Elec       q    Type
REMARK                         _______ _______ _______ _____ _____    ______ ____
ROOT
ATOM      1  C   UNL     1      23.048   1.153  52.010  0.00  0.00    +0.000 A 
ATOM      2  N   UNL     1      23.301   2.231  51.286  0.00  0.00    +0.000 NA
ATOM      3  C   UNL     1      24.670   2.397  51.290  0.00  0.00    +0.000 A 
ATOM      4  C   UNL     1      25.272   1.460  52.116  0.00  0.00    +0.000 A 
ATOM      5  N   UNL     1      24.234   0.633  52.480  0.00  0.00    +0.000 N 
ATOM      6  H   UNL     1      24.325  -0.199  52.998  0.00  0.00    +0.000 HD
ENDROOT
BRANCH   3   7
ATOM      7  C   UNL     1      25.340   3.438  50.517  0.00  0.00    +0.000 A 
ATOM      8  C   UNL     1      26.436   3.125  49.672  0.00  0.00    +0.000 A 
ATOM      9  C   UNL     1      27.157   4.119  49.009  0.00  0.00    +0.000 A 
ATOM     10  C   UNL     1      26.715   5.411  49.143  0.00  0.00    +0.000 A 
ATOM     11  C   UNL     1      25.616   5.727  49.908  0.00  0.00    +0.000 A 
ATOM     12  C   UNL     1      24.912   4.768  50.611  0.00  0.00    +0.000 A 
ATOM     13  O   UNL     1      25.343   7.060  49.883  0.00  0.00    +0.000 OA
ATOM     14  C   UNL     1      26.405   7.542  49.035  0.00  0.00    +0.000 C 
ATOM     15  O   UNL     1      27.274   6.499  48.551  0.00  0.00    +0.000 OA
ENDBRANCH   3   7
BRANCH   1  19
ATOM     16  C   UNL     1      19.143  -0.524  52.681  0.00  0.00    +0.000 A 
ATOM     17  C   UNL     1      19.431   0.162  51.501  0.00  0.00    +0.000 A 
ATOM     18  C   UNL     1      20.709   0.705  51.298  0.00  0.00    +0.000 A 
ATOM     19  C   UNL     1      21.718   0.573  52.265  0.00  0.00    +0.000 A 
ATOM     20  C   UNL     1      21.411  -0.112  53.449  0.00  0.00    +0.000 A 
ATOM     21  C   UNL     1      20.134  -0.658  53.656  0.00  0.00    +0.000 A 
BRANCH  16  23
ATOM     22  N   UNL     1      16.793  -1.553  53.067  0.00  0.00    +0.000 NA
ATOM     23  C   UNL     1      17.839  -1.090  52.893  0.00  0.00    +0.000 C 
ENDBRANCH  16  23
ENDBRANCH   1  19
BRANCH   4  24
ATOM     24  C   UNL     1      26.645   1.227  52.542  0.00  0.00    +0.000 A 
ATOM     25  C   UNL     1      27.204  -0.047  52.559  0.00  0.00    +0.000 A 
ATOM     26  C   UNL     1      28.432  -0.236  53.181  0.00  0.00    +0.000 A 
ATOM     27  C   UNL     1      29.092   0.863  53.711  0.00  0.00    +0.000 A 
ATOM     28  C   UNL     1      28.497   2.110  53.584  0.00  0.00    +0.000 A 
ATOM     29  N   UNL     1      27.288   2.322  53.009  0.00  0.00    +0.000 NA
ENDBRANCH   4  24
TORSDOF 4
ENDMDL
MODEL 5
REMARK VINA RESULT:    -8.530      1.512      2.083
REMARK INTER + INTRA:         -11.368
REMARK INTER:                 -10.573
REMARK INTRA:                  -0.795
REMARK UNBOUND:                -0.843
REMARK  Name = 
REMARK  4 active torsions:
REMARK  status: ('A' for Active; 'I' for Inactive)
REMARK    1  A    between atoms: C_2  and  C_3
REMARK    2  A    between atoms: C_6  and  C_7
REMARK    3  A    between atoms: C_9  and  C_10
REMARK    4  A    between atoms: C_19  and  C_20
REMARK                            x       y       z     vdW  Elec       q    Type
REMARK                         _______ _______ _______ _____ _____    ______ ____
ROOT
ATOM      1  C   UNL     1      21.044   0.814  52.007  0.00  0.00    +0.000 A 
ATOM      2  N   UNL     1      22.213   0.311  52.367  0.00  0.00    +0.000 NA
ATOM      3  C   UNL     1      23.156   1.285  52.111  0.00  0.00    +0.000 A 
ATOM      4  C   UNL     1      22.573   2.377  51.487  0.00  0.00    +0.000 A 
ATOM      5  N   UNL     1      21.227   2.089  51.520  0.00  0.00    +0.000 N 
ATOM      6  H   UNL     1      20.508   2.700  51.239  0.00  0.00    +0.000 HD
ENDROOT
BRANCH   3   7
ATOM      7  C   UNL     1      24.564   1.131  52.466  0.00  0.00    +0.000 A 
ATOM      8  C   UNL     1      25.587   1.445  51.535  0.00  0.00    +0.000 A 
ATOM      9  C   UNL     1      26.933   1.205  51.816  0.00  0.00    +0.000 A 
ATOM     10  C   UNL     1      27.237   0.721  53.064  0.00  0.00    +0.000 A 
ATOM     11  C   UNL     1      26.263   0.469  54.002  0.00  0.00    +0.000 A 
ATOM     12  C   UNL     1      24.920   0.656  53.735  0.00  0.00    +0.000 A 
ATOM     13  O   UNL     1      26.788   0.018  55.174  0.00  0.00    +0.000 OA
ATOM     14  C   UNL     1      28.195  -0.003  54.854  0.00  0.00    +0.000 C 
ATOM     15  O   UNL     1      28.489   0.454  53.520  0.00  0.00    +0.000 OA
ENDBRANCH   3   7
BRANCH   1  19
ATOM     16  C   UNL     1      17.216  -1.136  52.269  0.00  0.00    +0.000 A 
ATOM     17  C   UNL     1      17.528  -0.317  51.182  0.00  0.00    +0.000 A 
ATOM     18  C   UNL     1      18.779   0.313  51.112  0.00  0.00    +0.000 A 
ATOM     19  C   UNL     1      19.739   0.139  52.121  0.00  0.00    +0.000 A 
ATOM     20  C   UNL     1      19.410  -0.680  53.211  0.00  0.00    +0.000 A 
ATOM     21  C   UNL     1      18.158  -1.314  53.285  0.00  0.00    +0.000 A 
BRANCH  16  23
ATOM     22  N   UNL     1      14.912  -2.320  52.395  0.00  0.00    +0.000 NA
ATOM     23  C   UNL     1      15.940  -1.791  52.343  0.00  0.00    +0.000 C 
ENDBRANCH  16  23
ENDBRANCH   1  19
BRANCH   4  24
ATOM     24  C   UNL     1      23.094   3.620  50.938  0.00  0.00    +0.000 A 
ATOM     25  C   UNL     1      23.502   3.725  49.611  0.00  0.00    +0.000 A 
ATOM     26  C   UNL     1      24.194   4.860  49.207  0.00  0.00    +0.000 A 
ATOM     27  C   UNL     1      24.403   5.881  50.123  0.00  0.00    +0.000 A 
ATOM     28  C   UNL     1      23.898   5.725  51.405  0.00  0.00    +0.000 A 
ATOM     29  N   UNL     1      23.245   4.619  51.838  0.00  0.00    +0.000 NA
ENDBRANCH   4  24
TORSDOF 4
ENDMDL
MODEL 6
REMARK VINA RESULT:    -8.451      1.295      2.035
REMARK INTER + INTRA:         -11.270
REMARK INTER:                 -10.661
REMARK INTRA:                  -0.609
REMARK UNBOUND:                -0.843
REMARK  Name = 
REMARK  4 active torsions:
REMARK  status: ('A' for Active; 'I' for Inactive)
REMARK    1  A    between atoms: C_2  and  C_3
REMARK    2  A    between atoms: C_6  and  C_7
REMARK    3  A    between atoms: C_9  and  C_10
REMARK    4  A    between atoms: C_19  and  C_20
REMARK                            x       y       z     vdW  Elec       q    Type
REMARK                         _______ _______ _______ _____ _____    ______ ____
ROOT
ATOM      1  C   UNL     1      21.433   0.769  52.227  0.00  0.00    +0.000 A 
ATOM      2  N   UNL     1      22.558   0.185  52.606  0.00  0.00    +0.000 NA
ATOM      3  C   UNL     1      23.562   1.114  52.433  0.00  0.00    +0.000 A 
ATOM      4  C   UNL     1      23.065   2.265  51.841  0.00  0.00    +0.000 A 
ATOM      5  N   UNL     1      21.705   2.053  51.810  0.00  0.00    +0.000 N 
ATOM      6  H   UNL     1      21.033   2.715  51.531  0.00  0.00    +0.000 HD
ENDROOT
BRANCH   3   7
ATOM      7  C   UNL     1      24.943   0.864  52.832  0.00  0.00    +0.000 A 
ATOM      8  C   UNL     1      25.456  -0.457  52.893  0.00  0.00    +0.000 A 
ATOM      9  C   UNL     1      26.739  -0.724  53.374  0.00  0.00    +0.000 A 
ATOM     10  C   UNL     1      27.519   0.352  53.715  0.00  0.00    +0.000 A 
ATOM     11  C   UNL     1      27.061   1.645  53.605  0.00  0.00    +0.000 A 
ATOM     12  C   UNL     1      25.780   1.935  53.174  0.00  0.00    +0.000 A 
ATOM     13  O   UNL     1      28.004   2.554  53.974  0.00  0.00    +0.000 OA
ATOM     14  C   UNL     1      29.092   1.684  54.348  0.00  0.00    +0.000 C 
ATOM     15  O   UNL     1      28.796   0.285  54.175  0.00  0.00    +0.000 OA
ENDBRANCH   3   7
BRANCH   1  19
ATOM     16  C   UNL     1      17.525  -1.025  52.394  0.00  0.00    +0.000 A 
ATOM     17  C   UNL     1      18.480  -1.304  53.372  0.00  0.00    +0.000 A 
ATOM     18  C   UNL     1      19.751  -0.713  53.303  0.00  0.00    +0.000 A 
ATOM     19  C   UNL     1      20.090   0.164  52.260  0.00  0.00    +0.000 A 
ATOM     20  C   UNL     1      19.122   0.429  51.280  0.00  0.00    +0.000 A 
ATOM     21  C   UNL     1      17.849  -0.160  51.346  0.00  0.00    +0.000 A 
BRANCH  16  23
ATOM     22  N   UNL     1      15.170  -2.106  52.517  0.00  0.00    +0.000 NA
ATOM     23  C   UNL     1      16.218  -1.620  52.463  0.00  0.00    +0.000 C 
ENDBRANCH  16  23
ENDBRANCH   1  19
BRANCH   4  24
ATOM     24  C   UNL     1      23.676   3.500  51.372  0.00  0.00    +0.000 A 
ATOM     25  C   UNL     1      23.458   4.718  52.011  0.00  0.00    +0.000 A 
ATOM     26  C   UNL     1      23.881   5.887  51.393  0.00  0.00    +0.000 A 
ATOM     27  C   UNL     1      24.563   5.802  50.188  0.00  0.00    +0.000 A 
ATOM     28  C   UNL     1      24.804   4.542  49.658  0.00  0.00    +0.000 A 
ATOM     29  N   UNL     1      24.379   3.385  50.221  0.00  0.00    +0.000 NA
ENDBRANCH   4  24
TORSDOF 4
ENDMDL
MODEL 7
REMARK VINA RESULT:    -8.352      3.359      7.870
REMARK INTER + INTRA:         -11.148
REMARK INTER:                 -10.484
REMARK INTRA:                  -0.664
REMARK UNBOUND:                -0.843
REMARK  Name = 
REMARK  4 active torsions:
REMARK  status: ('A' for Active; 'I' for Inactive)
REMARK    1  A    between atoms: C_2  and  C_3
REMARK    2  A    between atoms: C_6  and  C_7
REMARK    3  A    between atoms: C_9  and  C_10
REMARK    4  A    between atoms: C_19  and  C_20
REMARK                            x       y       z     vdW  Elec       q    Type
REMARK                         _______ _______ _______ _____ _____    ______ ____
ROOT
ATOM      1  C   UNL     1      25.436   4.225  49.637  0.00  0.00    +0.000 A 
ATOM      2  N   UNL     1      25.572   3.437  50.691  0.00  0.00    +0.000 NA
ATOM      3  C   UNL     1      24.362   2.797  50.863  0.00  0.00    +0.000 A 
ATOM      4  C   UNL     1      23.426   3.273  49.958  0.00  0.00    +0.000 A 
ATOM      5  N   UNL     1      24.158   4.102  49.139  0.00  0.00    +0.000 N 
ATOM      6  H   UNL     1      23.820   4.540  48.325  0.00  0.00    +0.000 HD
ENDROOT
BRANCH   3   7
ATOM      7  C   UNL     1      24.151   1.772  51.880  0.00  0.00    +0.000 A 
ATOM      8  C   UNL     1      25.195   0.884  52.246  0.00  0.00    +0.000 A 
ATOM      9  C   UNL     1      24.984  -0.170  53.136  0.00  0.00    +0.000 A 
ATOM     10  C   UNL     1      23.740  -0.269  53.707  0.00  0.00    +0.000 A 
ATOM     11  C   UNL     1      22.732   0.620  53.412  0.00  0.00    +0.000 A 
ATOM     12  C   UNL     1      22.902   1.645  52.500  0.00  0.00    +0.000 A 
ATOM     13  O   UNL     1      21.593   0.349  54.106  0.00  0.00    +0.000 OA
ATOM     14  C   UNL     1      21.996  -0.819  54.850  0.00  0.00    +0.000 C 
ATOM     15  O   UNL     1      23.362  -1.211  54.611  0.00  0.00    +0.000 OA
ENDBRANCH   3   7
BRANCH   1  19
ATOM     16  C   UNL     1      28.536   6.681  47.941  0.00  0.00    +0.000 A 
ATOM     17  C   UNL     1      28.766   5.333  48.219  0.00  0.00    +0.000 A 
ATOM     18  C   UNL     1      27.746   4.546  48.774  0.00  0.00    +0.000 A 
ATOM     19  C   UNL     1      26.482   5.087  49.060  0.00  0.00    +0.000 A 
ATOM     20  C   UNL     1      26.268   6.446  48.783  0.00  0.00    +0.000 A 
ATOM     21  C   UNL     1      27.287   7.237  48.227  0.00  0.00    +0.000 A 
BRANCH  16  23
ATOM     22  N   UNL     1      30.405   8.144  46.894  0.00  0.00    +0.000 NA
ATOM     23  C   UNL     1      29.573   7.492  47.365  0.00  0.00    +0.000 C 
ENDBRANCH  16  23
ENDBRANCH   1  19
BRANCH   4  24
ATOM     24  C   UNL     1      22.009   3.014  49.746  0.00  0.00    +0.000 A 
ATOM     25  C   UNL     1      21.563   1.949  48.970  0.00  0.00    +0.000 A 
ATOM     26  C   UNL     1      20.220   1.885  48.622  0.00  0.00    +0.000 A 
ATOM     27  C   UNL     1      19.353   2.851  49.111  0.00  0.00    +0.000 A 
ATOM     28  C   UNL     1      19.869   3.836  49.940  0.00  0.00    +0.000 A 
ATOM     29  N   UNL     1      21.178   3.943  50.274  0.00  0.00    +0.000 NA
ENDBRANCH   4  24
TORSDOF 4
ENDMDL
MODEL 8
REMARK VINA RESULT:    -8.348      2.383      6.273
REMARK INTER + INTRA:         -11.144
REMARK INTER:                 -10.633
REMARK INTRA:                  -0.510
REMARK UNBOUND:                -0.843
REMARK  Name = 
REMARK  4 active torsions:
REMARK  status: ('A' for Active; 'I' for Inactive)
REMARK    1  A    between atoms: C_2  and  C_3
REMARK    2  A    between atoms: C_6  and  C_7
REMARK    3  A    between atoms: C_9  and  C_10
REMARK    4  A    between atoms: C_19  and  C_20
REMARK                            x       y       z     vdW  Elec       q    Type
REMARK                         _______ _______ _______ _____ _____    ______ ____
ROOT
ATOM      1  C   UNL     1      24.522   3.040  51.457  0.00  0.00    +0.000 A 
ATOM      2  N   UNL     1      25.685   2.430  51.620  0.00  0.00    +0.000 NA
ATOM      3  C   UNL     1      25.412   1.209  52.200  0.00  0.00    +0.000 A 
ATOM      4  C   UNL     1      24.061   1.101  52.496  0.00  0.00    +0.000 A 
ATOM      5  N   UNL     1      23.514   2.230  51.930  0.00  0.00    +0.000 N 
ATOM      6  H   UNL     1      22.551   2.428  51.874  0.00  0.00    +0.000 HD
ENDROOT
BRANCH   3   7
ATOM      7  C   UNL     1      26.443   0.208  52.452  0.00  0.00    +0.000 A 
ATOM      8  C   UNL     1      26.230  -1.156  52.126  0.00  0.00    +0.000 A 
ATOM      9  C   UNL     1      27.159  -2.143  52.457  0.00  0.00    +0.000 A 
ATOM     10  C   UNL     1      28.330  -1.733  53.043  0.00  0.00    +0.000 A 
ATOM     11  C   UNL     1      28.582  -0.407  53.311  0.00  0.00    +0.000 A 
ATOM     12  C   UNL     1      27.660   0.586  53.035  0.00  0.00    +0.000 A 
ATOM     13  O   UNL     1      29.809  -0.223  53.872  0.00  0.00    +0.000 OA
ATOM     14  C   UNL     1      30.283  -1.584  53.943  0.00  0.00    +0.000 C 
ATOM     15  O   UNL     1      29.355  -2.547  53.407  0.00  0.00    +0.000 OA
ENDBRANCH   3   7
BRANCH   1  19
ATOM     16  C   UNL     1      23.963   6.888  49.614  0.00  0.00    +0.000 A 
ATOM     17  C   UNL     1      24.802   5.935  49.035  0.00  0.00    +0.000 A 
ATOM     18  C   UNL     1      24.976   4.686  49.649  0.00  0.00    +0.000 A 
ATOM     19  C   UNL     1      24.318   4.366  50.847  0.00  0.00    +0.000 A 
ATOM     20  C   UNL     1      23.484   5.336  51.422  0.00  0.00    +0.000 A 
ATOM     21  C   UNL     1      23.307   6.588  50.810  0.00  0.00    +0.000 A 
BRANCH  16  23
ATOM     22  N   UNL     1      23.614   9.195  48.480  0.00  0.00    +0.000 NA
ATOM     23  C   UNL     1      23.774   8.167  48.987  0.00  0.00    +0.000 C 
ENDBRANCH  16  23
ENDBRANCH   1  19
BRANCH   4  24
ATOM     24  C   UNL     1      23.255   0.090  53.165  0.00  0.00    +0.000 A 
ATOM     25  C   UNL     1      21.999  -0.280  52.693  0.00  0.00    +0.000 A 
ATOM     26  C   UNL     1      21.188  -1.078  53.491  0.00  0.00    +0.000 A 
ATOM     27  C   UNL     1      21.681  -1.533  54.705  0.00  0.00    +0.000 A 
ATOM     28  C   UNL     1      22.973  -1.178  55.064  0.00  0.00    +0.000 A 
ATOM     29  N   UNL     1      23.777  -0.378  54.322  0.00  0.00    +0.000 NA
ENDBRANCH   4  24
TORSDOF 4
ENDMDL
MODEL 9
REMARK VINA RESULT:    -7.955      3.755      7.829
REMARK INTER + INTRA:         -10.659
REMARK INTER:                  -9.845
REMARK INTRA:                  -0.813
REMARK UNBOUND:                -0.843
REMARK  Name = 
REMARK  4 active torsions:
REMARK  status: ('A' for Active; 'I' for Inactive)
REMARK    1  A    between atoms: C_2  and  C_3
REMARK    2  A    between atoms: C_6  and  C_7
REMARK    3  A    between atoms: C_9  and  C_10
REMARK    4  A    between atoms: C_19  and  C_20
REMARK                            x       y       z     vdW  Elec       q    Type
REMARK                         _______ _______ _______ _____ _____    ______ ____
ROOT
ATOM      1  C   UNL     1      24.371   1.137  52.027  0.00  0.00    +0.000 A 
ATOM      2  N   UNL     1      23.230   0.489  52.199  0.00  0.00    +0.000 NA
ATOM      3  C   UNL     1      22.246   1.262  51.617  0.00  0.00    +0.000 A 
ATOM      4  C   UNL     1      22.774   2.461  51.163  0.00  0.00    +0.000 A 
ATOM      5  N   UNL     1      24.129   2.312  51.351  0.00  0.00    +0.000 N 
ATOM      6  H   UNL     1      24.818   2.948  51.051  0.00  0.00    +0.000 HD
ENDROOT
BRANCH   3   7
ATOM      7  C   UNL     1      20.856   0.829  51.525  0.00  0.00    +0.000 A 
ATOM      8  C   UNL     1      20.067   1.151  50.391  0.00  0.00    +0.000 A 
ATOM      9  C   UNL     1      18.708   0.839  50.331  0.00  0.00    +0.000 A 
ATOM     10  C   UNL     1      18.177   0.137  51.384  0.00  0.00    +0.000 A 
ATOM     11  C   UNL     1      18.941  -0.238  52.465  0.00  0.00    +0.000 A 
ATOM     12  C   UNL     1      20.278   0.096  52.570  0.00  0.00    +0.000 A 
ATOM     13  O   UNL     1      18.220  -0.943  53.379  0.00  0.00    +0.000 OA
ATOM     14  C   UNL     1      16.918  -0.947  52.758  0.00  0.00    +0.000 C 
ATOM     15  O   UNL     1      16.886  -0.273  51.484  0.00  0.00    +0.000 OA
ENDBRANCH   3   7
BRANCH   1  19
ATOM     16  C   UNL     1      28.236  -0.276  53.284  0.00  0.00    +0.000 A 
ATOM     17  C   UNL     1      27.225  -1.174  52.941  0.00  0.00    +0.000 A 
ATOM     18  C   UNL     1      25.969  -0.698  52.536  0.00  0.00    +0.000 A 
ATOM     19  C   UNL     1      25.701   0.678  52.464  0.00  0.00    +0.000 A 
ATOM     20  C   UNL     1      26.724   1.569  52.819  0.00  0.00    +0.000 A 
ATOM     21  C   UNL     1      27.983   1.097  53.225  0.00  0.00    +0.000 A 
BRANCH  16  23
ATOM     22  N   UNL     1      30.564  -1.148  54.025  0.00  0.00    +0.000 NA
ATOM     23  C   UNL     1      29.528  -0.755  53.692  0.00  0.00    +0.000 C 
ENDBRANCH  16  23
ENDBRANCH   1  19
BRANCH   4  24
ATOM     24  C   UNL     1      22.193   3.650  50.555  0.00  0.00    +0.000 A 
ATOM     25  C   UNL     1      21.420   4.548  51.285  0.00  0.00    +0.000 A 
ATOM     26  C   UNL     1      20.713   5.533  50.608  0.00  0.00    +0.000 A 
ATOM     27  C   UNL     1      20.849   5.631  49.231  0.00  0.00    +0.000 A 
ATOM     28  C   UNL     1      21.699   4.742  48.591  0.00  0.00    +0.000 A 
ATOM     29  N   UNL     1      22.379   3.752  49.218  0.00  0.00    +0.000 NA
ENDBRANCH   4  24
TORSDOF 4
ENDMDL
