MODEL 1
REMARK VINA RESULT:    -9.933      0.000      0.000
REMARK INTER + INTRA:         -12.648
REMARK INTER:                 -11.676
REMARK INTRA:                  -0.973
REMARK UNBOUND:                -0.973
REMARK  Name = 
REMARK  5 active torsions:
REMARK  status: ('A' for Active; 'I' for Inactive)
REMARK    1  A    between atoms: C_1  and  N_2
REMARK    2  A    between atoms: C_5  and  C_6
REMARK    3  A    between atoms: C_7  and  O_8
REMARK    4  A    between atoms: C_10  and  O_11
REMARK    5  A    between atoms: C_16  and  C_17
REMARK                            x       y       z     vdW  Elec       q    Type
REMARK                         _______ _______ _______ _____ _____    ______ ____
ROOT
ATOM      1  C   UNL     1      22.490   1.647  52.410  0.00  0.00    +0.000 A 
ATOM      2  C   UNL     1      21.089   1.537  52.525  0.00  0.00    +0.000 A 
ATOM      3  C   UNL     1      20.509   0.602  53.374  0.00  0.00    +0.000 A 
ATOM      4  C   UNL     1      21.328  -0.242  54.123  0.00  0.00    +0.000 A 
ATOM      5  C   UNL     1      22.728  -0.161  54.036  0.00  0.00    +0.000 A 
ATOM      6  C   UNL     1      23.604  -1.078  54.836  0.00  0.00    +0.000 A 
ATOM      7  O   UNL     1      23.164  -1.912  55.623  0.00  0.00    +0.000 OA
ATOM      8  O   UNL     1      24.952  -0.960  54.659  0.00  0.00    +0.000 OA
ATOM      9  C   UNL     1      25.507  -0.003  53.805  0.00  0.00    +0.000 A 
ATOM     10  C   UNL     1      24.777   0.864  53.100  0.00  0.00    +0.000 A 
ATOM     11  C   UNL     1      23.314   0.794  53.180  0.00  0.00    +0.000 A 
ENDROOT
BRANCH   1  16
ATOM     12  C   UNL     1      25.326   5.246  49.042  0.00  0.00    +0.000 C 
ATOM     13  N   UNL     1      24.128   4.669  49.665  0.00  0.00    +0.000 N 
ATOM     14  C   UNL     1      23.986   3.271  49.260  0.00  0.00    +0.000 C 
ATOM     15  C   UNL     1      23.297   2.349  50.211  0.00  0.00    +0.000 C 
ATOM     16  C   UNL     1      23.045   2.662  51.490  0.00  0.00    +0.000 C 
ATOM     17  C   UNL     1      23.383   4.002  52.062  0.00  0.00    +0.000 C 
ATOM     18  C   UNL     1      24.136   4.948  51.108  0.00  0.00    +0.000 C 
ATOM     19  H   UNL     1      23.271   5.109  49.332  0.00  0.00    +0.000 HD
ENDBRANCH   1  16
BRANCH   9  20
ATOM     20  C   UNL     1      26.971  -0.048  53.735  0.00  0.00    +0.000 A 
ATOM     21  C   UNL     1      27.710   0.979  54.342  0.00  0.00    +0.000 A 
ATOM     22  C   UNL     1      29.106   0.939  54.350  0.00  0.00    +0.000 A 
ATOM     23  C   UNL     1      29.778  -0.125  53.747  0.00  0.00    +0.000 A 
ATOM     24  C   UNL     1      29.055  -1.141  53.125  0.00  0.00    +0.000 A 
ATOM     25  C   UNL     1      27.657  -1.104  53.115  0.00  0.00    +0.000 A 
ATOM     26 CL   UNL     1      26.823  -2.399  52.326  0.00  0.00    +0.000 Cl
ENDBRANCH   9  20
BRANCH   2  27
ATOM     27  O   UNL     1      20.284   2.361  51.782  0.00  0.00    +0.000 OA
ATOM     28  H   UNL     1      20.080   2.142  50.895  0.00  0.00    +0.000 HD
ENDBRANCH   2  27
BRANCH   4  29
ATOM     29  O   UNL     1      20.724  -1.154  54.948  0.00  0.00    +0.000 OA
ATOM     30  H   UNL     1      20.267  -0.864  55.712  0.00  0.00    +0.000 HD
ENDBRANCH   4  29
TORSDOF 4
ENDMDL
MODEL 2
REMARK VINA RESULT:    -9.886      2.132      5.615
REMARK INTER + INTRA:         -12.593
REMARK INTER:                 -12.212
REMARK INTRA:                  -0.381
REMARK UNBOUND:                -0.973
REMARK  Name = 
REMARK  5 active torsions:
REMARK  status: ('A' for Active; 'I' for Inactive)
REMARK    1  A    between atoms: C_1  and  N_2
REMARK    2  A    between atoms: C_5  and  C_6
REMARK    3  A    between atoms: C_7  and  O_8
REMARK    4  A    between atoms: C_10  and  O_11
REMARK    5  A    between atoms: C_16  and  C_17
REMARK                            x       y       z     vdW  Elec       q    Type
REMARK                         _______ _______ _______ _____ _____    ______ ____
ROOT
ATOM      1  C   UNL     1      24.236  -0.293  54.058  0.00  0.00    +0.000 A 
ATOM      2  C   UNL     1      23.465  -1.077  54.940  0.00  0.00    +0.000 A 
ATOM      3  C   UNL     1      22.082  -0.947  54.996  0.00  0.00    +0.000 A 
ATOM      4  C   UNL     1      21.450  -0.021  54.167  0.00  0.00    +0.000 A 
ATOM      5  C   UNL     1      22.185   0.778  53.276  0.00  0.00    +0.000 A 
ATOM      6  C   UNL     1      21.500   1.779  52.394  0.00  0.00    +0.000 A 
ATOM      7  O   UNL     1      20.281   1.935  52.372  0.00  0.00    +0.000 OA
ATOM      8  O   UNL     1      22.293   2.543  51.589  0.00  0.00    +0.000 OA
ATOM      9  C   UNL     1      23.681   2.382  51.547  0.00  0.00    +0.000 A 
ATOM     10  C   UNL     1      24.338   1.480  52.280  0.00  0.00    +0.000 A 
ATOM     11  C   UNL     1      23.586   0.637  53.215  0.00  0.00    +0.000 A 
ENDROOT
BRANCH   1  16
ATOM     12  C   UNL     1      29.899  -0.380  53.547  0.00  0.00    +0.000 C 
ATOM     13  N   UNL     1      28.598  -0.858  54.034  0.00  0.00    +0.000 N 
ATOM     14  C   UNL     1      27.971   0.174  54.857  0.00  0.00    +0.000 C 
ATOM     15  C   UNL     1      26.478   0.201  54.901  0.00  0.00    +0.000 C 
ATOM     16  C   UNL     1      25.703  -0.479  54.046  0.00  0.00    +0.000 C 
ATOM     17  C   UNL     1      26.275  -1.383  52.999  0.00  0.00    +0.000 C 
ATOM     18  C   UNL     1      27.812  -1.385  52.910  0.00  0.00    +0.000 C 
ATOM     19  H   UNL     1      28.692  -1.653  54.665  0.00  0.00    +0.000 HD
ENDBRANCH   1  16
BRANCH   9  20
ATOM     20  C   UNL     1      24.358   3.310  50.636  0.00  0.00    +0.000 A 
ATOM     21  C   UNL     1      23.606   4.318  50.013  0.00  0.00    +0.000 A 
ATOM     22  C   UNL     1      24.226   5.259  49.187  0.00  0.00    +0.000 A 
ATOM     23  C   UNL     1      25.603   5.199  48.971  0.00  0.00    +0.000 A 
ATOM     24  C   UNL     1      26.357   4.191  49.570  0.00  0.00    +0.000 A 
ATOM     25  C   UNL     1      25.741   3.248  50.397  0.00  0.00    +0.000 A 
ATOM     26 CL   UNL     1      26.738   2.025  51.109  0.00  0.00    +0.000 Cl
ENDBRANCH   9  20
BRANCH   2  27
ATOM     27  O   UNL     1      24.088  -1.981  55.760  0.00  0.00    +0.000 OA
ATOM     28  H   UNL     1      24.160  -2.878  55.500  0.00  0.00    +0.000 HD
ENDBRANCH   2  27
BRANCH   4  29
ATOM     29  O   UNL     1      20.086   0.085  54.250  0.00  0.00    +0.000 OA
ATOM     30  H   UNL     1      19.636   0.741  53.756  0.00  0.00    +0.000 HD
ENDBRANCH   4  29
TORSDOF 4
ENDMDL
MODEL 3
REMARK VINA RESULT:    -9.694      2.721      5.883
REMARK INTER + INTRA:         -12.367
REMARK INTER:                 -11.728
REMARK INTRA:                  -0.638
REMARK UNBOUND:                -0.973
REMARK  Name = 
REMARK  5 active torsions:
REMARK  status: ('A' for Active; 'I' for Inactive)
REMARK    1  A    between atoms: C_1  and  N_2
REMARK    2  A    between atoms: C_5  and  C_6
REMARK    3  A    between atoms: C_7  and  O_8
REMARK    4  A    between atoms: C_10  and  O_11
REMARK    5  A    between atoms: C_16  and  C_17
REMARK                            x       y       z     vdW  Elec       q    Type
REMARK                         _______ _______ _______ _____ _____    ______ ____
ROOT
ATOM      1  C   UNL     1      24.197   0.310  53.436  0.00  0.00    +0.000 A 
ATOM      2  C   UNL     1      23.198  -0.404  54.128  0.00  0.00    +0.000 A 
ATOM      3  C   UNL     1      21.851  -0.100  53.963  0.00  0.00    +0.000 A 
ATOM      4  C   UNL     1      21.486   0.931  53.099  0.00  0.00    +0.000 A 
ATOM      5  C   UNL     1      22.453   1.665  52.392  0.00  0.00    +0.000 A 
ATOM      6  C   UNL     1      22.054   2.779  51.472  0.00  0.00    +0.000 A 
ATOM      7  O   UNL     1      20.884   3.091  51.258  0.00  0.00    +0.000 OA
ATOM      8  O   UNL     1      23.059   3.468  50.858  0.00  0.00    +0.000 OA
ATOM      9  C   UNL     1      24.404   3.133  51.036  0.00  0.00    +0.000 A 
ATOM     10  C   UNL     1      24.814   2.126  51.811  0.00  0.00    +0.000 A 
ATOM     11  C   UNL     1      23.817   1.349  52.555  0.00  0.00    +0.000 A 
ENDROOT
BRANCH   1  16
ATOM     12  C   UNL     1      29.810  -0.532  53.794  0.00  0.00    +0.000 C 
ATOM     13  N   UNL     1      28.400  -0.805  54.101  0.00  0.00    +0.000 N 
ATOM     14  C   UNL     1      27.807   0.353  54.767  0.00  0.00    +0.000 C 
ATOM     15  C   UNL     1      26.341   0.572  54.583  0.00  0.00    +0.000 C 
ATOM     16  C   UNL     1      25.611  -0.062  53.656  0.00  0.00    +0.000 C 
ATOM     17  C   UNL     1      26.200  -1.101  52.754  0.00  0.00    +0.000 C 
ATOM     18  C   UNL     1      27.718  -1.305  52.898  0.00  0.00    +0.000 C 
ATOM     19  H   UNL     1      28.293  -1.559  54.778  0.00  0.00    +0.000 HD
ENDBRANCH   1  16
BRANCH   9  20
ATOM     20  C   UNL     1      25.334   4.002  50.309  0.00  0.00    +0.000 A 
ATOM     21  C   UNL     1      26.406   3.419  49.617  0.00  0.00    +0.000 A 
ATOM     22  C   UNL     1      27.277   4.209  48.861  0.00  0.00    +0.000 A 
ATOM     23  C   UNL     1      27.088   5.589  48.794  0.00  0.00    +0.000 A 
ATOM     24  C   UNL     1      26.037   6.181  49.493  0.00  0.00    +0.000 A 
ATOM     25  C   UNL     1      25.164   5.395  50.249  0.00  0.00    +0.000 A 
ATOM     26 CL   UNL     1      23.880   6.196  51.090  0.00  0.00    +0.000 Cl
ENDBRANCH   9  20
BRANCH   2  27
ATOM     27  O   UNL     1      23.559  -1.413  54.983  0.00  0.00    +0.000 OA
ATOM     28  H   UNL     1      24.390  -1.387  55.413  0.00  0.00    +0.000 HD
ENDBRANCH   2  27
BRANCH   4  29
ATOM     29  O   UNL     1      20.150   1.207  52.961  0.00  0.00    +0.000 OA
ATOM     30  H   UNL     1      19.592   0.606  52.507  0.00  0.00    +0.000 HD
ENDBRANCH   4  29
TORSDOF 4
ENDMDL
MODEL 4
REMARK VINA RESULT:    -8.901      1.658      2.540
REMARK INTER + INTRA:         -11.435
REMARK INTER:                 -11.537
REMARK INTRA:                   0.102
REMARK UNBOUND:                -0.973
REMARK  Name = 
REMARK  5 active torsions:
REMARK  status: ('A' for Active; 'I' for Inactive)
REMARK    1  A    between atoms: C_1  and  N_2
REMARK    2  A    between atoms: C_5  and  C_6
REMARK    3  A    between atoms: C_7  and  O_8
REMARK    4  A    between atoms: C_10  and  O_11
REMARK    5  A    between atoms: C_16  and  C_17
REMARK                            x       y       z     vdW  Elec       q    Type
REMARK                         _______ _______ _______ _____ _____    ______ ____
ROOT
ATOM      1  C   UNL     1      24.016   3.149  50.800  0.00  0.00    +0.000 A 
ATOM      2  C   UNL     1      22.667   3.377  50.457  0.00  0.00    +0.000 A 
ATOM      3  C   UNL     1      21.660   2.524  50.894  0.00  0.00    +0.000 A 
ATOM      4  C   UNL     1      21.992   1.422  51.682  0.00  0.00    +0.000 A 
ATOM      5  C   UNL     1      23.324   1.163  52.044  0.00  0.00    +0.000 A 
ATOM      6  C   UNL     1      23.676  -0.028  52.883  0.00  0.00    +0.000 A 
ATOM      7  O   UNL     1      22.840  -0.813  53.324  0.00  0.00    +0.000 OA
ATOM      8  O   UNL     1      24.999  -0.230  53.153  0.00  0.00    +0.000 OA
ATOM      9  C   UNL     1      25.989   0.652  52.708  0.00  0.00    +0.000 A 
ATOM     10  C   UNL     1      25.728   1.748  51.993  0.00  0.00    +0.000 A 
ATOM     11  C   UNL     1      24.342   2.034  51.607  0.00  0.00    +0.000 A 
ENDROOT
BRANCH   1  16
ATOM     12  C   UNL     1      27.495   6.861  48.260  0.00  0.00    +0.000 C 
ATOM     13  N   UNL     1      27.067   5.959  49.337  0.00  0.00    +0.000 N 
ATOM     14  C   UNL     1      25.807   6.434  49.907  0.00  0.00    +0.000 C 
ATOM     15  C   UNL     1      24.894   5.411  50.498  0.00  0.00    +0.000 C 
ATOM     16  C   UNL     1      25.039   4.093  50.304  0.00  0.00    +0.000 C 
ATOM     17  C   UNL     1      26.179   3.526  49.518  0.00  0.00    +0.000 C 
ATOM     18  C   UNL     1      27.102   4.568  48.863  0.00  0.00    +0.000 C 
ATOM     19  H   UNL     1      27.712   5.969  50.126  0.00  0.00    +0.000 HD
ENDBRANCH   1  16
BRANCH   9  20
ATOM     20  C   UNL     1      27.349   0.253  53.082  0.00  0.00    +0.000 A 
ATOM     21  C   UNL     1      28.194   1.203  53.676  0.00  0.00    +0.000 A 
ATOM     22  C   UNL     1      29.476   0.844  54.102  0.00  0.00    +0.000 A 
ATOM     23  C   UNL     1      29.927  -0.464  53.934  0.00  0.00    +0.000 A 
ATOM     24  C   UNL     1      29.104  -1.411  53.328  0.00  0.00    +0.000 A 
ATOM     25  C   UNL     1      27.820  -1.057  52.901  0.00  0.00    +0.000 A 
ATOM     26 CL   UNL     1      26.851  -2.283  52.157  0.00  0.00    +0.000 Cl
ENDBRANCH   9  20
BRANCH   2  27
ATOM     27  O   UNL     1      22.342   4.455  49.676  0.00  0.00    +0.000 OA
ATOM     28  H   UNL     1      21.570   4.952  49.861  0.00  0.00    +0.000 HD
ENDBRANCH   2  27
BRANCH   4  29
ATOM     29  O   UNL     1      20.976   0.600  52.093  0.00  0.00    +0.000 OA
ATOM     30  H   UNL     1      20.133   0.657  51.686  0.00  0.00    +0.000 HD
ENDBRANCH   4  29
TORSDOF 4
ENDMDL
MODEL 5
REMARK VINA RESULT:    -8.838      2.739      5.028
REMARK INTER + INTRA:         -11.361
REMARK INTER:                 -10.629
REMARK INTRA:                  -0.733
REMARK UNBOUND:                -0.973
REMARK  Name = 
REMARK  5 active torsions:
REMARK  status: ('A' for Active; 'I' for Inactive)
REMARK    1  A    between atoms: C_1  and  N_2
REMARK    2  A    between atoms: C_5  and  C_6
REMARK    3  A    between atoms: C_7  and  O_8
REMARK    4  A    between atoms: C_10  and  O_11
REMARK    5  A    between atoms: C_16  and  C_17
REMARK                            x       y       z     vdW  Elec       q    Type
REMARK                         _______ _______ _______ _____ _____    ______ ____
ROOT
ATOM      1  C   UNL     1      22.577   0.545  52.657  0.00  0.00    +0.000 A 
ATOM      2  C   UNL     1      22.382  -0.539  53.538  0.00  0.00    +0.000 A 
ATOM      3  C   UNL     1      23.434  -1.056  54.285  0.00  0.00    +0.000 A 
ATOM      4  C   UNL     1      24.703  -0.493  54.159  0.00  0.00    +0.000 A 
ATOM      5  C   UNL     1      24.935   0.589  53.293  0.00  0.00    +0.000 A 
ATOM      6  C   UNL     1      26.305   1.184  53.155  0.00  0.00    +0.000 A 
ATOM      7  O   UNL     1      27.276   0.796  53.798  0.00  0.00    +0.000 OA
ATOM      8  O   UNL     1      26.451   2.204  52.260  0.00  0.00    +0.000 OA
ATOM      9  C   UNL     1      25.371   2.709  51.528  0.00  0.00    +0.000 A 
ATOM     10  C   UNL     1      24.126   2.244  51.642  0.00  0.00    +0.000 A 
ATOM     11  C   UNL     1      23.865   1.116  52.542  0.00  0.00    +0.000 A 
ENDROOT
BRANCH   1  16
ATOM     12  C   UNL     1      18.623   2.982  49.377  0.00  0.00    +0.000 C 
ATOM     13  N   UNL     1      19.120   2.031  50.380  0.00  0.00    +0.000 N 
ATOM     14  C   UNL     1      20.107   1.142  49.769  0.00  0.00    +0.000 C 
ATOM     15  C   UNL     1      21.169   0.584  50.659  0.00  0.00    +0.000 C 
ATOM     16  C   UNL     1      21.418   1.049  51.891  0.00  0.00    +0.000 C 
ATOM     17  C   UNL     1      20.601   2.139  52.509  0.00  0.00    +0.000 C 
ATOM     18  C   UNL     1      19.534   2.757  51.589  0.00  0.00    +0.000 C 
ATOM     19  H   UNL     1      18.389   1.400  50.707  0.00  0.00    +0.000 HD
ENDBRANCH   1  16
BRANCH   9  20
ATOM     20  C   UNL     1      25.735   3.789  50.605  0.00  0.00    +0.000 A 
ATOM     21  C   UNL     1      26.811   3.595  49.726  0.00  0.00    +0.000 A 
ATOM     22  C   UNL     1      27.148   4.575  48.789  0.00  0.00    +0.000 A 
ATOM     23  C   UNL     1      26.417   5.761  48.726  0.00  0.00    +0.000 A 
ATOM     24  C   UNL     1      25.358   5.973  49.607  0.00  0.00    +0.000 A 
ATOM     25  C   UNL     1      25.017   4.994  50.545  0.00  0.00    +0.000 A 
ATOM     26 CL   UNL     1      23.690   5.323  51.606  0.00  0.00    +0.000 Cl
ENDBRANCH   9  20
BRANCH   2  27
ATOM     27  O   UNL     1      21.136  -1.098  53.655  0.00  0.00    +0.000 OA
ATOM     28  H   UNL     1      20.841  -1.722  53.022  0.00  0.00    +0.000 HD
ENDBRANCH   2  27
BRANCH   4  29
ATOM     29  O   UNL     1      25.718  -1.028  54.908  0.00  0.00    +0.000 OA
ATOM     30  H   UNL     1      26.373  -0.469  55.277  0.00  0.00    +0.000 HD
ENDBRANCH   4  29
TORSDOF 4
ENDMDL
MODEL 6
REMARK VINA RESULT:    -8.775      3.141      6.404
REMARK INTER + INTRA:         -11.286
REMARK INTER:                 -10.519
REMARK INTRA:                  -0.768
REMARK UNBOUND:                -0.973
REMARK  Name = 
REMARK  5 active torsions:
REMARK  status: ('A' for Active; 'I' for Inactive)
REMARK    1  A    between atoms: C_1  and  N_2
REMARK    2  A    between atoms: C_5  and  C_6
REMARK    3  A    between atoms: C_7  and  O_8
REMARK    4  A    between atoms: C_10  and  O_11
REMARK    5  A    between atoms: C_16  and  C_17
REMARK                            x       y       z     vdW  Elec       q    Type
REMARK                         _______ _______ _______ _____ _____    ______ ____
ROOT
ATOM      1  C   UNL     1      24.044   1.362  51.795  0.00  0.00    +0.000 A 
ATOM      2  C   UNL     1      22.900   0.583  52.067  0.00  0.00    +0.000 A 
ATOM      3  C   UNL     1      21.723   0.758  51.349  0.00  0.00    +0.000 A 
ATOM      4  C   UNL     1      21.674   1.725  50.345  0.00  0.00    +0.000 A 
ATOM      5  C   UNL     1      22.793   2.519  50.045  0.00  0.00    +0.000 A 
ATOM      6  C   UNL     1      22.731   3.563  48.970  0.00  0.00    +0.000 A 
ATOM      7  O   UNL     1      21.734   3.760  48.279  0.00  0.00    +0.000 OA
ATOM      8  O   UNL     1      23.849   4.319  48.773  0.00  0.00    +0.000 OA
ATOM      9  C   UNL     1      25.023   4.112  49.506  0.00  0.00    +0.000 A 
ATOM     10  C   UNL     1      25.146   3.172  50.445  0.00  0.00    +0.000 A 
ATOM     11  C   UNL     1      23.988   2.333  50.769  0.00  0.00    +0.000 A 
ENDROOT
BRANCH   1  16
ATOM     12  C   UNL     1      29.080   0.987  54.408  0.00  0.00    +0.000 C 
ATOM     13  N   UNL     1      27.668   0.653  54.185  0.00  0.00    +0.000 N 
ATOM     14  C   UNL     1      26.841   1.841  54.392  0.00  0.00    +0.000 C 
ATOM     15  C   UNL     1      25.561   1.926  53.628  0.00  0.00    +0.000 C 
ATOM     16  C   UNL     1      25.264   1.126  52.595  0.00  0.00    +0.000 C 
ATOM     17  C   UNL     1      26.177   0.025  52.154  0.00  0.00    +0.000 C 
ATOM     18  C   UNL     1      27.521  -0.046  52.901  0.00  0.00    +0.000 C 
ATOM     19  H   UNL     1      27.317  -0.013  54.872  0.00  0.00    +0.000 HD
ENDBRANCH   1  16
BRANCH   9  20
ATOM     20  C   UNL     1      26.107   5.038  49.163  0.00  0.00    +0.000 A 
ATOM     21  C   UNL     1      27.347   4.513  48.771  0.00  0.00    +0.000 A 
ATOM     22  C   UNL     1      28.385   5.362  48.377  0.00  0.00    +0.000 A 
ATOM     23  C   UNL     1      28.195   6.744  48.377  0.00  0.00    +0.000 A 
ATOM     24  C   UNL     1      26.973   7.277  48.782  0.00  0.00    +0.000 A 
ATOM     25  C   UNL     1      25.932   6.431  49.176  0.00  0.00    +0.000 A 
ATOM     26 CL   UNL     1      24.441   7.161  49.666  0.00  0.00    +0.000 Cl
ENDBRANCH   9  20
BRANCH   2  27
ATOM     27  O   UNL     1      22.946  -0.361  53.060  0.00  0.00    +0.000 OA
ATOM     28  H   UNL     1      23.293  -0.139  53.901  0.00  0.00    +0.000 HD
ENDBRANCH   2  27
BRANCH   4  29
ATOM     29  O   UNL     1      20.497   1.874  49.657  0.00  0.00    +0.000 OA
ATOM     30  H   UNL     1      19.845   1.202  49.693  0.00  0.00    +0.000 HD
ENDBRANCH   4  29
TORSDOF 4
ENDMDL
MODEL 7
REMARK VINA RESULT:    -8.555      2.348      5.638
REMARK INTER + INTRA:         -11.028
REMARK INTER:                 -10.889
REMARK INTRA:                  -0.138
REMARK UNBOUND:                -0.973
REMARK  Name = 
REMARK  5 active torsions:
REMARK  status: ('A' for Active; 'I' for Inactive)
REMARK    1  A    between atoms: C_1  and  N_2
REMARK    2  A    between atoms: C_5  and  C_6
REMARK    3  A    between atoms: C_7  and  O_8
REMARK    4  A    between atoms: C_10  and  O_11
REMARK    5  A    between atoms: C_16  and  C_17
REMARK                            x       y       z     vdW  Elec       q    Type
REMARK                         _______ _______ _______ _____ _____    ______ ____
ROOT
ATOM      1  C   UNL     1      25.039   1.372  53.199  0.00  0.00    +0.000 A 
ATOM      2  C   UNL     1      26.119   1.109  54.067  0.00  0.00    +0.000 A 
ATOM      3  C   UNL     1      26.064   0.069  54.988  0.00  0.00    +0.000 A 
ATOM      4  C   UNL     1      24.919  -0.724  55.056  0.00  0.00    +0.000 A 
ATOM      5  C   UNL     1      23.824  -0.492  54.208  0.00  0.00    +0.000 A 
ATOM      6  C   UNL     1      22.592  -1.342  54.292  0.00  0.00    +0.000 A 
ATOM      7  O   UNL     1      22.479  -2.291  55.064  0.00  0.00    +0.000 OA
ATOM      8  O   UNL     1      21.558  -1.022  53.461  0.00  0.00    +0.000 OA
ATOM      9  C   UNL     1      21.646   0.024  52.537  0.00  0.00    +0.000 A 
ATOM     10  C   UNL     1      22.732   0.786  52.392  0.00  0.00    +0.000 A 
ATOM     11  C   UNL     1      23.885   0.557  53.269  0.00  0.00    +0.000 A 
ENDROOT
BRANCH   1  16
ATOM     12  C   UNL     1      24.915   5.338  49.126  0.00  0.00    +0.000 C 
ATOM     13  N   UNL     1      25.406   4.712  50.361  0.00  0.00    +0.000 N 
ATOM     14  C   UNL     1      24.334   4.673  51.354  0.00  0.00    +0.000 C 
ATOM     15  C   UNL     1      24.371   3.569  52.359  0.00  0.00    +0.000 C 
ATOM     16  C   UNL     1      25.159   2.492  52.242  0.00  0.00    +0.000 C 
ATOM     17  C   UNL     1      26.126   2.333  51.111  0.00  0.00    +0.000 C 
ATOM     18  C   UNL     1      26.067   3.438  50.042  0.00  0.00    +0.000 C 
ATOM     19  H   UNL     1      26.136   5.265  50.809  0.00  0.00    +0.000 HD
ENDBRANCH   1  16
BRANCH   9  20
ATOM     20  C   UNL     1      20.425   0.224  51.750  0.00  0.00    +0.000 A 
ATOM     21  C   UNL     1      19.192  -0.144  52.308  0.00  0.00    +0.000 A 
ATOM     22  C   UNL     1      18.001   0.089  51.614  0.00  0.00    +0.000 A 
ATOM     23  C   UNL     1      18.032   0.685  50.354  0.00  0.00    +0.000 A 
ATOM     24  C   UNL     1      19.253   1.038  49.782  0.00  0.00    +0.000 A 
ATOM     25  C   UNL     1      20.446   0.808  50.473  0.00  0.00    +0.000 A 
ATOM     26 CL   UNL     1      21.925   1.271  49.703  0.00  0.00    +0.000 Cl
ENDBRANCH   9  20
BRANCH   2  27
ATOM     27  O   UNL     1      27.241   1.894  54.006  0.00  0.00    +0.000 OA
ATOM     28  H   UNL     1      27.198   2.793  54.265  0.00  0.00    +0.000 HD
ENDBRANCH   2  27
BRANCH   4  29
ATOM     29  O   UNL     1      24.897  -1.738  55.977  0.00  0.00    +0.000 OA
ATOM     30  H   UNL     1      25.413  -2.508  55.839  0.00  0.00    +0.000 HD
ENDBRANCH   4  29
TORSDOF 4
ENDMDL
MODEL 8
REMARK VINA RESULT:    -8.520      2.940      6.752
REMARK INTER + INTRA:         -10.987
REMARK INTER:                 -10.644
REMARK INTRA:                  -0.344
REMARK UNBOUND:                -0.973
REMARK  Name = 
REMARK  5 active torsions:
REMARK  status: ('A' for Active; 'I' for Inactive)
REMARK    1  A    between atoms: C_1  and  N_2
REMARK    2  A    between atoms: C_5  and  C_6
REMARK    3  A    between atoms: C_7  and  O_8
REMARK    4  A    between atoms: C_10  and  O_11
REMARK    5  A    between atoms: C_16  and  C_17
REMARK                            x       y       z     vdW  Elec       q    Type
REMARK                         _______ _______ _______ _____ _____    ______ ____
ROOT
ATOM      1  C   UNL     1      25.115   2.430  51.244  0.00  0.00    +0.000 A 
ATOM      2  C   UNL     1      25.820   3.338  50.427  0.00  0.00    +0.000 A 
ATOM      3  C   UNL     1      25.166   4.089  49.456  0.00  0.00    +0.000 A 
ATOM      4  C   UNL     1      23.790   3.937  49.288  0.00  0.00    +0.000 A 
ATOM      5  C   UNL     1      23.055   3.043  50.083  0.00  0.00    +0.000 A 
ATOM      6  C   UNL     1      21.577   2.877  49.891  0.00  0.00    +0.000 A 
ATOM      7  O   UNL     1      20.928   3.521  49.070  0.00  0.00    +0.000 OA
ATOM      8  O   UNL     1      20.947   1.957  50.676  0.00  0.00    +0.000 OA
ATOM      9  C   UNL     1      21.630   1.223  51.652  0.00  0.00    +0.000 A 
ATOM     10  C   UNL     1      22.936   1.359  51.893  0.00  0.00    +0.000 A 
ATOM     11  C   UNL     1      23.719   2.289  51.072  0.00  0.00    +0.000 A 
ENDROOT
BRANCH   1  16
ATOM     12  C   UNL     1      28.633  -0.094  54.931  0.00  0.00    +0.000 C 
ATOM     13  N   UNL     1      27.344   0.139  54.265  0.00  0.00    +0.000 N 
ATOM     14  C   UNL     1      26.893   1.504  54.527  0.00  0.00    +0.000 C 
ATOM     15  C   UNL     1      26.029   2.150  53.494  0.00  0.00    +0.000 C 
ATOM     16  C   UNL     1      25.868   1.662  52.257  0.00  0.00    +0.000 C 
ATOM     17  C   UNL     1      26.501   0.378  51.821  0.00  0.00    +0.000 C 
ATOM     18  C   UNL     1      27.431  -0.276  52.858  0.00  0.00    +0.000 C 
ATOM     19  H   UNL     1      26.602  -0.444  54.650  0.00  0.00    +0.000 HD
ENDBRANCH   1  16
BRANCH   9  20
ATOM     20  C   UNL     1      20.785   0.270  52.377  0.00  0.00    +0.000 A 
ATOM     21  C   UNL     1      19.429   0.166  52.029  0.00  0.00    +0.000 A 
ATOM     22  C   UNL     1      18.606  -0.773  52.655  0.00  0.00    +0.000 A 
ATOM     23  C   UNL     1      19.127  -1.614  53.639  0.00  0.00    +0.000 A 
ATOM     24  C   UNL     1      20.467  -1.506  54.005  0.00  0.00    +0.000 A 
ATOM     25  C   UNL     1      21.295  -0.568  53.381  0.00  0.00    +0.000 A 
ATOM     26 CL   UNL     1      22.949  -0.491  53.885  0.00  0.00    +0.000 Cl
ENDBRANCH   9  20
BRANCH   2  27
ATOM     27  O   UNL     1      27.173   3.480  50.587  0.00  0.00    +0.000 OA
ATOM     28  H   UNL     1      27.537   3.561  51.447  0.00  0.00    +0.000 HD
ENDBRANCH   2  27
BRANCH   4  29
ATOM     29  O   UNL     1      23.178   4.690  48.320  0.00  0.00    +0.000 OA
ATOM     30  H   UNL     1      22.651   4.274  47.666  0.00  0.00    +0.000 HD
ENDBRANCH   4  29
TORSDOF 4
ENDMDL
MODEL 9
REMARK VINA RESULT:    -8.331      2.751      4.379
REMARK INTER + INTRA:         -10.765
REMARK INTER:                 -10.763
REMARK INTRA:                  -0.002
REMARK UNBOUND:                -0.973
REMARK  Name = 
REMARK  5 active torsions:
REMARK  status: ('A' for Active; 'I' for Inactive)
REMARK    1  A    between atoms: C_1  and  N_2
REMARK    2  A    between atoms: C_5  and  C_6
REMARK    3  A    between atoms: C_7  and  O_8
REMARK    4  A    between atoms: C_10  and  O_11
REMARK    5  A    between atoms: C_16  and  C_17
REMARK                            x       y       z     vdW  Elec       q    Type
REMARK                         _______ _______ _______ _____ _____    ______ ____
ROOT
ATOM      1  C   UNL     1      20.789   0.182  52.925  0.00  0.00    +0.000 A 
ATOM      2  C   UNL     1      20.233  -0.753  53.823  0.00  0.00    +0.000 A 
ATOM      3  C   UNL     1      21.037  -1.474  54.698  0.00  0.00    +0.000 A 
ATOM      4  C   UNL     1      22.416  -1.270  54.683  0.00  0.00    +0.000 A 
ATOM      5  C   UNL     1      23.005  -0.347  53.804  0.00  0.00    +0.000 A 
ATOM      6  C   UNL     1      24.490  -0.139  53.786  0.00  0.00    +0.000 A 
ATOM      7  O   UNL     1      25.261  -0.722  54.544  0.00  0.00    +0.000 OA
ATOM      8  O   UNL     1      24.983   0.745  52.871  0.00  0.00    +0.000 OA
ATOM      9  C   UNL     1      24.148   1.464  52.010  0.00  0.00    +0.000 A 
ATOM     10  C   UNL     1      22.819   1.348  52.010  0.00  0.00    +0.000 A 
ATOM     11  C   UNL     1      22.187   0.389  52.923  0.00  0.00    +0.000 A 
ENDROOT
BRANCH   1  16
ATOM     12  C   UNL     1      17.934   3.181  49.026  0.00  0.00    +0.000 C 
ATOM     13  N   UNL     1      18.073   2.363  50.238  0.00  0.00    +0.000 N 
ATOM     14  C   UNL     1      18.593   1.043  49.885  0.00  0.00    +0.000 C 
ATOM     15  C   UNL     1      19.398   0.326  50.918  0.00  0.00    +0.000 C 
ATOM     16  C   UNL     1      19.880   0.917  52.020  0.00  0.00    +0.000 C 
ATOM     17  C   UNL     1      19.595   2.351  52.341  0.00  0.00    +0.000 C 
ATOM     18  C   UNL     1      18.806   3.117  51.264  0.00  0.00    +0.000 C 
ATOM     19  H   UNL     1      17.172   2.164  50.673  0.00  0.00    +0.000 HD
ENDBRANCH   1  16
BRANCH   9  20
ATOM     20  C   UNL     1      24.868   2.347  51.087  0.00  0.00    +0.000 A 
ATOM     21  C   UNL     1      24.132   3.114  50.171  0.00  0.00    +0.000 A 
ATOM     22  C   UNL     1      24.777   4.013  49.318  0.00  0.00    +0.000 A 
ATOM     23  C   UNL     1      26.163   4.150  49.367  0.00  0.00    +0.000 A 
ATOM     24  C   UNL     1      26.907   3.380  50.260  0.00  0.00    +0.000 A 
ATOM     25  C   UNL     1      26.265   2.480  51.116  0.00  0.00    +0.000 A 
ATOM     26 CL   UNL     1      27.250   1.556  52.199  0.00  0.00    +0.000 Cl
ENDBRANCH   9  20
BRANCH   2  27
ATOM     27  O   UNL     1      18.878  -0.958  53.830  0.00  0.00    +0.000 OA
ATOM     28  H   UNL     1      18.517  -1.683  54.301  0.00  0.00    +0.000 HD
ENDBRANCH   2  27
BRANCH   4  29
ATOM     29  O   UNL     1      23.180  -1.999  55.557  0.00  0.00    +0.000 OA
ATOM     30  H   UNL     1      23.233  -2.930  55.468  0.00  0.00    +0.000 HD
ENDBRANCH   4  29
TORSDOF 4
ENDMDL
