MODEL 1
REMARK VINA RESULT:    -9.362      0.000      0.000
REMARK INTER + INTRA:         -13.396
REMARK INTER:                 -12.372
REMARK INTRA:                  -1.024
REMARK UNBOUND:                -1.024
REMARK  Name = 
REMARK  7 active torsions:
REMARK  status: ('A' for Active; 'I' for Inactive)
REMARK    1  A    between atoms: C_1  and  N_2
REMARK    2  A    between atoms: C_4  and  C_5
REMARK    3  A    between atoms: C_6  and  C_7
REMARK    4  A    between atoms: N_9  and  C_10
REMARK    5  A    between atoms: C_10  and  C_11
REMARK    6  A    between atoms: C_11  and  C_12
REMARK    7  A    between atoms: C_12  and  N_13
REMARK                            x       y       z     vdW  Elec       q    Type
REMARK                         _______ _______ _______ _____ _____    ______ ____
ROOT
ATOM      1  C   UNL     1      23.546   0.053  53.563  0.00  0.00    +0.000 C 
ATOM      2  C   UNL     1      22.791   0.952  52.918  0.00  0.00    +0.000 C 
ATOM      3  C   UNL     1      21.446   0.929  53.527  0.00  0.00    +0.000 C 
ATOM      4  O   UNL     1      20.493   1.618  53.222  0.00  0.00    +0.000 OA
ATOM      5  N   UNL     1      21.467  -0.013  54.496  0.00  0.00    +0.000 N 
ATOM      6  C   UNL     1      22.676  -0.612  54.558  0.00  0.00    +0.000 C 
ATOM      7  O   UNL     1      22.974  -1.538  55.289  0.00  0.00    +0.000 OA
ATOM      8  H   UNL     1      20.703  -0.231  55.078  0.00  0.00    +0.000 HD
ENDROOT
BRANCH   1  12
ATOM      9  C   UNL     1      27.589  -2.569  52.561  0.00  0.00    +0.000 C 
ATOM     10  N   UNL     1      26.733  -1.461  52.939  0.00  0.00    +0.000 N 
ATOM     11  C   UNL     1      25.368  -1.513  52.992  0.00  0.00    +0.000 A 
ATOM     12  C   UNL     1      24.910  -0.262  53.361  0.00  0.00    +0.000 A 
ATOM     13  C   UNL     1      26.051   0.575  53.550  0.00  0.00    +0.000 A 
ATOM     14  C   UNL     1      26.235   1.923  53.928  0.00  0.00    +0.000 A 
ATOM     15  C   UNL     1      27.532   2.441  54.035  0.00  0.00    +0.000 A 
ATOM     16  C   UNL     1      28.640   1.642  53.776  0.00  0.00    +0.000 A 
ATOM     17  C   UNL     1      28.487   0.305  53.397  0.00  0.00    +0.000 A 
ATOM     18  C   UNL     1      27.183  -0.208  53.289  0.00  0.00    +0.000 A 
ENDBRANCH   1  12
BRANCH   2  19
ATOM     19  C   UNL     1      23.157   1.794  51.838  0.00  0.00    +0.000 A 
ATOM     20  C   UNL     1      24.071   2.814  51.942  0.00  0.00    +0.000 A 
ATOM     21  N   UNL     1      24.145   3.443  50.722  0.00  0.00    +0.000 N 
ATOM     22  C   UNL     1      23.252   2.859  49.840  0.00  0.00    +0.000 A 
ATOM     23  C   UNL     1      22.917   3.175  48.515  0.00  0.00    +0.000 A 
ATOM     24  C   UNL     1      22.100   2.283  47.812  0.00  0.00    +0.000 A 
ATOM     25  C   UNL     1      21.566   1.157  48.429  0.00  0.00    +0.000 A 
ATOM     26  C   UNL     1      21.810   0.912  49.783  0.00  0.00    +0.000 A 
ATOM     27  C   UNL     1      22.680   1.763  50.499  0.00  0.00    +0.000 A 
BRANCH  21  28
ATOM     28  C   UNL     1      25.152   4.437  50.386  0.00  0.00    +0.000 C 
BRANCH  28  29
ATOM     29  C   UNL     1      26.428   3.883  49.751  0.00  0.00    +0.000 C 
BRANCH  29  30
ATOM     30  C   UNL     1      27.132   4.806  48.757  0.00  0.00    +0.000 C 
BRANCH  30  31
ATOM     31  N   UNL     1      28.509   5.105  49.137  0.00  0.00    +0.000 N 
ATOM     32  H   UNL     1      29.148   4.563  48.555  0.00  0.00    +0.000 HD
ATOM     33  H   UNL     1      28.652   4.861  50.117  0.00  0.00    +0.000 HD
ATOM     34  H   UNL     1      28.690   6.100  49.004  0.00  0.00    +0.000 HD
ENDBRANCH  30  31
ENDBRANCH  29  30
ENDBRANCH  28  29
ENDBRANCH  21  28
ENDBRANCH   2  19
TORSDOF 6
ENDMDL
MODEL 2
REMARK VINA RESULT:    -9.109      0.832      1.952
REMARK INTER + INTRA:         -13.062
REMARK INTER:                 -12.808
REMARK INTRA:                  -0.253
REMARK UNBOUND:                -1.024
REMARK  Name = 
REMARK  7 active torsions:
REMARK  status: ('A' for Active; 'I' for Inactive)
REMARK    1  A    between atoms: C_1  and  N_2
REMARK    2  A    between atoms: C_4  and  C_5
REMARK    3  A    between atoms: C_6  and  C_7
REMARK    4  A    between atoms: N_9  and  C_10
REMARK    5  A    between atoms: C_10  and  C_11
REMARK    6  A    between atoms: C_11  and  C_12
REMARK    7  A    between atoms: C_12  and  N_13
REMARK                            x       y       z     vdW  Elec       q    Type
REMARK                         _______ _______ _______ _____ _____    ______ ____
ROOT
ATOM      1  C   UNL     1      24.104   0.343  53.548  0.00  0.00    +0.000 C 
ATOM      2  C   UNL     1      23.240   0.961  52.733  0.00  0.00    +0.000 C 
ATOM      3  C   UNL     1      21.878   0.548  53.125  0.00  0.00    +0.000 C 
ATOM      4  O   UNL     1      20.831   0.912  52.627  0.00  0.00    +0.000 OA
ATOM      5  N   UNL     1      22.009  -0.325  54.148  0.00  0.00    +0.000 N 
ATOM      6  C   UNL     1      23.312  -0.532  54.440  0.00  0.00    +0.000 C 
ATOM      7  O   UNL     1      23.740  -1.311  55.271  0.00  0.00    +0.000 OA
ATOM      8  H   UNL     1      21.256  -0.752  54.618  0.00  0.00    +0.000 HD
ENDROOT
BRANCH   1  12
ATOM      9  C   UNL     1      28.584   2.332  53.994  0.00  0.00    +0.000 C 
ATOM     10  N   UNL     1      27.533   1.362  53.756  0.00  0.00    +0.000 N 
ATOM     11  C   UNL     1      26.195   1.622  53.853  0.00  0.00    +0.000 A 
ATOM     12  C   UNL     1      25.515   0.449  53.585  0.00  0.00    +0.000 A 
ATOM     13  C   UNL     1      26.487  -0.557  53.303  0.00  0.00    +0.000 A 
ATOM     14  C   UNL     1      26.422  -1.925  52.959  0.00  0.00    +0.000 A 
ATOM     15  C   UNL     1      27.604  -2.639  52.728  0.00  0.00    +0.000 A 
ATOM     16  C   UNL     1      28.842  -2.014  52.832  0.00  0.00    +0.000 A 
ATOM     17  C   UNL     1      28.937  -0.662  53.174  0.00  0.00    +0.000 A 
ATOM     18  C   UNL     1      27.746   0.047  53.407  0.00  0.00    +0.000 A 
ENDBRANCH   1  12
BRANCH   2  19
ATOM     19  C   UNL     1      23.521   1.853  51.667  0.00  0.00    +0.000 A 
ATOM     20  C   UNL     1      24.447   2.865  51.743  0.00  0.00    +0.000 A 
ATOM     21  N   UNL     1      24.424   3.551  50.553  0.00  0.00    +0.000 N 
ATOM     22  C   UNL     1      23.458   3.012  49.721  0.00  0.00    +0.000 A 
ATOM     23  C   UNL     1      23.017   3.391  48.444  0.00  0.00    +0.000 A 
ATOM     24  C   UNL     1      22.139   2.536  47.769  0.00  0.00    +0.000 A 
ATOM     25  C   UNL     1      21.652   1.383  48.375  0.00  0.00    +0.000 A 
ATOM     26  C   UNL     1      22.004   1.072  49.691  0.00  0.00    +0.000 A 
ATOM     27  C   UNL     1      22.935   1.887  50.372  0.00  0.00    +0.000 A 
BRANCH  21  28
ATOM     28  C   UNL     1      25.406   4.558  50.182  0.00  0.00    +0.000 C 
BRANCH  28  29
ATOM     29  C   UNL     1      26.652   4.023  49.475  0.00  0.00    +0.000 C 
BRANCH  29  30
ATOM     30  C   UNL     1      27.402   5.027  48.599  0.00  0.00    +0.000 C 
BRANCH  30  31
ATOM     31  N   UNL     1      28.742   5.323  49.096  0.00  0.00    +0.000 N 
ATOM     32  H   UNL     1      29.413   5.247  48.331  0.00  0.00    +0.000 HD
ATOM     33  H   UNL     1      28.987   4.660  49.831  0.00  0.00    +0.000 HD
ATOM     34  H   UNL     1      28.762   6.271  49.473  0.00  0.00    +0.000 HD
ENDBRANCH  30  31
ENDBRANCH  29  30
ENDBRANCH  28  29
ENDBRANCH  21  28
ENDBRANCH   2  19
TORSDOF 6
ENDMDL
MODEL 3
REMARK VINA RESULT:    -8.634      2.280      5.927
REMARK INTER + INTRA:         -12.434
REMARK INTER:                 -11.295
REMARK INTRA:                  -1.139
REMARK UNBOUND:                -1.024
REMARK  Name = 
REMARK  7 active torsions:
REMARK  status: ('A' for Active; 'I' for Inactive)
REMARK    1  A    between atoms: C_1  and  N_2
REMARK    2  A    between atoms: C_4  and  C_5
REMARK    3  A    between atoms: C_6  and  C_7
REMARK    4  A    between atoms: N_9  and  C_10
REMARK    5  A    between atoms: C_10  and  C_11
REMARK    6  A    between atoms: C_11  and  C_12
REMARK    7  A    between atoms: C_12  and  N_13
REMARK                            x       y       z     vdW  Elec       q    Type
REMARK                         _______ _______ _______ _____ _____    ______ ____
ROOT
ATOM      1  C   UNL     1      24.505   2.304  52.390  0.00  0.00    +0.000 C 
ATOM      2  C   UNL     1      23.523   1.393  52.387  0.00  0.00    +0.000 C 
ATOM      3  C   UNL     1      23.965   0.253  53.213  0.00  0.00    +0.000 C 
ATOM      4  O   UNL     1      23.337  -0.758  53.460  0.00  0.00    +0.000 OA
ATOM      5  N   UNL     1      25.212   0.538  53.647  0.00  0.00    +0.000 N 
ATOM      6  C   UNL     1      25.626   1.732  53.168  0.00  0.00    +0.000 C 
ATOM      7  O   UNL     1      26.726   2.225  53.339  0.00  0.00    +0.000 OA
ATOM      8  H   UNL     1      25.746  -0.045  54.234  0.00  0.00    +0.000 HD
ENDROOT
BRANCH   1  12
ATOM      9  C   UNL     1      23.240   6.917  51.235  0.00  0.00    +0.000 C 
ATOM     10  N   UNL     1      23.937   5.646  51.230  0.00  0.00    +0.000 N 
ATOM     11  C   UNL     1      23.639   4.590  52.046  0.00  0.00    +0.000 A 
ATOM     12  C   UNL     1      24.534   3.574  51.769  0.00  0.00    +0.000 A 
ATOM     13  C   UNL     1      25.401   4.036  50.733  0.00  0.00    +0.000 A 
ATOM     14  C   UNL     1      26.488   3.472  50.030  0.00  0.00    +0.000 A 
ATOM     15  C   UNL     1      27.128   4.216  49.031  0.00  0.00    +0.000 A 
ATOM     16  C   UNL     1      26.703   5.503  48.721  0.00  0.00    +0.000 A 
ATOM     17  C   UNL     1      25.631   6.087  49.403  0.00  0.00    +0.000 A 
ATOM     18  C   UNL     1      24.995   5.336  50.406  0.00  0.00    +0.000 A 
ENDBRANCH   1  12
BRANCH   2  19
ATOM     19  C   UNL     1      22.271   1.454  51.725  0.00  0.00    +0.000 A 
ATOM     20  C   UNL     1      21.069   1.200  52.340  0.00  0.00    +0.000 A 
ATOM     21  N   UNL     1      20.078   1.307  51.394  0.00  0.00    +0.000 N 
ATOM     22  C   UNL     1      20.637   1.588  50.161  0.00  0.00    +0.000 A 
ATOM     23  C   UNL     1      20.057   1.732  48.890  0.00  0.00    +0.000 A 
ATOM     24  C   UNL     1      20.864   2.200  47.848  0.00  0.00    +0.000 A 
ATOM     25  C   UNL     1      22.220   2.441  48.040  0.00  0.00    +0.000 A 
ATOM     26  C   UNL     1      22.815   2.184  49.278  0.00  0.00    +0.000 A 
ATOM     27  C   UNL     1      22.012   1.769  50.363  0.00  0.00    +0.000 A 
BRANCH  21  28
ATOM     28  C   UNL     1      18.658   1.309  51.711  0.00  0.00    +0.000 C 
BRANCH  28  29
ATOM     29  C   UNL     1      17.986  -0.065  51.697  0.00  0.00    +0.000 C 
BRANCH  29  30
ATOM     30  C   UNL     1      18.373  -1.006  52.838  0.00  0.00    +0.000 C 
BRANCH  30  31
ATOM     31  N   UNL     1      17.296  -1.204  53.802  0.00  0.00    +0.000 N 
ATOM     32  H   UNL     1      17.573  -0.819  54.705  0.00  0.00    +0.000 HD
ATOM     33  H   UNL     1      17.107  -2.202  53.901  0.00  0.00    +0.000 HD
ATOM     34  H   UNL     1      16.455  -0.729  53.473  0.00  0.00    +0.000 HD
ENDBRANCH  30  31
ENDBRANCH  29  30
ENDBRANCH  28  29
ENDBRANCH  21  28
ENDBRANCH   2  19
TORSDOF 6
ENDMDL
MODEL 4
REMARK VINA RESULT:    -8.484      1.865      3.364
REMARK INTER + INTRA:         -12.236
REMARK INTER:                 -12.451
REMARK INTRA:                   0.215
REMARK UNBOUND:                -1.024
REMARK  Name = 
REMARK  7 active torsions:
REMARK  status: ('A' for Active; 'I' for Inactive)
REMARK    1  A    between atoms: C_1  and  N_2
REMARK    2  A    between atoms: C_4  and  C_5
REMARK    3  A    between atoms: C_6  and  C_7
REMARK    4  A    between atoms: N_9  and  C_10
REMARK    5  A    between atoms: C_10  and  C_11
REMARK    6  A    between atoms: C_11  and  C_12
REMARK    7  A    between atoms: C_12  and  N_13
REMARK                            x       y       z     vdW  Elec       q    Type
REMARK                         _______ _______ _______ _____ _____    ______ ____
ROOT
ATOM      1  C   UNL     1      24.590   1.116  52.400  0.00  0.00    +0.000 C 
ATOM      2  C   UNL     1      24.089   2.049  51.579  0.00  0.00    +0.000 C 
ATOM      3  C   UNL     1      22.646   1.784  51.426  0.00  0.00    +0.000 C 
ATOM      4  O   UNL     1      21.849   2.427  50.771  0.00  0.00    +0.000 OA
ATOM      5  N   UNL     1      22.366   0.679  52.153  0.00  0.00    +0.000 N 
ATOM      6  C   UNL     1      23.484   0.195  52.739  0.00  0.00    +0.000 C 
ATOM      7  O   UNL     1      23.554  -0.823  53.403  0.00  0.00    +0.000 OA
ATOM      8  H   UNL     1      21.470   0.282  52.244  0.00  0.00    +0.000 HD
ENDROOT
BRANCH   1  12
ATOM      9  C   UNL     1      28.981   2.298  54.282  0.00  0.00    +0.000 C 
ATOM     10  N   UNL     1      27.907   1.523  53.693  0.00  0.00    +0.000 N 
ATOM     11  C   UNL     1      26.669   2.014  53.386  0.00  0.00    +0.000 A 
ATOM     12  C   UNL     1      25.916   0.975  52.872  0.00  0.00    +0.000 A 
ATOM     13  C   UNL     1      26.743  -0.189  52.860  0.00  0.00    +0.000 A 
ATOM     14  C   UNL     1      26.556  -1.529  52.454  0.00  0.00    +0.000 A 
ATOM     15  C   UNL     1      27.612  -2.441  52.567  0.00  0.00    +0.000 A 
ATOM     16  C   UNL     1      28.845  -2.041  53.072  0.00  0.00    +0.000 A 
ATOM     17  C   UNL     1      29.057  -0.721  53.484  0.00  0.00    +0.000 A 
ATOM     18  C   UNL     1      27.991   0.188  53.370  0.00  0.00    +0.000 A 
ENDBRANCH   1  12
BRANCH   2  19
ATOM     19  C   UNL     1      24.772   3.113  50.938  0.00  0.00    +0.000 A 
ATOM     20  C   UNL     1      25.915   2.949  50.193  0.00  0.00    +0.000 A 
ATOM     21  N   UNL     1      26.322   4.189  49.765  0.00  0.00    +0.000 N 
ATOM     22  C   UNL     1      25.471   5.160  50.263  0.00  0.00    +0.000 A 
ATOM     23  C   UNL     1      25.498   6.559  50.158  0.00  0.00    +0.000 A 
ATOM     24  C   UNL     1      24.389   7.275  50.621  0.00  0.00    +0.000 A 
ATOM     25  C   UNL     1      23.324   6.630  51.241  0.00  0.00    +0.000 A 
ATOM     26  C   UNL     1      23.358   5.248  51.447  0.00  0.00    +0.000 A 
ATOM     27  C   UNL     1      24.438   4.495  50.936  0.00  0.00    +0.000 A 
BRANCH  21  28
ATOM     28  C   UNL     1      27.376   4.397  48.783  0.00  0.00    +0.000 C 
BRANCH  28  29
ATOM     29  C   UNL     1      27.593   5.850  48.358  0.00  0.00    +0.000 C 
BRANCH  29  30
ATOM     30  C   UNL     1      29.049   6.304  48.257  0.00  0.00    +0.000 C 
BRANCH  30  31
ATOM     31  N   UNL     1      29.941   5.545  49.128  0.00  0.00    +0.000 N 
ATOM     32  H   UNL     1      30.271   4.715  48.636  0.00  0.00    +0.000 HD
ATOM     33  H   UNL     1      29.438   5.266  49.970  0.00  0.00    +0.000 HD
ATOM     34  H   UNL     1      30.739   6.127  49.385  0.00  0.00    +0.000 HD
ENDBRANCH  30  31
ENDBRANCH  29  30
ENDBRANCH  28  29
ENDBRANCH  21  28
ENDBRANCH   2  19
TORSDOF 6
ENDMDL
MODEL 5
REMARK VINA RESULT:    -8.448      2.345      5.849
REMARK INTER + INTRA:         -12.189
REMARK INTER:                 -11.353
REMARK INTRA:                  -0.836
REMARK UNBOUND:                -1.024
REMARK  Name = 
REMARK  7 active torsions:
REMARK  status: ('A' for Active; 'I' for Inactive)
REMARK    1  A    between atoms: C_1  and  N_2
REMARK    2  A    between atoms: C_4  and  C_5
REMARK    3  A    between atoms: C_6  and  C_7
REMARK    4  A    between atoms: N_9  and  C_10
REMARK    5  A    between atoms: C_10  and  C_11
REMARK    6  A    between atoms: C_11  and  C_12
REMARK    7  A    between atoms: C_12  and  N_13
REMARK                            x       y       z     vdW  Elec       q    Type
REMARK                         _______ _______ _______ _____ _____    ______ ____
ROOT
ATOM      1  C   UNL     1      20.414  -0.105  52.942  0.00  0.00    +0.000 C 
ATOM      2  C   UNL     1      21.632  -0.031  53.496  0.00  0.00    +0.000 C 
ATOM      3  C   UNL     1      21.743  -1.123  54.482  0.00  0.00    +0.000 C 
ATOM      4  O   UNL     1      22.707  -1.389  55.173  0.00  0.00    +0.000 OA
ATOM      5  N   UNL     1      20.562  -1.780  54.481  0.00  0.00    +0.000 N 
ATOM      6  C   UNL     1      19.697  -1.210  53.613  0.00  0.00    +0.000 C 
ATOM      7  O   UNL     1      18.539  -1.545  53.441  0.00  0.00    +0.000 OA
ATOM      8  H   UNL     1      20.361  -2.567  55.037  0.00  0.00    +0.000 HD
ENDROOT
BRANCH   1  12
ATOM      9  C   UNL     1      17.177   2.697  50.514  0.00  0.00    +0.000 C 
ATOM     10  N   UNL     1      18.376   1.942  50.821  0.00  0.00    +0.000 N 
ATOM     11  C   UNL     1      18.599   1.275  51.993  0.00  0.00    +0.000 A 
ATOM     12  C   UNL     1      19.856   0.704  51.924  0.00  0.00    +0.000 A 
ATOM     13  C   UNL     1      20.407   1.032  50.650  0.00  0.00    +0.000 A 
ATOM     14  C   UNL     1      21.626   0.744  49.996  0.00  0.00    +0.000 A 
ATOM     15  C   UNL     1      21.848   1.224  48.700  0.00  0.00    +0.000 A 
ATOM     16  C   UNL     1      20.880   1.980  48.047  0.00  0.00    +0.000 A 
ATOM     17  C   UNL     1      19.666   2.284  48.671  0.00  0.00    +0.000 A 
ATOM     18  C   UNL     1      19.451   1.801  49.973  0.00  0.00    +0.000 A 
ENDBRANCH   1  12
BRANCH   2  19
ATOM     19  C   UNL     1      22.662   0.905  53.229  0.00  0.00    +0.000 A 
ATOM     20  C   UNL     1      22.475   2.266  53.220  0.00  0.00    +0.000 A 
ATOM     21  N   UNL     1      23.669   2.856  52.883  0.00  0.00    +0.000 N 
ATOM     22  C   UNL     1      24.619   1.881  52.635  0.00  0.00    +0.000 A 
ATOM     23  C   UNL     1      25.953   1.973  52.208  0.00  0.00    +0.000 A 
ATOM     24  C   UNL     1      26.729   0.810  52.217  0.00  0.00    +0.000 A 
ATOM     25  C   UNL     1      26.178  -0.420  52.562  0.00  0.00    +0.000 A 
ATOM     26  C   UNL     1      24.819  -0.523  52.874  0.00  0.00    +0.000 A 
ATOM     27  C   UNL     1      24.028   0.645  52.929  0.00  0.00    +0.000 A 
BRANCH  21  28
ATOM     28  C   UNL     1      23.914   4.287  52.972  0.00  0.00    +0.000 C 
BRANCH  28  29
ATOM     29  C   UNL     1      23.128   5.145  51.979  0.00  0.00    +0.000 C 
BRANCH  29  30
ATOM     30  C   UNL     1      23.964   6.048  51.072  0.00  0.00    +0.000 C 
BRANCH  30  31
ATOM     31  N   UNL     1      24.511   7.206  51.771  0.00  0.00    +0.000 N 
ATOM     32  H   UNL     1      24.678   6.965  52.749  0.00  0.00    +0.000 HD
ATOM     33  H   UNL     1      23.847   7.979  51.720  0.00  0.00    +0.000 HD
ATOM     34  H   UNL     1      25.390   7.483  51.335  0.00  0.00    +0.000 HD
ENDBRANCH  30  31
ENDBRANCH  29  30
ENDBRANCH  28  29
ENDBRANCH  21  28
ENDBRANCH   2  19
TORSDOF 6
ENDMDL
MODEL 6
REMARK VINA RESULT:    -8.436      1.672      3.184
REMARK INTER + INTRA:         -12.173
REMARK INTER:                 -10.337
REMARK INTRA:                  -1.836
REMARK UNBOUND:                -1.024
REMARK  Name = 
REMARK  7 active torsions:
REMARK  status: ('A' for Active; 'I' for Inactive)
REMARK    1  A    between atoms: C_1  and  N_2
REMARK    2  A    between atoms: C_4  and  C_5
REMARK    3  A    between atoms: C_6  and  C_7
REMARK    4  A    between atoms: N_9  and  C_10
REMARK    5  A    between atoms: C_10  and  C_11
REMARK    6  A    between atoms: C_11  and  C_12
REMARK    7  A    between atoms: C_12  and  N_13
REMARK                            x       y       z     vdW  Elec       q    Type
REMARK                         _______ _______ _______ _____ _____    ______ ____
ROOT
ATOM      1  C   UNL     1      23.135   0.018  53.610  0.00  0.00    +0.000 C 
ATOM      2  C   UNL     1      22.278   0.793  52.931  0.00  0.00    +0.000 C 
ATOM      3  C   UNL     1      20.980   0.748  53.632  0.00  0.00    +0.000 C 
ATOM      4  O   UNL     1      19.962   1.338  53.326  0.00  0.00    +0.000 OA
ATOM      5  N   UNL     1      21.129  -0.082  54.688  0.00  0.00    +0.000 N 
ATOM      6  C   UNL     1      22.380  -0.592  54.726  0.00  0.00    +0.000 C 
ATOM      7  O   UNL     1      22.788  -1.414  55.525  0.00  0.00    +0.000 OA
ATOM      8  H   UNL     1      20.421  -0.287  55.342  0.00  0.00    +0.000 HD
ENDROOT
BRANCH   1  12
ATOM      9  C   UNL     1      27.264  -2.411  52.483  0.00  0.00    +0.000 C 
ATOM     10  N   UNL     1      26.367  -1.339  52.868  0.00  0.00    +0.000 N 
ATOM     11  C   UNL     1      25.012  -1.465  52.996  0.00  0.00    +0.000 A 
ATOM     12  C   UNL     1      24.503  -0.228  53.346  0.00  0.00    +0.000 A 
ATOM     13  C   UNL     1      25.602   0.677  53.444  0.00  0.00    +0.000 A 
ATOM     14  C   UNL     1      25.728   2.046  53.765  0.00  0.00    +0.000 A 
ATOM     15  C   UNL     1      26.996   2.640  53.785  0.00  0.00    +0.000 A 
ATOM     16  C   UNL     1      28.133   1.894  53.494  0.00  0.00    +0.000 A 
ATOM     17  C   UNL     1      28.038   0.537  53.171  0.00  0.00    +0.000 A 
ATOM     18  C   UNL     1      26.762  -0.051  53.150  0.00  0.00    +0.000 A 
ENDBRANCH   1  12
BRANCH   2  19
ATOM     19  C   UNL     1      22.515   1.537  51.749  0.00  0.00    +0.000 A 
ATOM     20  C   UNL     1      22.351   1.031  50.482  0.00  0.00    +0.000 A 
ATOM     21  N   UNL     1      22.710   2.008  49.585  0.00  0.00    +0.000 N 
ATOM     22  C   UNL     1      23.145   3.131  50.266  0.00  0.00    +0.000 A 
ATOM     23  C   UNL     1      23.663   4.352  49.807  0.00  0.00    +0.000 A 
ATOM     24  C   UNL     1      23.851   5.379  50.738  0.00  0.00    +0.000 A 
ATOM     25  C   UNL     1      23.609   5.176  52.092  0.00  0.00    +0.000 A 
ATOM     26  C   UNL     1      23.205   3.922  52.557  0.00  0.00    +0.000 A 
ATOM     27  C   UNL     1      22.950   2.886  51.632  0.00  0.00    +0.000 A 
BRANCH  21  28
ATOM     28  C   UNL     1      22.476   1.914  48.153  0.00  0.00    +0.000 C 
BRANCH  28  29
ATOM     29  C   UNL     1      21.397   2.850  47.606  0.00  0.00    +0.000 C 
BRANCH  29  30
ATOM     30  C   UNL     1      20.009   2.703  48.231  0.00  0.00    +0.000 C 
BRANCH  30  31
ATOM     31  N   UNL     1      18.940   2.674  47.239  0.00  0.00    +0.000 N 
ATOM     32  H   UNL     1      18.993   3.511  46.658  0.00  0.00    +0.000 HD
ATOM     33  H   UNL     1      18.037   2.645  47.712  0.00  0.00    +0.000 HD
ATOM     34  H   UNL     1      19.044   1.846  46.652  0.00  0.00    +0.000 HD
ENDBRANCH  30  31
ENDBRANCH  29  30
ENDBRANCH  28  29
ENDBRANCH  21  28
ENDBRANCH   2  19
TORSDOF 6
ENDMDL
MODEL 7
REMARK VINA RESULT:    -8.394      3.318      6.781
REMARK INTER + INTRA:         -12.117
REMARK INTER:                 -10.991
REMARK INTRA:                  -1.127
REMARK UNBOUND:                -1.024
REMARK  Name = 
REMARK  7 active torsions:
REMARK  status: ('A' for Active; 'I' for Inactive)
REMARK    1  A    between atoms: C_1  and  N_2
REMARK    2  A    between atoms: C_4  and  C_5
REMARK    3  A    between atoms: C_6  and  C_7
REMARK    4  A    between atoms: N_9  and  C_10
REMARK    5  A    between atoms: C_10  and  C_11
REMARK    6  A    between atoms: C_11  and  C_12
REMARK    7  A    between atoms: C_12  and  N_13
REMARK                            x       y       z     vdW  Elec       q    Type
REMARK                         _______ _______ _______ _____ _____    ______ ____
ROOT
ATOM      1  C   UNL     1      19.364   0.096  52.537  0.00  0.00    +0.000 C 
ATOM      2  C   UNL     1      20.691   0.050  52.711  0.00  0.00    +0.000 C 
ATOM      3  C   UNL     1      20.986  -1.073  53.623  0.00  0.00    +0.000 C 
ATOM      4  O   UNL     1      22.081  -1.439  54.003  0.00  0.00    +0.000 OA
ATOM      5  N   UNL     1      19.802  -1.625  53.966  0.00  0.00    +0.000 N 
ATOM      6  C   UNL     1      18.776  -0.961  53.389  0.00  0.00    +0.000 C 
ATOM      7  O   UNL     1      17.594  -1.189  53.562  0.00  0.00    +0.000 OA
ATOM      8  H   UNL     1      19.700  -2.406  54.557  0.00  0.00    +0.000 HD
ENDROOT
BRANCH   1  12
ATOM      9  C   UNL     1      17.513   4.285  50.735  0.00  0.00    +0.000 C 
ATOM     10  N   UNL     1      17.755   2.870  50.939  0.00  0.00    +0.000 N 
ATOM     11  C   UNL     1      18.638   2.352  51.845  0.00  0.00    +0.000 A 
ATOM     12  C   UNL     1      18.609   0.976  51.725  0.00  0.00    +0.000 A 
ATOM     13  C   UNL     1      17.659   0.652  50.711  0.00  0.00    +0.000 A 
ATOM     14  C   UNL     1      17.186  -0.555  50.149  0.00  0.00    +0.000 A 
ATOM     15  C   UNL     1      16.208  -0.517  49.149  0.00  0.00    +0.000 A 
ATOM     16  C   UNL     1      15.693   0.697  48.705  0.00  0.00    +0.000 A 
ATOM     17  C   UNL     1      16.144   1.907  49.241  0.00  0.00    +0.000 A 
ATOM     18  C   UNL     1      17.129   1.861  50.243  0.00  0.00    +0.000 A 
ENDBRANCH   1  12
BRANCH   2  19
ATOM     19  C   UNL     1      21.680   0.900  52.155  0.00  0.00    +0.000 A 
ATOM     20  C   UNL     1      22.630   1.556  52.900  0.00  0.00    +0.000 A 
ATOM     21  N   UNL     1      23.387   2.319  52.045  0.00  0.00    +0.000 N 
ATOM     22  C   UNL     1      22.906   2.191  50.754  0.00  0.00    +0.000 A 
ATOM     23  C   UNL     1      23.297   2.805  49.553  0.00  0.00    +0.000 A 
ATOM     24  C   UNL     1      22.735   2.336  48.361  0.00  0.00    +0.000 A 
ATOM     25  C   UNL     1      21.758   1.346  48.367  0.00  0.00    +0.000 A 
ATOM     26  C   UNL     1      21.290   0.822  49.575  0.00  0.00    +0.000 A 
ATOM     27  C   UNL     1      21.883   1.235  50.788  0.00  0.00    +0.000 A 
BRANCH  21  28
ATOM     28  C   UNL     1      24.616   2.993  52.437  0.00  0.00    +0.000 C 
BRANCH  28  29
ATOM     29  C   UNL     1      25.346   2.373  53.630  0.00  0.00    +0.000 C 
BRANCH  29  30
ATOM     30  C   UNL     1      26.801   1.975  53.385  0.00  0.00    +0.000 C 
BRANCH  30  31
ATOM     31  N   UNL     1      27.750   2.824  54.098  0.00  0.00    +0.000 N 
ATOM     32  H   UNL     1      28.678   2.402  54.063  0.00  0.00    +0.000 HD
ATOM     33  H   UNL     1      27.456   2.921  55.071  0.00  0.00    +0.000 HD
ATOM     34  H   UNL     1      27.779   3.745  53.659  0.00  0.00    +0.000 HD
ENDBRANCH  30  31
ENDBRANCH  29  30
ENDBRANCH  28  29
ENDBRANCH  21  28
ENDBRANCH   2  19
TORSDOF 6
ENDMDL
MODEL 8
REMARK VINA RESULT:    -8.271      2.976      5.204
REMARK INTER + INTRA:         -11.954
REMARK INTER:                 -11.171
REMARK INTRA:                  -0.783
REMARK UNBOUND:                -1.024
REMARK  Name = 
REMARK  7 active torsions:
REMARK  status: ('A' for Active; 'I' for Inactive)
REMARK    1  A    between atoms: C_1  and  N_2
REMARK    2  A    between atoms: C_4  and  C_5
REMARK    3  A    between atoms: C_6  and  C_7
REMARK    4  A    between atoms: N_9  and  C_10
REMARK    5  A    between atoms: C_10  and  C_11
REMARK    6  A    between atoms: C_11  and  C_12
REMARK    7  A    between atoms: C_12  and  N_13
REMARK                            x       y       z     vdW  Elec       q    Type
REMARK                         _______ _______ _______ _____ _____    ______ ____
ROOT
ATOM      1  C   UNL     1      21.705   0.091  53.521  0.00  0.00    +0.000 C 
ATOM      2  C   UNL     1      20.475   0.067  52.991  0.00  0.00    +0.000 C 
ATOM      3  C   UNL     1      19.729  -1.032  53.635  0.00  0.00    +0.000 C 
ATOM      4  O   UNL     1      18.576  -1.353  53.428  0.00  0.00    +0.000 OA
ATOM      5  N   UNL     1      20.575  -1.627  54.506  0.00  0.00    +0.000 N 
ATOM      6  C   UNL     1      21.791  -1.040  54.472  0.00  0.00    +0.000 C 
ATOM      7  O   UNL     1      22.771  -1.397  55.099  0.00  0.00    +0.000 OA
ATOM      8  H   UNL     1      20.336  -2.386  55.086  0.00  0.00    +0.000 HD
ENDROOT
BRANCH   1  12
ATOM      9  C   UNL     1      24.107   4.305  52.694  0.00  0.00    +0.000 C 
ATOM     10  N   UNL     1      23.838   2.889  52.845  0.00  0.00    +0.000 N 
ATOM     11  C   UNL     1      22.622   2.356  53.169  0.00  0.00    +0.000 A 
ATOM     12  C   UNL     1      22.768   0.984  53.249  0.00  0.00    +0.000 A 
ATOM     13  C   UNL     1      24.129   0.678  52.948  0.00  0.00    +0.000 A 
ATOM     14  C   UNL     1      24.877  -0.516  52.862  0.00  0.00    +0.000 A 
ATOM     15  C   UNL     1      26.233  -0.461  52.518  0.00  0.00    +0.000 A 
ATOM     16  C   UNL     1      26.851   0.757  52.258  0.00  0.00    +0.000 A 
ATOM     17  C   UNL     1      26.136   1.956  52.339  0.00  0.00    +0.000 A 
ATOM     18  C   UNL     1      24.775   1.893  52.687  0.00  0.00    +0.000 A 
ENDBRANCH   1  12
BRANCH   2  19
ATOM     19  C   UNL     1      19.934   0.911  51.990  0.00  0.00    +0.000 A 
ATOM     20  C   UNL     1      18.778   1.638  52.146  0.00  0.00    +0.000 A 
ATOM     21  N   UNL     1      18.533   2.301  50.968  0.00  0.00    +0.000 N 
ATOM     22  C   UNL     1      19.502   1.975  50.036  0.00  0.00    +0.000 A 
ATOM     23  C   UNL     1      19.656   2.342  48.690  0.00  0.00    +0.000 A 
ATOM     24  C   UNL     1      20.848   1.996  48.045  0.00  0.00    +0.000 A 
ATOM     25  C   UNL     1      21.822   1.242  48.691  0.00  0.00    +0.000 A 
ATOM     26  C   UNL     1      21.611   0.781  49.993  0.00  0.00    +0.000 A 
ATOM     27  C   UNL     1      20.443   1.166  50.687  0.00  0.00    +0.000 A 
BRANCH  21  28
ATOM     28  C   UNL     1      17.513   3.328  50.818  0.00  0.00    +0.000 C 
BRANCH  28  29
ATOM     29  C   UNL     1      16.321   3.206  51.768  0.00  0.00    +0.000 C 
BRANCH  29  30
ATOM     30  C   UNL     1      15.850   4.509  52.415  0.00  0.00    +0.000 C 
BRANCH  30  31
ATOM     31  N   UNL     1      15.245   4.305  53.727  0.00  0.00    +0.000 N 
ATOM     32  H   UNL     1      14.292   4.668  53.723  0.00  0.00    +0.000 HD
ATOM     33  H   UNL     1      15.793   4.795  54.434  0.00  0.00    +0.000 HD
ATOM     34  H   UNL     1      15.228   3.307  53.942  0.00  0.00    +0.000 HD
ENDBRANCH  30  31
ENDBRANCH  29  30
ENDBRANCH  28  29
ENDBRANCH  21  28
ENDBRANCH   2  19
TORSDOF 6
ENDMDL
MODEL 9
REMARK VINA RESULT:    -8.261      2.232      5.192
REMARK INTER + INTRA:         -11.942
REMARK INTER:                 -10.994
REMARK INTRA:                  -0.948
REMARK UNBOUND:                -1.024
REMARK  Name = 
REMARK  7 active torsions:
REMARK  status: ('A' for Active; 'I' for Inactive)
REMARK    1  A    between atoms: C_1  and  N_2
REMARK    2  A    between atoms: C_4  and  C_5
REMARK    3  A    between atoms: C_6  and  C_7
REMARK    4  A    between atoms: N_9  and  C_10
REMARK    5  A    between atoms: C_10  and  C_11
REMARK    6  A    between atoms: C_11  and  C_12
REMARK    7  A    between atoms: C_12  and  N_13
REMARK                            x       y       z     vdW  Elec       q    Type
REMARK                         _______ _______ _______ _____ _____    ______ ____
ROOT
ATOM      1  C   UNL     1      24.567   2.166  52.470  0.00  0.00    +0.000 C 
ATOM      2  C   UNL     1      23.691   1.157  52.378  0.00  0.00    +0.000 C 
ATOM      3  C   UNL     1      24.148   0.082  53.280  0.00  0.00    +0.000 C 
ATOM      4  O   UNL     1      23.603  -0.986  53.481  0.00  0.00    +0.000 OA
ATOM      5  N   UNL     1      25.300   0.504  53.847  0.00  0.00    +0.000 N 
ATOM      6  C   UNL     1      25.642   1.728  53.387  0.00  0.00    +0.000 C 
ATOM      7  O   UNL     1      26.658   2.335  53.670  0.00  0.00    +0.000 OA
ATOM      8  H   UNL     1      25.819  -0.011  54.507  0.00  0.00    +0.000 HD
ENDROOT
BRANCH   1  12
ATOM      9  C   UNL     1      23.094   6.693  51.222  0.00  0.00    +0.000 C 
ATOM     10  N   UNL     1      23.847   5.454  51.242  0.00  0.00    +0.000 N 
ATOM     11  C   UNL     1      23.598   4.404  52.080  0.00  0.00    +0.000 A 
ATOM     12  C   UNL     1      24.538   3.423  51.822  0.00  0.00    +0.000 A 
ATOM     13  C   UNL     1      25.381   3.902  50.775  0.00  0.00    +0.000 A 
ATOM     14  C   UNL     1      26.492   3.373  50.081  0.00  0.00    +0.000 A 
ATOM     15  C   UNL     1      27.096   4.123  49.065  0.00  0.00    +0.000 A 
ATOM     16  C   UNL     1      26.612   5.383  48.729  0.00  0.00    +0.000 A 
ATOM     17  C   UNL     1      25.516   5.933  49.401  0.00  0.00    +0.000 A 
ATOM     18  C   UNL     1      24.916   5.175  50.422  0.00  0.00    +0.000 A 
ENDBRANCH   1  12
BRANCH   2  19
ATOM     19  C   UNL     1      22.526   1.076  51.575  0.00  0.00    +0.000 A 
ATOM     20  C   UNL     1      22.473   1.479  50.263  0.00  0.00    +0.000 A 
ATOM     21  N   UNL     1      21.186   1.299  49.816  0.00  0.00    +0.000 N 
ATOM     22  C   UNL     1      20.396   0.819  50.846  0.00  0.00    +0.000 A 
ATOM     23  C   UNL     1      19.023   0.535  50.906  0.00  0.00    +0.000 A 
ATOM     24  C   UNL     1      18.535  -0.117  52.044  0.00  0.00    +0.000 A 
ATOM     25  C   UNL     1      19.367  -0.404  53.120  0.00  0.00    +0.000 A 
ATOM     26  C   UNL     1      20.708  -0.014  53.101  0.00  0.00    +0.000 A 
ATOM     27  C   UNL     1      21.240   0.591  51.941  0.00  0.00    +0.000 A 
BRANCH  21  28
ATOM     28  C   UNL     1      20.792   1.420  48.421  0.00  0.00    +0.000 C 
BRANCH  28  29
ATOM     29  C   UNL     1      20.715   2.851  47.888  0.00  0.00    +0.000 C 
BRANCH  29  30
ATOM     30  C   UNL     1      21.914   3.321  47.065  0.00  0.00    +0.000 C 
BRANCH  30  31
ATOM     31  N   UNL     1      22.675   4.379  47.723  0.00  0.00    +0.000 N 
ATOM     32  H   UNL     1      22.429   4.410  48.713  0.00  0.00    +0.000 HD
ATOM     33  H   UNL     1      22.454   5.276  47.290  0.00  0.00    +0.000 HD
ATOM     34  H   UNL     1      23.673   4.191  47.626  0.00  0.00    +0.000 HD
ENDBRANCH  30  31
ENDBRANCH  29  30
ENDBRANCH  28  29
ENDBRANCH  21  28
ENDBRANCH   2  19
TORSDOF 6
ENDMDL
