MODEL 1
REMARK VINA RESULT:    -7.710      0.000      0.000
REMARK INTER + INTRA:          -9.708
REMARK INTER:                  -9.062
REMARK INTRA:                  -0.646
REMARK UNBOUND:                -0.646
REMARK  Name = 
REMARK  6 active torsions:
REMARK  status: ('A' for Active; 'I' for Inactive)
REMARK    1  A    between atoms: C_1  and  C_2
REMARK    2  A    between atoms: N_9  and  S_10
REMARK    3  A    between atoms: S_10  and  C_13
REMARK    4  A    between atoms: C_18  and  N_19
REMARK    5  A    between atoms: N_19  and  C_20
REMARK    6  A    between atoms: N_19  and  C_21
REMARK                            x       y       z     vdW  Elec       q    Type
REMARK                         _______ _______ _______ _____ _____    ______ ____
ROOT
ATOM      1  S   UNL     1      22.843   1.459  52.687  0.00  0.00    +0.000 S 
ATOM      2  O   UNL     1      21.560   1.140  53.287  0.00  0.00    +0.000 OA
ATOM      3  O   UNL     1      23.736   2.412  53.312  0.00  0.00    +0.000 OA
ENDROOT
BRANCH   1  12
ATOM      4  C   UNL     1      24.536  -0.989  55.335  0.00  0.00    +0.000 C 
ATOM      5  C   UNL     1      25.428  -0.296  54.354  0.00  0.00    +0.000 A 
ATOM      6  N   UNL     1      26.713  -0.062  54.760  0.00  0.00    +0.000 NA
ATOM      7  C   UNL     1      27.553   0.446  53.829  0.00  0.00    +0.000 A 
ATOM      8 BR   UNL     1      29.300   0.948  54.354  0.00  0.00    +0.000 Br
ATOM      9  C   UNL     1      27.150   0.649  52.523  0.00  0.00    +0.000 A 
ATOM     10  N   UNL     1      25.888   0.396  52.099  0.00  0.00    +0.000 NA
ATOM     11  C   UNL     1      25.025  -0.009  53.047  0.00  0.00    +0.000 A 
ATOM     12  N   UNL     1      23.690  -0.015  52.574  0.00  0.00    +0.000 N 
ATOM     13  H   UNL     1      23.275  -0.826  52.201  0.00  0.00    +0.000 HD
ENDBRANCH   1  12
BRANCH   1  14
ATOM     14  C   UNL     1      22.499   2.013  51.039  0.00  0.00    +0.000 A 
ATOM     15  C   UNL     1      21.863   1.172  50.121  0.00  0.00    +0.000 A 
ATOM     16  C   UNL     1      21.946   1.508  48.764  0.00  0.00    +0.000 A 
ATOM     17  C   UNL     1      22.835   2.514  48.359  0.00  0.00    +0.000 A 
ATOM     18  C   UNL     1      23.489   3.322  49.310  0.00  0.00    +0.000 A 
ATOM     19  C   UNL     1      24.202   4.483  48.993  0.00  0.00    +0.000 A 
ATOM     20  C   UNL     1      23.441   5.618  49.163  0.00  0.00    +0.000 A 
ATOM     21  C   UNL     1      22.600   5.630  50.285  0.00  0.00    +0.000 A 
ATOM     22  C   UNL     1      22.516   4.480  51.094  0.00  0.00    +0.000 A 
ATOM     23  C   UNL     1      22.977   3.244  50.584  0.00  0.00    +0.000 A 
BRANCH  19  24
ATOM     24  N   UNL     1      25.600   4.577  49.125  0.00  0.00    +0.000 N 
ATOM     25  C   UNL     1      26.403   3.443  49.589  0.00  0.00    +0.000 C 
ATOM     26  C   UNL     1      26.292   5.862  49.111  0.00  0.00    +0.000 C 
ENDBRANCH  19  24
ENDBRANCH   1  14
TORSDOF 3
ENDMDL
MODEL 2
REMARK VINA RESULT:    -7.438      3.811      5.891
REMARK INTER + INTRA:          -9.388
REMARK INTER:                  -8.757
REMARK INTRA:                  -0.631
REMARK UNBOUND:                -0.646
REMARK  Name = 
REMARK  6 active torsions:
REMARK  status: ('A' for Active; 'I' for Inactive)
REMARK    1  A    between atoms: C_1  and  C_2
REMARK    2  A    between atoms: N_9  and  S_10
REMARK    3  A    between atoms: S_10  and  C_13
REMARK    4  A    between atoms: C_18  and  N_19
REMARK    5  A    between atoms: N_19  and  C_20
REMARK    6  A    between atoms: N_19  and  C_21
REMARK                            x       y       z     vdW  Elec       q    Type
REMARK                         _______ _______ _______ _____ _____    ______ ____
ROOT
ATOM      1  S   UNL     1      22.029   2.287  50.308  0.00  0.00    +0.000 S 
ATOM      2  O   UNL     1      22.016   0.842  50.168  0.00  0.00    +0.000 OA
ATOM      3  O   UNL     1      21.457   3.136  49.284  0.00  0.00    +0.000 OA
ENDROOT
BRANCH   1  12
ATOM      4  C   UNL     1      21.600   0.387  53.783  0.00  0.00    +0.000 C 
ATOM      5  C   UNL     1      20.382   0.576  52.934  0.00  0.00    +0.000 A 
ATOM      6  N   UNL     1      19.394  -0.360  53.072  0.00  0.00    +0.000 NA
ATOM      7  C   UNL     1      18.243  -0.119  52.403  0.00  0.00    +0.000 A 
ATOM      8 BR   UNL     1      16.890  -1.442  52.410  0.00  0.00    +0.000 Br
ATOM      9  C   UNL     1      18.054   1.044  51.681  0.00  0.00    +0.000 A 
ATOM     10  N   UNL     1      19.013   1.993  51.558  0.00  0.00    +0.000 NA
ATOM     11  C   UNL     1      20.194   1.707  52.135  0.00  0.00    +0.000 A 
ATOM     12  N   UNL     1      21.200   2.629  51.757  0.00  0.00    +0.000 N 
ATOM     13  H   UNL     1      21.409   3.422  52.301  0.00  0.00    +0.000 HD
ENDBRANCH   1  12
BRANCH   1  14
ATOM     14  C   UNL     1      23.725   2.751  50.534  0.00  0.00    +0.000 A 
ATOM     15  C   UNL     1      24.431   3.395  49.513  0.00  0.00    +0.000 A 
ATOM     16  C   UNL     1      25.829   3.405  49.595  0.00  0.00    +0.000 A 
ATOM     17  C   UNL     1      26.467   2.591  50.543  0.00  0.00    +0.000 A 
ATOM     18  C   UNL     1      25.724   1.927  51.538  0.00  0.00    +0.000 A 
ATOM     19  C   UNL     1      26.292   1.291  52.646  0.00  0.00    +0.000 A 
ATOM     20  C   UNL     1      26.284   2.097  53.763  0.00  0.00    +0.000 A 
ATOM     21  C   UNL     1      25.131   2.873  53.950  0.00  0.00    +0.000 A 
ATOM     22  C   UNL     1      24.122   2.854  52.967  0.00  0.00    +0.000 A 
ATOM     23  C   UNL     1      24.426   2.361  51.677  0.00  0.00    +0.000 A 
BRANCH  19  24
ATOM     24  N   UNL     1      26.271  -0.106  52.817  0.00  0.00    +0.000 N 
ATOM     25  C   UNL     1      25.089  -0.795  53.341  0.00  0.00    +0.000 C 
ATOM     26  C   UNL     1      27.490  -0.907  52.782  0.00  0.00    +0.000 C 
ENDBRANCH  19  24
ENDBRANCH   1  14
TORSDOF 3
ENDMDL
MODEL 3
REMARK VINA RESULT:    -7.429      1.447      2.164
REMARK INTER + INTRA:          -9.378
REMARK INTER:                  -8.500
REMARK INTRA:                  -0.878
REMARK UNBOUND:                -0.646
REMARK  Name = 
REMARK  6 active torsions:
REMARK  status: ('A' for Active; 'I' for Inactive)
REMARK    1  A    between atoms: C_1  and  C_2
REMARK    2  A    between atoms: N_9  and  S_10
REMARK    3  A    between atoms: S_10  and  C_13
REMARK    4  A    between atoms: C_18  and  N_19
REMARK    5  A    between atoms: N_19  and  C_20
REMARK    6  A    between atoms: N_19  and  C_21
REMARK                            x       y       z     vdW  Elec       q    Type
REMARK                         _______ _______ _______ _____ _____    ______ ____
ROOT
ATOM      1  S   UNL     1      23.323   1.020  52.837  0.00  0.00    +0.000 S 
ATOM      2  O   UNL     1      24.004  -0.180  52.385  0.00  0.00    +0.000 OA
ATOM      3  O   UNL     1      22.292   0.949  53.851  0.00  0.00    +0.000 OA
ENDROOT
BRANCH   1  12
ATOM      4  C   UNL     1      26.677   2.543  51.319  0.00  0.00    +0.000 C 
ATOM      5  C   UNL     1      26.799   1.588  52.465  0.00  0.00    +0.000 A 
ATOM      6  N   UNL     1      27.957   0.864  52.533  0.00  0.00    +0.000 NA
ATOM      7  C   UNL     1      28.122   0.098  53.636  0.00  0.00    +0.000 A 
ATOM      8 BR   UNL     1      29.618  -1.056  53.730  0.00  0.00    +0.000 Br
ATOM      9  C   UNL     1      27.202   0.106  54.668  0.00  0.00    +0.000 A 
ATOM     10  N   UNL     1      26.064   0.839  54.627  0.00  0.00    +0.000 NA
ATOM     11  C   UNL     1      25.848   1.518  53.487  0.00  0.00    +0.000 A 
ATOM     12  N   UNL     1      24.538   2.054  53.435  0.00  0.00    +0.000 N 
ATOM     13  H   UNL     1      24.340   2.973  53.727  0.00  0.00    +0.000 HD
ENDBRANCH   1  12
BRANCH   1  14
ATOM     14  C   UNL     1      22.633   1.776  51.391  0.00  0.00    +0.000 A 
ATOM     15  C   UNL     1      22.148   0.994  50.338  0.00  0.00    +0.000 A 
ATOM     16  C   UNL     1      21.962   1.616  49.097  0.00  0.00    +0.000 A 
ATOM     17  C   UNL     1      22.474   2.905  48.891  0.00  0.00    +0.000 A 
ATOM     18  C   UNL     1      22.990   3.655  49.967  0.00  0.00    +0.000 A 
ATOM     19  C   UNL     1      23.303   5.016  49.893  0.00  0.00    +0.000 A 
ATOM     20  C   UNL     1      22.282   5.807  50.371  0.00  0.00    +0.000 A 
ATOM     21  C   UNL     1      21.620   5.329  51.511  0.00  0.00    +0.000 A 
ATOM     22  C   UNL     1      21.964   4.065  52.028  0.00  0.00    +0.000 A 
ATOM     23  C   UNL     1      22.685   3.161  51.214  0.00  0.00    +0.000 A 
BRANCH  19  24
ATOM     24  N   UNL     1      24.624   5.497  49.961  0.00  0.00    +0.000 N 
ATOM     25  C   UNL     1      24.957   6.720  50.695  0.00  0.00    +0.000 C 
ATOM     26  C   UNL     1      25.672   5.003  49.073  0.00  0.00    +0.000 C 
ENDBRANCH  19  24
ENDBRANCH   1  14
TORSDOF 3
ENDMDL
MODEL 4
REMARK VINA RESULT:    -7.426      1.539      1.936
REMARK INTER + INTRA:          -9.375
REMARK INTER:                  -8.996
REMARK INTRA:                  -0.379
REMARK UNBOUND:                -0.646
REMARK  Name = 
REMARK  6 active torsions:
REMARK  status: ('A' for Active; 'I' for Inactive)
REMARK    1  A    between atoms: C_1  and  C_2
REMARK    2  A    between atoms: N_9  and  S_10
REMARK    3  A    between atoms: S_10  and  C_13
REMARK    4  A    between atoms: C_18  and  N_19
REMARK    5  A    between atoms: N_19  and  C_20
REMARK    6  A    between atoms: N_19  and  C_21
REMARK                            x       y       z     vdW  Elec       q    Type
REMARK                         _______ _______ _______ _____ _____    ______ ____
ROOT
ATOM      1  S   UNL     1      23.091   3.062  52.031  0.00  0.00    +0.000 S 
ATOM      2  O   UNL     1      21.750   2.759  52.498  0.00  0.00    +0.000 OA
ATOM      3  O   UNL     1      24.078   3.629  52.926  0.00  0.00    +0.000 OA
ENDROOT
BRANCH   1  12
ATOM      4  C   UNL     1      23.548  -0.579  53.581  0.00  0.00    +0.000 C 
ATOM      5  C   UNL     1      24.782   0.197  53.244  0.00  0.00    +0.000 A 
ATOM      6  N   UNL     1      25.898  -0.084  53.983  0.00  0.00    +0.000 NA
ATOM      7  C   UNL     1      27.043   0.522  53.595  0.00  0.00    +0.000 A 
ATOM      8 BR   UNL     1      28.592   0.314  54.661  0.00  0.00    +0.000 Br
ATOM      9  C   UNL     1      27.093   1.324  52.470  0.00  0.00    +0.000 A 
ATOM     10  N   UNL     1      26.003   1.589  51.712  0.00  0.00    +0.000 NA
ATOM     11  C   UNL     1      24.844   1.073  52.157  0.00  0.00    +0.000 A 
ATOM     12  N   UNL     1      23.731   1.593  51.451  0.00  0.00    +0.000 N 
ATOM     13  H   UNL     1      23.349   1.132  50.670  0.00  0.00    +0.000 HD
ENDBRANCH   1  12
BRANCH   1  14
ATOM     14  C   UNL     1      22.901   4.152  50.647  0.00  0.00    +0.000 A 
ATOM     15  C   UNL     1      21.869   3.962  49.723  0.00  0.00    +0.000 A 
ATOM     16  C   UNL     1      21.980   4.601  48.482  0.00  0.00    +0.000 A 
ATOM     17  C   UNL     1      23.195   5.202  48.125  0.00  0.00    +0.000 A 
ATOM     18  C   UNL     1      24.231   5.347  49.069  0.00  0.00    +0.000 A 
ATOM     19  C   UNL     1      25.372   6.130  48.865  0.00  0.00    +0.000 A 
ATOM     20  C   UNL     1      25.245   7.382  49.427  0.00  0.00    +0.000 A 
ATOM     21  C   UNL     1      24.608   7.431  50.676  0.00  0.00    +0.000 A 
ATOM     22  C   UNL     1      24.070   6.249  51.221  0.00  0.00    +0.000 A 
ATOM     23  C   UNL     1      23.855   5.136  50.375  0.00  0.00    +0.000 A 
BRANCH  19  24
ATOM     24  N   UNL     1      26.658   5.578  48.720  0.00  0.00    +0.000 N 
ATOM     25  C   UNL     1      26.966   4.222  49.182  0.00  0.00    +0.000 C 
ATOM     26  C   UNL     1      27.819   6.401  48.397  0.00  0.00    +0.000 C 
ENDBRANCH  19  24
ENDBRANCH   1  14
TORSDOF 3
ENDMDL
MODEL 5
REMARK VINA RESULT:    -7.358      2.731      6.303
REMARK INTER + INTRA:          -9.294
REMARK INTER:                  -8.617
REMARK INTRA:                  -0.677
REMARK UNBOUND:                -0.646
REMARK  Name = 
REMARK  6 active torsions:
REMARK  status: ('A' for Active; 'I' for Inactive)
REMARK    1  A    between atoms: C_1  and  C_2
REMARK    2  A    between atoms: N_9  and  S_10
REMARK    3  A    between atoms: S_10  and  C_13
REMARK    4  A    between atoms: C_18  and  N_19
REMARK    5  A    between atoms: N_19  and  C_20
REMARK    6  A    between atoms: N_19  and  C_21
REMARK                            x       y       z     vdW  Elec       q    Type
REMARK                         _______ _______ _______ _____ _____    ______ ____
ROOT
ATOM      1  S   UNL     1      23.163   3.463  52.185  0.00  0.00    +0.000 S 
ATOM      2  O   UNL     1      24.423   3.879  52.776  0.00  0.00    +0.000 OA
ATOM      3  O   UNL     1      21.903   3.933  52.721  0.00  0.00    +0.000 OA
ENDROOT
BRANCH   1  12
ATOM      4  C   UNL     1      26.073   3.789  49.484  0.00  0.00    +0.000 C 
ATOM      5  C   UNL     1      25.388   5.043  49.929  0.00  0.00    +0.000 A 
ATOM      6  N   UNL     1      26.127   6.193  49.872  0.00  0.00    +0.000 NA
ATOM      7  C   UNL     1      25.470   7.342  50.149  0.00  0.00    +0.000 A 
ATOM      8 BR   UNL     1      26.455   8.954  50.251  0.00  0.00    +0.000 Br
ATOM      9  C   UNL     1      24.112   7.357  50.405  0.00  0.00    +0.000 A 
ATOM     10  N   UNL     1      23.361   6.230  50.438  0.00  0.00    +0.000 NA
ATOM     11  C   UNL     1      24.032   5.077  50.267  0.00  0.00    +0.000 A 
ATOM     12  N   UNL     1      23.224   3.951  50.554  0.00  0.00    +0.000 N 
ATOM     13  H   UNL     1      22.725   3.476  49.851  0.00  0.00    +0.000 HD
ENDBRANCH   1  12
BRANCH   1  14
ATOM     14  C   UNL     1      23.158   1.691  52.220  0.00  0.00    +0.000 A 
ATOM     15  C   UNL     1      21.967   0.977  52.058  0.00  0.00    +0.000 A 
ATOM     16  C   UNL     1      21.954  -0.366  52.454  0.00  0.00    +0.000 A 
ATOM     17  C   UNL     1      23.029  -0.873  53.197  0.00  0.00    +0.000 A 
ATOM     18  C   UNL     1      24.204  -0.115  53.373  0.00  0.00    +0.000 A 
ATOM     19  C   UNL     1      25.396  -0.627  53.896  0.00  0.00    +0.000 A 
ATOM     20  C   UNL     1      26.277  -0.994  52.903  0.00  0.00    +0.000 A 
ATOM     21  C   UNL     1      26.341  -0.140  51.793  0.00  0.00    +0.000 A 
ATOM     22  C   UNL     1      25.460   0.957  51.718  0.00  0.00    +0.000 A 
ATOM     23  C   UNL     1      24.315   0.979  52.546  0.00  0.00    +0.000 A 
BRANCH  19  24
ATOM     24  N   UNL     1      25.906  -0.239  55.149  0.00  0.00    +0.000 N 
ATOM     25  C   UNL     1      27.223   0.389  55.278  0.00  0.00    +0.000 C 
ATOM     26  C   UNL     1      25.317  -0.706  56.400  0.00  0.00    +0.000 C 
ENDBRANCH  19  24
ENDBRANCH   1  14
TORSDOF 3
ENDMDL
MODEL 6
REMARK VINA RESULT:    -7.209      3.312      4.964
REMARK INTER + INTRA:          -9.119
REMARK INTER:                  -8.682
REMARK INTRA:                  -0.438
REMARK UNBOUND:                -0.646
REMARK  Name = 
REMARK  6 active torsions:
REMARK  status: ('A' for Active; 'I' for Inactive)
REMARK    1  A    between atoms: C_1  and  C_2
REMARK    2  A    between atoms: N_9  and  S_10
REMARK    3  A    between atoms: S_10  and  C_13
REMARK    4  A    between atoms: C_18  and  N_19
REMARK    5  A    between atoms: N_19  and  C_20
REMARK    6  A    between atoms: N_19  and  C_21
REMARK                            x       y       z     vdW  Elec       q    Type
REMARK                         _______ _______ _______ _____ _____    ______ ____
ROOT
ATOM      1  S   UNL     1      23.436   4.688  50.940  0.00  0.00    +0.000 S 
ATOM      2  O   UNL     1      22.703   5.941  50.914  0.00  0.00    +0.000 OA
ATOM      3  O   UNL     1      23.986   4.177  52.179  0.00  0.00    +0.000 OA
ENDROOT
BRANCH   1  12
ATOM      4  C   UNL     1      19.761   3.510  51.931  0.00  0.00    +0.000 C 
ATOM      5  C   UNL     1      20.882   2.536  52.117  0.00  0.00    +0.000 A 
ATOM      6  N   UNL     1      20.718   1.600  53.102  0.00  0.00    +0.000 NA
ATOM      7  C   UNL     1      21.669   0.643  53.183  0.00  0.00    +0.000 A 
ATOM      8 BR   UNL     1      21.602  -0.589  54.618  0.00  0.00    +0.000 Br
ATOM      9  C   UNL     1      22.709   0.574  52.275  0.00  0.00    +0.000 A 
ATOM     10  N   UNL     1      22.869   1.476  51.278  0.00  0.00    +0.000 NA
ATOM     11  C   UNL     1      21.984   2.489  51.259  0.00  0.00    +0.000 A 
ATOM     12  N   UNL     1      22.365   3.503  50.347  0.00  0.00    +0.000 N 
ATOM     13  H   UNL     1      22.030   3.522  49.422  0.00  0.00    +0.000 HD
ENDBRANCH   1  12
BRANCH   1  14
ATOM     14  C   UNL     1      24.756   4.858  49.771  0.00  0.00    +0.000 A 
ATOM     15  C   UNL     1      25.770   3.899  49.694  0.00  0.00    +0.000 A 
ATOM     16  C   UNL     1      26.954   4.255  49.036  0.00  0.00    +0.000 A 
ATOM     17  C   UNL     1      27.172   5.597  48.691  0.00  0.00    +0.000 A 
ATOM     18  C   UNL     1      26.140   6.548  48.814  0.00  0.00    +0.000 A 
ATOM     19  C   UNL     1      26.199   7.840  48.283  0.00  0.00    +0.000 A 
ATOM     20  C   UNL     1      25.569   7.925  47.061  0.00  0.00    +0.000 A 
ATOM     21  C   UNL     1      24.375   7.200  46.936  0.00  0.00    +0.000 A 
ATOM     22  C   UNL     1      23.953   6.379  48.000  0.00  0.00    +0.000 A 
ATOM     23  C   UNL     1      24.885   6.017  49.001  0.00  0.00    +0.000 A 
BRANCH  19  24
ATOM     24  N   UNL     1      26.275   8.992  49.089  0.00  0.00    +0.000 N 
ATOM     25  C   UNL     1      25.699  10.267  48.659  0.00  0.00    +0.000 C 
ATOM     26  C   UNL     1      27.178   9.074  50.233  0.00  0.00    +0.000 C 
ENDBRANCH  19  24
ENDBRANCH   1  14
TORSDOF 3
ENDMDL
MODEL 7
REMARK VINA RESULT:    -7.116      4.449      6.402
REMARK INTER + INTRA:          -9.010
REMARK INTER:                  -8.306
REMARK INTRA:                  -0.704
REMARK UNBOUND:                -0.646
REMARK  Name = 
REMARK  6 active torsions:
REMARK  status: ('A' for Active; 'I' for Inactive)
REMARK    1  A    between atoms: C_1  and  C_2
REMARK    2  A    between atoms: N_9  and  S_10
REMARK    3  A    between atoms: S_10  and  C_13
REMARK    4  A    between atoms: C_18  and  N_19
REMARK    5  A    between atoms: N_19  and  C_20
REMARK    6  A    between atoms: N_19  and  C_21
REMARK                            x       y       z     vdW  Elec       q    Type
REMARK                         _______ _______ _______ _____ _____    ______ ____
ROOT
ATOM      1  S   UNL     1      20.835   0.637  53.192  0.00  0.00    +0.000 S 
ATOM      2  O   UNL     1      20.161   1.922  53.160  0.00  0.00    +0.000 OA
ATOM      3  O   UNL     1      20.891  -0.141  54.412  0.00  0.00    +0.000 OA
ENDROOT
BRANCH   1  12
ATOM      4  C   UNL     1      18.645   1.404  49.954  0.00  0.00    +0.000 C 
ATOM      5  C   UNL     1      17.979   0.708  51.099  0.00  0.00    +0.000 A 
ATOM      6  N   UNL     1      16.632   0.902  51.230  0.00  0.00    +0.000 NA
ATOM      7  C   UNL     1      16.010   0.173  52.184  0.00  0.00    +0.000 A 
ATOM      8 BR   UNL     1      14.181   0.502  52.537  0.00  0.00    +0.000 Br
ATOM      9  C   UNL     1      16.689  -0.769  52.934  0.00  0.00    +0.000 A 
ATOM     10  N   UNL     1      18.018  -0.993  52.797  0.00  0.00    +0.000 NA
ATOM     11  C   UNL     1      18.657  -0.195  51.924  0.00  0.00    +0.000 A 
ATOM     12  N   UNL     1      20.064  -0.330  52.021  0.00  0.00    +0.000 N 
ATOM     13  H   UNL     1      20.567  -0.948  51.443  0.00  0.00    +0.000 HD
ENDBRANCH   1  12
BRANCH   1  14
ATOM     14  C   UNL     1      22.494   0.931  52.642  0.00  0.00    +0.000 A 
ATOM     15  C   UNL     1      23.577   0.309  53.273  0.00  0.00    +0.000 A 
ATOM     16  C   UNL     1      24.852   0.845  53.054  0.00  0.00    +0.000 A 
ATOM     17  C   UNL     1      24.975   2.090  52.421  0.00  0.00    +0.000 A 
ATOM     18  C   UNL     1      23.858   2.708  51.825  0.00  0.00    +0.000 A 
ATOM     19  C   UNL     1      23.936   3.823  50.984  0.00  0.00    +0.000 A 
ATOM     20  C   UNL     1      23.927   3.466  49.654  0.00  0.00    +0.000 A 
ATOM     21  C   UNL     1      23.061   2.419  49.306  0.00  0.00    +0.000 A 
ATOM     22  C   UNL     1      22.345   1.753  50.320  0.00  0.00    +0.000 A 
ATOM     23  C   UNL     1      22.764   1.891  51.663  0.00  0.00    +0.000 A 
BRANCH  19  24
ATOM     24  N   UNL     1      23.443   5.089  51.351  0.00  0.00    +0.000 N 
ATOM     25  C   UNL     1      22.042   5.285  51.730  0.00  0.00    +0.000 C 
ATOM     26  C   UNL     1      24.190   6.315  51.086  0.00  0.00    +0.000 C 
ENDBRANCH  19  24
ENDBRANCH   1  14
TORSDOF 3
ENDMDL
MODEL 8
REMARK VINA RESULT:    -7.089      2.217      3.369
REMARK INTER + INTRA:          -8.978
REMARK INTER:                  -8.100
REMARK INTRA:                  -0.877
REMARK UNBOUND:                -0.646
REMARK  Name = 
REMARK  6 active torsions:
REMARK  status: ('A' for Active; 'I' for Inactive)
REMARK    1  A    between atoms: C_1  and  C_2
REMARK    2  A    between atoms: N_9  and  S_10
REMARK    3  A    between atoms: S_10  and  C_13
REMARK    4  A    between atoms: C_18  and  N_19
REMARK    5  A    between atoms: N_19  and  C_20
REMARK    6  A    between atoms: N_19  and  C_21
REMARK                            x       y       z     vdW  Elec       q    Type
REMARK                         _______ _______ _______ _____ _____    ______ ____
ROOT
ATOM      1  S   UNL     1      22.711   3.568  51.154  0.00  0.00    +0.000 S 
ATOM      2  O   UNL     1      22.838   2.222  50.624  0.00  0.00    +0.000 OA
ATOM      3  O   UNL     1      21.626   3.912  52.049  0.00  0.00    +0.000 OA
ENDROOT
BRANCH   1  12
ATOM      4  C   UNL     1      26.574   3.253  50.233  0.00  0.00    +0.000 C 
ATOM      5  C   UNL     1      26.039   2.369  51.315  0.00  0.00    +0.000 A 
ATOM      6  N   UNL     1      26.678   1.173  51.495  0.00  0.00    +0.000 NA
ATOM      7  C   UNL     1      26.279   0.433  52.554  0.00  0.00    +0.000 A 
ATOM      8 BR   UNL     1      26.998  -1.302  52.778  0.00  0.00    +0.000 Br
ATOM      9  C   UNL     1      25.328   0.896  53.444  0.00  0.00    +0.000 A 
ATOM     10  N   UNL     1      24.706   2.090  53.295  0.00  0.00    +0.000 NA
ATOM     11  C   UNL     1      25.026   2.779  52.186  0.00  0.00    +0.000 A 
ATOM     12  N   UNL     1      24.163   3.885  51.987  0.00  0.00    +0.000 N 
ATOM     13  H   UNL     1      24.389   4.786  52.312  0.00  0.00    +0.000 HD
ENDBRANCH   1  12
BRANCH   1  14
ATOM     14  C   UNL     1      22.644   4.651  49.753  0.00  0.00    +0.000 A 
ATOM     15  C   UNL     1      22.111   4.214  48.537  0.00  0.00    +0.000 A 
ATOM     16  C   UNL     1      22.412   4.958  47.389  0.00  0.00    +0.000 A 
ATOM     17  C   UNL     1      23.399   5.951  47.454  0.00  0.00    +0.000 A 
ATOM     18  C   UNL     1      23.944   6.345  48.692  0.00  0.00    +0.000 A 
ATOM     19  C   UNL     1      24.753   7.472  48.869  0.00  0.00    +0.000 A 
ATOM     20  C   UNL     1      24.032   8.560  49.309  0.00  0.00    +0.000 A 
ATOM     21  C   UNL     1      23.035   8.292  50.258  0.00  0.00    +0.000 A 
ATOM     22  C   UNL     1      22.775   6.957  50.624  0.00  0.00    +0.000 A 
ATOM     23  C   UNL     1      23.244   5.912  49.795  0.00  0.00    +0.000 A 
BRANCH  19  24
ATOM     24  N   UNL     1      26.119   7.384  49.197  0.00  0.00    +0.000 N 
ATOM     25  C   UNL     1      26.780   8.410  50.006  0.00  0.00    +0.000 C 
ATOM     26  C   UNL     1      27.019   6.459  48.514  0.00  0.00    +0.000 C 
ENDBRANCH  19  24
ENDBRANCH   1  14
TORSDOF 3
ENDMDL
MODEL 9
REMARK VINA RESULT:    -7.044      1.850      3.101
REMARK INTER + INTRA:          -8.925
REMARK INTER:                  -8.404
REMARK INTRA:                  -0.522
REMARK UNBOUND:                -0.646
REMARK  Name = 
REMARK  6 active torsions:
REMARK  status: ('A' for Active; 'I' for Inactive)
REMARK    1  A    between atoms: C_1  and  C_2
REMARK    2  A    between atoms: N_9  and  S_10
REMARK    3  A    between atoms: S_10  and  C_13
REMARK    4  A    between atoms: C_18  and  N_19
REMARK    5  A    between atoms: N_19  and  C_20
REMARK    6  A    between atoms: N_19  and  C_21
REMARK                            x       y       z     vdW  Elec       q    Type
REMARK                         _______ _______ _______ _____ _____    ______ ____
ROOT
ATOM      1  S   UNL     1      23.555   2.975  51.663  0.00  0.00    +0.000 S 
ATOM      2  O   UNL     1      22.111   3.072  51.548  0.00  0.00    +0.000 OA
ATOM      3  O   UNL     1      24.234   3.407  52.866  0.00  0.00    +0.000 OA
ENDROOT
BRANCH   1  12
ATOM      4  C   UNL     1      23.493  -0.237  54.019  0.00  0.00    +0.000 C 
ATOM      5  C   UNL     1      24.821   0.232  53.512  0.00  0.00    +0.000 A 
ATOM      6  N   UNL     1      25.906  -0.047  54.296  0.00  0.00    +0.000 NA
ATOM      7  C   UNL     1      27.116   0.261  53.778  0.00  0.00    +0.000 A 
ATOM      8 BR   UNL     1      28.652   0.057  54.863  0.00  0.00    +0.000 Br
ATOM      9  C   UNL     1      27.249   0.763  52.497  0.00  0.00    +0.000 A 
ATOM     10  N   UNL     1      26.187   1.019  51.697  0.00  0.00    +0.000 NA
ATOM     11  C   UNL     1      24.978   0.813  52.250  0.00  0.00    +0.000 A 
ATOM     12  N   UNL     1      23.936   1.329  51.442  0.00  0.00    +0.000 N 
ATOM     13  H   UNL     1      23.457   0.768  50.789  0.00  0.00    +0.000 HD
ENDBRANCH   1  12
BRANCH   1  14
ATOM     14  C   UNL     1      24.226   3.873  50.290  0.00  0.00    +0.000 A 
ATOM     15  C   UNL     1      25.591   4.169  50.228  0.00  0.00    +0.000 A 
ATOM     16  C   UNL     1      26.000   5.173  49.341  0.00  0.00    +0.000 A 
ATOM     17  C   UNL     1      25.034   5.988  48.734  0.00  0.00    +0.000 A 
ATOM     18  C   UNL     1      23.663   5.684  48.844  0.00  0.00    +0.000 A 
ATOM     19  C   UNL     1      22.660   6.301  48.089  0.00  0.00    +0.000 A 
ATOM     20  C   UNL     1      22.313   5.555  46.985  0.00  0.00    +0.000 A 
ATOM     21  C   UNL     1      22.253   4.167  47.178  0.00  0.00    +0.000 A 
ATOM     22  C   UNL     1      22.629   3.628  48.424  0.00  0.00    +0.000 A 
ATOM     23  C   UNL     1      23.387   4.421  49.316  0.00  0.00    +0.000 A 
BRANCH  19  24
ATOM     24  N   UNL     1      21.702   7.162  48.656  0.00  0.00    +0.000 N 
ATOM     25  C   UNL     1      20.297   6.769  48.779  0.00  0.00    +0.000 C 
ATOM     26  C   UNL     1      21.968   8.582  48.866  0.00  0.00    +0.000 C 
ENDBRANCH  19  24
ENDBRANCH   1  14
TORSDOF 3
ENDMDL
