MODEL 1
REMARK VINA RESULT:    -9.223      0.000      0.000
REMARK INTER + INTRA:         -15.091
REMARK INTER:                 -13.536
REMARK INTRA:                  -1.555
REMARK UNBOUND:                -1.555
REMARK  Name = 
REMARK  11 active torsions:
REMARK  status: ('A' for Active; 'I' for Inactive)
REMARK    1  A    between atoms: C_1  and  C_2
REMARK    2  A    between atoms: C_2  and  C_3
REMARK    3  A    between atoms: C_4  and  C_5
REMARK    4  A    between atoms: C_5  and  C_6
REMARK    5  A    between atoms: C_6  and  O_7
REMARK    6  A    between atoms: C_6  and  C_17
REMARK    7  A    between atoms: O_7  and  C_8
REMARK    8  A    between atoms: C_8  and  C_10
REMARK    9  A    between atoms: C_10  and  C_11
REMARK   10  A    between atoms: C_22  and  O_23
REMARK   11  A    between atoms: C_26  and  O_27
REMARK                            x       y       z     vdW  Elec       q    Type
REMARK                         _______ _______ _______ _____ _____    ______ ____
ROOT
ATOM      1  C   UNL     1      25.000   2.048  51.570  0.00  0.00    +0.000 C 
ENDROOT
BRANCH   1   2
ATOM      2  C   UNL     1      25.669   1.000  52.423  0.00  0.00    +0.000 C 
ATOM      3  C   UNL     1      25.582  -0.317  52.191  0.00  0.00    +0.000 C 
ATOM      4  C   UNL     1      26.615  -1.240  52.684  0.00  0.00    +0.000 C 
ATOM      5  O   UNL     1      26.526  -2.445  52.492  0.00  0.00    +0.000 OA
ATOM      6  C   UNL     1      27.852  -0.642  53.223  0.00  0.00    +0.000 A 
ATOM      7  C   UNL     1      29.024  -1.402  53.280  0.00  0.00    +0.000 A 
ATOM      8  C   UNL     1      30.209  -0.831  53.737  0.00  0.00    +0.000 A 
ATOM      9  C   UNL     1      30.238   0.510  54.113  0.00  0.00    +0.000 A 
ATOM     10  C   UNL     1      29.079   1.282  54.016  0.00  0.00    +0.000 A 
ATOM     11  C   UNL     1      27.878   0.707  53.585  0.00  0.00    +0.000 A 
ATOM     12  C   UNL     1      26.652   1.514  53.408  0.00  0.00    +0.000 C 
ATOM     13  O   UNL     1      26.439   2.562  54.002  0.00  0.00    +0.000 OA
BRANCH   7  14
ATOM     14  O   UNL     1      29.098  -2.699  52.850  0.00  0.00    +0.000 OA
ATOM     15  H   UNL     1      29.381  -2.889  51.979  0.00  0.00    +0.000 HD
ENDBRANCH   7  14
BRANCH  10  16
ATOM     16  O   UNL     1      29.151   2.618  54.288  0.00  0.00    +0.000 OA
ATOM     17  H   UNL     1      28.402   3.069  54.623  0.00  0.00    +0.000 HD
ENDBRANCH  10  16
ENDBRANCH   1   2
BRANCH   1  18
ATOM     18  C   UNL     1      26.027   2.731  50.629  0.00  0.00    +0.000 C 
BRANCH  18  22
ATOM     19  C   UNL     1      27.590   4.556  48.788  0.00  0.00    +0.000 C 
ATOM     20  C   UNL     1      26.182   4.832  49.244  0.00  0.00    +0.000 C 
ATOM     21  C   UNL     1      25.559   6.124  48.810  0.00  0.00    +0.000 C 
ATOM     22  C   UNL     1      25.493   4.004  50.051  0.00  0.00    +0.000 C 
ENDBRANCH  18  22
ENDBRANCH   1  18
BRANCH   1  23
ATOM     23  O   UNL     1      23.784   1.555  50.986  0.00  0.00    +0.000 OA
BRANCH  23  24
ATOM     24  C   UNL     1      22.620   2.202  51.208  0.00  0.00    +0.000 C 
ATOM     25  O   UNL     1      21.904   2.679  50.336  0.00  0.00    +0.000 OA
BRANCH  24  26
ATOM     26  C   UNL     1      22.300   2.222  52.680  0.00  0.00    +0.000 C 
BRANCH  26  27
ATOM     27  C   UNL     1      21.685   0.924  53.146  0.00  0.00    +0.000 A 
ATOM     28  C   UNL     1      22.432   0.011  53.900  0.00  0.00    +0.000 A 
ATOM     29  C   UNL     1      21.841  -1.165  54.367  0.00  0.00    +0.000 A 
ATOM     30  C   UNL     1      20.508  -1.445  54.073  0.00  0.00    +0.000 A 
ATOM     31  C   UNL     1      19.765  -0.557  53.300  0.00  0.00    +0.000 A 
ATOM     32  C   UNL     1      20.349   0.622  52.844  0.00  0.00    +0.000 A 
ENDBRANCH  26  27
ENDBRANCH  24  26
ENDBRANCH  23  24
ENDBRANCH   1  23
TORSDOF 9
ENDMDL
MODEL 2
REMARK VINA RESULT:    -8.997      2.252      6.656
REMARK INTER + INTRA:         -14.760
REMARK INTER:                 -13.110
REMARK INTRA:                  -1.650
REMARK UNBOUND:                -1.555
REMARK  Name = 
REMARK  11 active torsions:
REMARK  status: ('A' for Active; 'I' for Inactive)
REMARK    1  A    between atoms: C_1  and  C_2
REMARK    2  A    between atoms: C_2  and  C_3
REMARK    3  A    between atoms: C_4  and  C_5
REMARK    4  A    between atoms: C_5  and  C_6
REMARK    5  A    between atoms: C_6  and  O_7
REMARK    6  A    between atoms: C_6  and  C_17
REMARK    7  A    between atoms: O_7  and  C_8
REMARK    8  A    between atoms: C_8  and  C_10
REMARK    9  A    between atoms: C_10  and  C_11
REMARK   10  A    between atoms: C_22  and  O_23
REMARK   11  A    between atoms: C_26  and  O_27
REMARK                            x       y       z     vdW  Elec       q    Type
REMARK                         _______ _______ _______ _____ _____    ______ ____
ROOT
ATOM      1  C   UNL     1      24.459   2.663  52.449  0.00  0.00    +0.000 C 
ENDROOT
BRANCH   1   2
ATOM      2  C   UNL     1      23.753   1.333  52.519  0.00  0.00    +0.000 C 
ATOM      3  C   UNL     1      23.902   0.463  53.528  0.00  0.00    +0.000 C 
ATOM      4  C   UNL     1      22.860  -0.530  53.826  0.00  0.00    +0.000 C 
ATOM      5  O   UNL     1      23.003  -1.340  54.733  0.00  0.00    +0.000 OA
ATOM      6  C   UNL     1      21.563  -0.375  53.140  0.00  0.00    +0.000 A 
ATOM      7  C   UNL     1      20.415  -0.962  53.681  0.00  0.00    +0.000 A 
ATOM      8  C   UNL     1      19.177  -0.776  53.070  0.00  0.00    +0.000 A 
ATOM      9  C   UNL     1      19.073   0.020  51.931  0.00  0.00    +0.000 A 
ATOM     10  C   UNL     1      20.212   0.641  51.415  0.00  0.00    +0.000 A 
ATOM     11  C   UNL     1      21.463   0.435  52.006  0.00  0.00    +0.000 A 
ATOM     12  C   UNL     1      22.673   1.133  51.522  0.00  0.00    +0.000 C 
ATOM     13  O   UNL     1      22.801   1.556  50.382  0.00  0.00    +0.000 OA
BRANCH   7  14
ATOM     14  O   UNL     1      20.420  -1.686  54.842  0.00  0.00    +0.000 OA
ATOM     15  H   UNL     1      21.221  -1.817  55.309  0.00  0.00    +0.000 HD
ENDBRANCH   7  14
BRANCH  10  16
ATOM     16  O   UNL     1      20.074   1.500  50.362  0.00  0.00    +0.000 OA
ATOM     17  H   UNL     1      20.834   1.849  49.939  0.00  0.00    +0.000 HD
ENDBRANCH  10  16
ENDBRANCH   1   2
BRANCH   1  18
ATOM     18  C   UNL     1      23.520   3.811  52.905  0.00  0.00    +0.000 C 
BRANCH  18  22
ATOM     19  C   UNL     1      20.973   4.592  51.468  0.00  0.00    +0.000 C 
ATOM     20  C   UNL     1      22.307   5.245  51.222  0.00  0.00    +0.000 C 
ATOM     21  C   UNL     1      22.375   6.291  50.151  0.00  0.00    +0.000 C 
ATOM     22  C   UNL     1      23.429   4.898  51.880  0.00  0.00    +0.000 C 
ENDBRANCH  18  22
ENDBRANCH   1  18
BRANCH   1  23
ATOM     23  O   UNL     1      25.768   2.598  53.037  0.00  0.00    +0.000 OA
BRANCH  23  24
ATOM     24  C   UNL     1      26.837   2.299  52.269  0.00  0.00    +0.000 C 
ATOM     25  O   UNL     1      26.841   2.289  51.044  0.00  0.00    +0.000 OA
BRANCH  24  26
ATOM     26  C   UNL     1      28.043   2.018  53.128  0.00  0.00    +0.000 C 
BRANCH  26  27
ATOM     27  C   UNL     1      28.364   0.545  53.193  0.00  0.00    +0.000 A 
ATOM     28  C   UNL     1      27.404  -0.412  52.839  0.00  0.00    +0.000 A 
ATOM     29  C   UNL     1      27.725  -1.771  52.856  0.00  0.00    +0.000 A 
ATOM     30  C   UNL     1      28.999  -2.186  53.241  0.00  0.00    +0.000 A 
ATOM     31  C   UNL     1      29.952  -1.245  53.622  0.00  0.00    +0.000 A 
ATOM     32  C   UNL     1      29.637   0.112  53.593  0.00  0.00    +0.000 A 
ENDBRANCH  26  27
ENDBRANCH  24  26
ENDBRANCH  23  24
ENDBRANCH   1  23
TORSDOF 9
ENDMDL
MODEL 3
REMARK VINA RESULT:    -8.906      2.025      3.616
REMARK INTER + INTRA:         -14.626
REMARK INTER:                 -12.274
REMARK INTRA:                  -2.352
REMARK UNBOUND:                -1.555
REMARK  Name = 
REMARK  11 active torsions:
REMARK  status: ('A' for Active; 'I' for Inactive)
REMARK    1  A    between atoms: C_1  and  C_2
REMARK    2  A    between atoms: C_2  and  C_3
REMARK    3  A    between atoms: C_4  and  C_5
REMARK    4  A    between atoms: C_5  and  C_6
REMARK    5  A    between atoms: C_6  and  O_7
REMARK    6  A    between atoms: C_6  and  C_17
REMARK    7  A    between atoms: O_7  and  C_8
REMARK    8  A    between atoms: C_8  and  C_10
REMARK    9  A    between atoms: C_10  and  C_11
REMARK   10  A    between atoms: C_22  and  O_23
REMARK   11  A    between atoms: C_26  and  O_27
REMARK                            x       y       z     vdW  Elec       q    Type
REMARK                         _______ _______ _______ _____ _____    ______ ____
ROOT
ATOM      1  C   UNL     1      25.437   2.345  51.497  0.00  0.00    +0.000 C 
ENDROOT
BRANCH   1   2
ATOM      2  C   UNL     1      25.905   1.210  52.373  0.00  0.00    +0.000 C 
ATOM      3  C   UNL     1      25.518  -0.062  52.212  0.00  0.00    +0.000 C 
ATOM      4  C   UNL     1      26.349  -1.171  52.705  0.00  0.00    +0.000 C 
ATOM      5  O   UNL     1      25.987  -2.333  52.579  0.00  0.00    +0.000 OA
ATOM      6  C   UNL     1      27.715  -0.841  53.158  0.00  0.00    +0.000 A 
ATOM      7  C   UNL     1      28.692  -1.839  53.202  0.00  0.00    +0.000 A 
ATOM      8  C   UNL     1      29.997  -1.527  53.576  0.00  0.00    +0.000 A 
ATOM      9  C   UNL     1      30.340  -0.212  53.881  0.00  0.00    +0.000 A 
ATOM     10  C   UNL     1      29.375   0.793  53.796  0.00  0.00    +0.000 A 
ATOM     11  C   UNL     1      28.056   0.482  53.449  0.00  0.00    +0.000 A 
ATOM     12  C   UNL     1      27.029   1.533  53.286  0.00  0.00    +0.000 C 
ATOM     13  O   UNL     1      27.084   2.625  53.833  0.00  0.00    +0.000 OA
BRANCH   7  14
ATOM     14  O   UNL     1      28.456  -3.137  52.836  0.00  0.00    +0.000 OA
ATOM     15  H   UNL     1      27.634  -3.374  52.457  0.00  0.00    +0.000 HD
ENDBRANCH   7  14
BRANCH  10  16
ATOM     16  O   UNL     1      29.753   2.090  53.996  0.00  0.00    +0.000 OA
ATOM     17  H   UNL     1      30.602   2.282  54.343  0.00  0.00    +0.000 HD
ENDBRANCH  10  16
ENDBRANCH   1   2
BRANCH   1  18
ATOM     18  C   UNL     1      26.300   2.442  50.212  0.00  0.00    +0.000 C 
BRANCH  18  22
ATOM     19  C   UNL     1      24.522   4.421  48.767  0.00  0.00    +0.000 C 
ATOM     20  C   UNL     1      25.912   4.741  49.249  0.00  0.00    +0.000 C 
ATOM     21  C   UNL     1      26.459   6.098  48.925  0.00  0.00    +0.000 C 
ATOM     22  C   UNL     1      26.686   3.856  49.904  0.00  0.00    +0.000 C 
ENDBRANCH  18  22
ENDBRANCH   1  18
BRANCH   1  23
ATOM     23  O   UNL     1      24.009   2.339  51.344  0.00  0.00    +0.000 OA
BRANCH  23  24
ATOM     24  C   UNL     1      23.224   2.827  52.328  0.00  0.00    +0.000 C 
ATOM     25  O   UNL     1      22.223   2.275  52.768  0.00  0.00    +0.000 OA
BRANCH  24  26
ATOM     26  C   UNL     1      23.773   4.133  52.843  0.00  0.00    +0.000 C 
BRANCH  26  27
ATOM     27  C   UNL     1      23.316   5.308  52.013  0.00  0.00    +0.000 A 
ATOM     28  C   UNL     1      22.033   5.330  51.452  0.00  0.00    +0.000 A 
ATOM     29  C   UNL     1      21.602   6.442  50.725  0.00  0.00    +0.000 A 
ATOM     30  C   UNL     1      22.451   7.532  50.541  0.00  0.00    +0.000 A 
ATOM     31  C   UNL     1      23.738   7.508  51.071  0.00  0.00    +0.000 A 
ATOM     32  C   UNL     1      24.166   6.405  51.806  0.00  0.00    +0.000 A 
ENDBRANCH  26  27
ENDBRANCH  24  26
ENDBRANCH  23  24
ENDBRANCH   1  23
TORSDOF 9
ENDMDL
MODEL 4
REMARK VINA RESULT:    -8.886      1.864      2.662
REMARK INTER + INTRA:         -14.597
REMARK INTER:                 -12.579
REMARK INTRA:                  -2.018
REMARK UNBOUND:                -1.555
REMARK  Name = 
REMARK  11 active torsions:
REMARK  status: ('A' for Active; 'I' for Inactive)
REMARK    1  A    between atoms: C_1  and  C_2
REMARK    2  A    between atoms: C_2  and  C_3
REMARK    3  A    between atoms: C_4  and  C_5
REMARK    4  A    between atoms: C_5  and  C_6
REMARK    5  A    between atoms: C_6  and  O_7
REMARK    6  A    between atoms: C_6  and  C_17
REMARK    7  A    between atoms: O_7  and  C_8
REMARK    8  A    between atoms: C_8  and  C_10
REMARK    9  A    between atoms: C_10  and  C_11
REMARK   10  A    between atoms: C_22  and  O_23
REMARK   11  A    between atoms: C_26  and  O_27
REMARK                            x       y       z     vdW  Elec       q    Type
REMARK                         _______ _______ _______ _____ _____    ______ ____
ROOT
ATOM      1  C   UNL     1      25.053   2.675  52.032  0.00  0.00    +0.000 C 
ENDROOT
BRANCH   1   2
ATOM      2  C   UNL     1      25.586   1.490  52.798  0.00  0.00    +0.000 C 
ATOM      3  C   UNL     1      25.121   0.241  52.656  0.00  0.00    +0.000 C 
ATOM      4  C   UNL     1      25.960  -0.918  52.993  0.00  0.00    +0.000 C 
ATOM      5  O   UNL     1      25.531  -2.059  52.885  0.00  0.00    +0.000 OA
ATOM      6  C   UNL     1      27.390  -0.663  53.256  0.00  0.00    +0.000 A 
ATOM      7  C   UNL     1      28.316  -1.703  53.131  0.00  0.00    +0.000 A 
ATOM      8  C   UNL     1      29.674  -1.460  53.325  0.00  0.00    +0.000 A 
ATOM      9  C   UNL     1      30.118  -0.172  53.617  0.00  0.00    +0.000 A 
ATOM     10  C   UNL     1      29.198   0.875  53.700  0.00  0.00    +0.000 A 
ATOM     11  C   UNL     1      27.830   0.633  53.535  0.00  0.00    +0.000 A 
ATOM     12  C   UNL     1      26.841   1.732  53.551  0.00  0.00    +0.000 C 
ATOM     13  O   UNL     1      27.024   2.800  54.118  0.00  0.00    +0.000 OA
BRANCH   7  14
ATOM     14  O   UNL     1      27.970  -2.975  52.764  0.00  0.00    +0.000 OA
ATOM     15  H   UNL     1      27.069  -3.198  52.641  0.00  0.00    +0.000 HD
ENDBRANCH   7  14
BRANCH  10  16
ATOM     16  O   UNL     1      29.661   2.147  53.883  0.00  0.00    +0.000 OA
ATOM     17  H   UNL     1      29.109   2.795  54.273  0.00  0.00    +0.000 HD
ENDBRANCH  10  16
ENDBRANCH   1   2
BRANCH   1  18
ATOM     18  C   UNL     1      25.235   2.471  50.505  0.00  0.00    +0.000 C 
BRANCH  18  22
ATOM     19  C   UNL     1      25.169   5.101  49.008  0.00  0.00    +0.000 C 
ATOM     20  C   UNL     1      26.432   4.339  49.308  0.00  0.00    +0.000 C 
ATOM     21  C   UNL     1      27.715   4.893  48.765  0.00  0.00    +0.000 C 
ATOM     22  C   UNL     1      26.449   3.179  49.988  0.00  0.00    +0.000 C 
ENDBRANCH  18  22
ENDBRANCH   1  18
BRANCH   1  23
ATOM     23  O   UNL     1      23.754   3.067  52.504  0.00  0.00    +0.000 OA
BRANCH  23  24
ATOM     24  C   UNL     1      23.237   4.259  52.137  0.00  0.00    +0.000 C 
ATOM     25  O   UNL     1      23.838   5.326  52.169  0.00  0.00    +0.000 OA
BRANCH  24  26
ATOM     26  C   UNL     1      21.823   4.091  51.644  0.00  0.00    +0.000 C 
BRANCH  26  27
ATOM     27  C   UNL     1      21.726   3.075  50.531  0.00  0.00    +0.000 A 
ATOM     28  C   UNL     1      21.941   3.452  49.199  0.00  0.00    +0.000 A 
ATOM     29  C   UNL     1      21.895   2.496  48.182  0.00  0.00    +0.000 A 
ATOM     30  C   UNL     1      21.622   1.163  48.483  0.00  0.00    +0.000 A 
ATOM     31  C   UNL     1      21.379   0.784  49.800  0.00  0.00    +0.000 A 
ATOM     32  C   UNL     1      21.436   1.733  50.818  0.00  0.00    +0.000 A 
ENDBRANCH  26  27
ENDBRANCH  24  26
ENDBRANCH  23  24
ENDBRANCH   1  23
TORSDOF 9
ENDMDL
MODEL 5
REMARK VINA RESULT:    -8.849      0.978      5.468
REMARK INTER + INTRA:         -14.543
REMARK INTER:                 -13.412
REMARK INTRA:                  -1.131
REMARK UNBOUND:                -1.555
REMARK  Name = 
REMARK  11 active torsions:
REMARK  status: ('A' for Active; 'I' for Inactive)
REMARK    1  A    between atoms: C_1  and  C_2
REMARK    2  A    between atoms: C_2  and  C_3
REMARK    3  A    between atoms: C_4  and  C_5
REMARK    4  A    between atoms: C_5  and  C_6
REMARK    5  A    between atoms: C_6  and  O_7
REMARK    6  A    between atoms: C_6  and  C_17
REMARK    7  A    between atoms: O_7  and  C_8
REMARK    8  A    between atoms: C_8  and  C_10
REMARK    9  A    between atoms: C_10  and  C_11
REMARK   10  A    between atoms: C_22  and  O_23
REMARK   11  A    between atoms: C_26  and  O_27
REMARK                            x       y       z     vdW  Elec       q    Type
REMARK                         _______ _______ _______ _____ _____    ______ ____
ROOT
ATOM      1  C   UNL     1      24.255   1.579  51.749  0.00  0.00    +0.000 C 
ENDROOT
BRANCH   1   2
ATOM      2  C   UNL     1      25.119   0.704  52.621  0.00  0.00    +0.000 C 
ATOM      3  C   UNL     1      25.211  -0.626  52.484  0.00  0.00    +0.000 C 
ATOM      4  C   UNL     1      26.395  -1.353  52.964  0.00  0.00    +0.000 C 
ATOM      5  O   UNL     1      26.472  -2.570  52.859  0.00  0.00    +0.000 OA
ATOM      6  C   UNL     1      27.562  -0.547  53.374  0.00  0.00    +0.000 A 
ATOM      7  C   UNL     1      28.834  -1.127  53.399  0.00  0.00    +0.000 A 
ATOM      8  C   UNL     1      29.948  -0.361  53.733  0.00  0.00    +0.000 A 
ATOM      9  C   UNL     1      29.803   0.995  54.015  0.00  0.00    +0.000 A 
ATOM     10  C   UNL     1      28.540   1.585  53.948  0.00  0.00    +0.000 A 
ATOM     11  C   UNL     1      27.412   0.816  53.642  0.00  0.00    +0.000 A 
ATOM     12  C   UNL     1      26.073   1.426  53.498  0.00  0.00    +0.000 C 
ATOM     13  O   UNL     1      25.746   2.475  54.034  0.00  0.00    +0.000 OA
BRANCH   7  14
ATOM     14  O   UNL     1      29.070  -2.430  53.053  0.00  0.00    +0.000 OA
ATOM     15  H   UNL     1      29.871  -2.844  53.305  0.00  0.00    +0.000 HD
ENDBRANCH   7  14
BRANCH  10  16
ATOM     16  O   UNL     1      28.432   2.936  54.125  0.00  0.00    +0.000 OA
ATOM     17  H   UNL     1      27.927   3.276  54.836  0.00  0.00    +0.000 HD
ENDBRANCH  10  16
ENDBRANCH   1   2
BRANCH   1  18
ATOM     18  C   UNL     1      23.076   2.176  52.562  0.00  0.00    +0.000 C 
BRANCH  18  22
ATOM     19  C   UNL     1      21.635  -0.036  54.043  0.00  0.00    +0.000 C 
ATOM     20  C   UNL     1      21.116   0.605  52.783  0.00  0.00    +0.000 C 
ATOM     21  C   UNL     1      19.848   0.056  52.204  0.00  0.00    +0.000 C 
ATOM     22  C   UNL     1      21.760   1.599  52.144  0.00  0.00    +0.000 C 
ENDBRANCH  18  22
ENDBRANCH   1  18
BRANCH   1  23
ATOM     23  O   UNL     1      25.045   2.481  50.958  0.00  0.00    +0.000 OA
BRANCH  23  24
ATOM     24  C   UNL     1      24.443   3.301  50.070  0.00  0.00    +0.000 C 
ATOM     25  O   UNL     1      23.728   2.933  49.146  0.00  0.00    +0.000 OA
BRANCH  24  26
ATOM     26  C   UNL     1      24.740   4.741  50.396  0.00  0.00    +0.000 C 
BRANCH  26  27
ATOM     27  C   UNL     1      25.891   5.283  49.581  0.00  0.00    +0.000 A 
ATOM     28  C   UNL     1      25.920   6.629  49.194  0.00  0.00    +0.000 A 
ATOM     29  C   UNL     1      27.011   7.132  48.482  0.00  0.00    +0.000 A 
ATOM     30  C   UNL     1      28.070   6.295  48.138  0.00  0.00    +0.000 A 
ATOM     31  C   UNL     1      28.038   4.949  48.493  0.00  0.00    +0.000 A 
ATOM     32  C   UNL     1      26.957   4.448  49.215  0.00  0.00    +0.000 A 
ENDBRANCH  26  27
ENDBRANCH  24  26
ENDBRANCH  23  24
ENDBRANCH   1  23
TORSDOF 9
ENDMDL
MODEL 6
REMARK VINA RESULT:    -8.779      2.674      6.855
REMARK INTER + INTRA:         -14.440
REMARK INTER:                 -12.558
REMARK INTRA:                  -1.882
REMARK UNBOUND:                -1.555
REMARK  Name = 
REMARK  11 active torsions:
REMARK  status: ('A' for Active; 'I' for Inactive)
REMARK    1  A    between atoms: C_1  and  C_2
REMARK    2  A    between atoms: C_2  and  C_3
REMARK    3  A    between atoms: C_4  and  C_5
REMARK    4  A    between atoms: C_5  and  C_6
REMARK    5  A    between atoms: C_6  and  O_7
REMARK    6  A    between atoms: C_6  and  C_17
REMARK    7  A    between atoms: O_7  and  C_8
REMARK    8  A    between atoms: C_8  and  C_10
REMARK    9  A    between atoms: C_10  and  C_11
REMARK   10  A    between atoms: C_22  and  O_23
REMARK   11  A    between atoms: C_26  and  O_27
REMARK                            x       y       z     vdW  Elec       q    Type
REMARK                         _______ _______ _______ _____ _____    ______ ____
ROOT
ATOM      1  C   UNL     1      24.290   3.096  51.714  0.00  0.00    +0.000 C 
ENDROOT
BRANCH   1   2
ATOM      2  C   UNL     1      24.145   1.655  52.136  0.00  0.00    +0.000 C 
ATOM      3  C   UNL     1      24.971   1.045  52.996  0.00  0.00    +0.000 C 
ATOM      4  C   UNL     1      24.528  -0.130  53.761  0.00  0.00    +0.000 C 
ATOM      5  O   UNL     1      25.288  -0.703  54.532  0.00  0.00    +0.000 OA
ATOM      6  C   UNL     1      23.089  -0.454  53.727  0.00  0.00    +0.000 A 
ATOM      7  C   UNL     1      22.526  -1.231  54.745  0.00  0.00    +0.000 A 
ATOM      8  C   UNL     1      21.159  -1.498  54.749  0.00  0.00    +0.000 A 
ATOM      9  C   UNL     1      20.341  -0.967  53.754  0.00  0.00    +0.000 A 
ATOM     10  C   UNL     1      20.895  -0.156  52.762  0.00  0.00    +0.000 A 
ATOM     11  C   UNL     1      22.271   0.092  52.734  0.00  0.00    +0.000 A 
ATOM     12  C   UNL     1      22.875   1.001  51.737  0.00  0.00    +0.000 C 
ATOM     13  O   UNL     1      22.373   1.242  50.649  0.00  0.00    +0.000 OA
BRANCH   7  14
ATOM     14  O   UNL     1      23.247  -1.717  55.801  0.00  0.00    +0.000 OA
ATOM     15  H   UNL     1      24.167  -1.863  55.713  0.00  0.00    +0.000 HD
ENDBRANCH   7  14
BRANCH  10  16
ATOM     16  O   UNL     1      20.063   0.441  51.857  0.00  0.00    +0.000 OA
ATOM     17  H   UNL     1      19.289   0.878  52.150  0.00  0.00    +0.000 HD
ENDBRANCH  10  16
ENDBRANCH   1   2
BRANCH   1  18
ATOM     18  C   UNL     1      23.589   4.040  52.726  0.00  0.00    +0.000 C 
BRANCH  18  22
ATOM     19  C   UNL     1      20.867   4.396  51.452  0.00  0.00    +0.000 C 
ATOM     20  C   UNL     1      21.920   5.472  51.493  0.00  0.00    +0.000 C 
ATOM     21  C   UNL     1      21.613   6.763  50.797  0.00  0.00    +0.000 C 
ATOM     22  C   UNL     1      23.121   5.305  52.077  0.00  0.00    +0.000 C 
ENDBRANCH  18  22
ENDBRANCH   1  18
BRANCH   1  23
ATOM     23  O   UNL     1      25.643   3.403  51.341  0.00  0.00    +0.000 OA
BRANCH  23  24
ATOM     24  C   UNL     1      25.997   3.411  50.038  0.00  0.00    +0.000 C 
ATOM     25  O   UNL     1      26.793   2.637  49.521  0.00  0.00    +0.000 OA
BRANCH  24  26
ATOM     26  C   UNL     1      25.242   4.481  49.293  0.00  0.00    +0.000 C 
BRANCH  26  27
ATOM     27  C   UNL     1      25.993   5.791  49.264  0.00  0.00    +0.000 A 
ATOM     28  C   UNL     1      25.587   6.865  50.066  0.00  0.00    +0.000 A 
ATOM     29  C   UNL     1      26.315   8.056  50.069  0.00  0.00    +0.000 A 
ATOM     30  C   UNL     1      27.443   8.190  49.262  0.00  0.00    +0.000 A 
ATOM     31  C   UNL     1      27.839   7.139  48.440  0.00  0.00    +0.000 A 
ATOM     32  C   UNL     1      27.122   5.946  48.445  0.00  0.00    +0.000 A 
ENDBRANCH  26  27
ENDBRANCH  24  26
ENDBRANCH  23  24
ENDBRANCH   1  23
TORSDOF 9
ENDMDL
MODEL 7
REMARK VINA RESULT:    -8.516      2.007      5.937
REMARK INTER + INTRA:         -14.054
REMARK INTER:                 -12.471
REMARK INTRA:                  -1.583
REMARK UNBOUND:                -1.555
REMARK  Name = 
REMARK  11 active torsions:
REMARK  status: ('A' for Active; 'I' for Inactive)
REMARK    1  A    between atoms: C_1  and  C_2
REMARK    2  A    between atoms: C_2  and  C_3
REMARK    3  A    between atoms: C_4  and  C_5
REMARK    4  A    between atoms: C_5  and  C_6
REMARK    5  A    between atoms: C_6  and  O_7
REMARK    6  A    between atoms: C_6  and  C_17
REMARK    7  A    between atoms: O_7  and  C_8
REMARK    8  A    between atoms: C_8  and  C_10
REMARK    9  A    between atoms: C_10  and  C_11
REMARK   10  A    between atoms: C_22  and  O_23
REMARK   11  A    between atoms: C_26  and  O_27
REMARK                            x       y       z     vdW  Elec       q    Type
REMARK                         _______ _______ _______ _____ _____    ______ ____
ROOT
ATOM      1  C   UNL     1      25.915   1.662  52.681  0.00  0.00    +0.000 C 
ENDROOT
BRANCH   1   2
ATOM      2  C   UNL     1      25.133   2.677  51.886  0.00  0.00    +0.000 C 
ATOM      3  C   UNL     1      24.065   3.333  52.361  0.00  0.00    +0.000 C 
ATOM      4  C   UNL     1      23.664   4.630  51.796  0.00  0.00    +0.000 C 
ATOM      5  O   UNL     1      22.677   5.221  52.213  0.00  0.00    +0.000 OA
ATOM      6  C   UNL     1      24.609   5.283  50.869  0.00  0.00    +0.000 A 
ATOM      7  C   UNL     1      24.532   6.663  50.656  0.00  0.00    +0.000 A 
ATOM      8  C   UNL     1      25.453   7.296  49.824  0.00  0.00    +0.000 A 
ATOM      9  C   UNL     1      26.472   6.561  49.223  0.00  0.00    +0.000 A 
ATOM     10  C   UNL     1      26.575   5.191  49.469  0.00  0.00    +0.000 A 
ATOM     11  C   UNL     1      25.637   4.543  50.280  0.00  0.00    +0.000 A 
ATOM     12  C   UNL     1      25.760   3.107  50.613  0.00  0.00    +0.000 C 
ATOM     13  O   UNL     1      26.358   2.299  49.916  0.00  0.00    +0.000 OA
BRANCH   7  14
ATOM     14  O   UNL     1      23.614   7.467  51.275  0.00  0.00    +0.000 OA
ATOM     15  H   UNL     1      22.916   7.086  51.768  0.00  0.00    +0.000 HD
ENDBRANCH   7  14
BRANCH  10  16
ATOM     16  O   UNL     1      27.641   4.506  48.957  0.00  0.00    +0.000 OA
ATOM     17  H   UNL     1      28.494   4.894  48.964  0.00  0.00    +0.000 HD
ENDBRANCH  10  16
ENDBRANCH   1   2
BRANCH   1  18
ATOM     18  C   UNL     1      27.249   2.269  53.189  0.00  0.00    +0.000 C 
BRANCH  18  22
ATOM     19  C   UNL     1      28.175   0.161  55.154  0.00  0.00    +0.000 C 
ATOM     20  C   UNL     1      28.837   0.417  53.827  0.00  0.00    +0.000 C 
ATOM     21  C   UNL     1      30.067  -0.378  53.506  0.00  0.00    +0.000 C 
ATOM     22  C   UNL     1      28.406   1.347  52.955  0.00  0.00    +0.000 C 
ENDBRANCH  18  22
ENDBRANCH   1  18
BRANCH   1  23
ATOM     23  O   UNL     1      25.083   0.986  53.637  0.00  0.00    +0.000 OA
BRANCH  23  24
ATOM     24  C   UNL     1      24.907  -0.350  53.550  0.00  0.00    +0.000 C 
ATOM     25  O   UNL     1      25.637  -1.116  52.935  0.00  0.00    +0.000 OA
BRANCH  24  26
ATOM     26  C   UNL     1      23.704  -0.777  54.352  0.00  0.00    +0.000 C 
BRANCH  26  27
ATOM     27  C   UNL     1      22.410  -0.516  53.620  0.00  0.00    +0.000 A 
ATOM     28  C   UNL     1      21.179  -0.798  54.224  0.00  0.00    +0.000 A 
ATOM     29  C   UNL     1      19.986  -0.509  53.557  0.00  0.00    +0.000 A 
ATOM     30  C   UNL     1      20.013   0.047  52.280  0.00  0.00    +0.000 A 
ATOM     31  C   UNL     1      21.232   0.305  51.659  0.00  0.00    +0.000 A 
ATOM     32  C   UNL     1      22.423   0.029  52.327  0.00  0.00    +0.000 A 
ENDBRANCH  26  27
ENDBRANCH  24  26
ENDBRANCH  23  24
ENDBRANCH   1  23
TORSDOF 9
ENDMDL
MODEL 8
REMARK VINA RESULT:    -8.471      3.236      7.623
REMARK INTER + INTRA:         -13.988
REMARK INTER:                 -11.985
REMARK INTRA:                  -2.003
REMARK UNBOUND:                -1.555
REMARK  Name = 
REMARK  11 active torsions:
REMARK  status: ('A' for Active; 'I' for Inactive)
REMARK    1  A    between atoms: C_1  and  C_2
REMARK    2  A    between atoms: C_2  and  C_3
REMARK    3  A    between atoms: C_4  and  C_5
REMARK    4  A    between atoms: C_5  and  C_6
REMARK    5  A    between atoms: C_6  and  O_7
REMARK    6  A    between atoms: C_6  and  C_17
REMARK    7  A    between atoms: O_7  and  C_8
REMARK    8  A    between atoms: C_8  and  C_10
REMARK    9  A    between atoms: C_10  and  C_11
REMARK   10  A    between atoms: C_22  and  O_23
REMARK   11  A    between atoms: C_26  and  O_27
REMARK                            x       y       z     vdW  Elec       q    Type
REMARK                         _______ _______ _______ _____ _____    ______ ____
ROOT
ATOM      1  C   UNL     1      23.584   3.165  51.744  0.00  0.00    +0.000 C 
ENDROOT
BRANCH   1   2
ATOM      2  C   UNL     1      22.880   1.842  51.909  0.00  0.00    +0.000 C 
ATOM      3  C   UNL     1      22.832   1.163  53.063  0.00  0.00    +0.000 C 
ATOM      4  C   UNL     1      21.754   0.199  53.326  0.00  0.00    +0.000 C 
ATOM      5  O   UNL     1      21.720  -0.439  54.371  0.00  0.00    +0.000 OA
ATOM      6  C   UNL     1      20.614   0.188  52.389  0.00  0.00    +0.000 A 
ATOM      7  C   UNL     1      19.384  -0.338  52.796  0.00  0.00    +0.000 A 
ATOM      8  C   UNL     1      18.289  -0.304  51.937  0.00  0.00    +0.000 A 
ATOM      9  C   UNL     1      18.406   0.281  50.678  0.00  0.00    +0.000 A 
ATOM     10  C   UNL     1      19.621   0.845  50.288  0.00  0.00    +0.000 A 
ATOM     11  C   UNL     1      20.735   0.788  51.133  0.00  0.00    +0.000 A 
ATOM     12  C   UNL     1      22.014   1.436  50.775  0.00  0.00    +0.000 C 
ATOM     13  O   UNL     1      22.360   1.663  49.624  0.00  0.00    +0.000 OA
BRANCH   7  14
ATOM     14  O   UNL     1      19.166  -0.853  54.045  0.00  0.00    +0.000 OA
ATOM     15  H   UNL     1      18.469  -0.519  54.573  0.00  0.00    +0.000 HD
ENDBRANCH   7  14
BRANCH  10  16
ATOM     16  O   UNL     1      19.689   1.506  49.094  0.00  0.00    +0.000 OA
ATOM     17  H   UNL     1      20.522   1.702  48.714  0.00  0.00    +0.000 HD
ENDBRANCH  10  16
ENDBRANCH   1   2
BRANCH   1  18
ATOM     18  C   UNL     1      22.849   4.283  52.529  0.00  0.00    +0.000 C 
BRANCH  18  22
ATOM     19  C   UNL     1      20.681   4.872  50.500  0.00  0.00    +0.000 C 
ATOM     20  C   UNL     1      21.806   5.819  50.822  0.00  0.00    +0.000 C 
ATOM     21  C   UNL     1      21.882   7.092  50.035  0.00  0.00    +0.000 C 
ATOM     22  C   UNL     1      22.754   5.551  51.739  0.00  0.00    +0.000 C 
ENDBRANCH  18  22
ENDBRANCH   1  18
BRANCH   1  23
ATOM     23  O   UNL     1      25.001   3.036  51.935  0.00  0.00    +0.000 OA
BRANCH  23  24
ATOM     24  C   UNL     1      25.805   2.796  50.877  0.00  0.00    +0.000 C 
ATOM     25  O   UNL     1      26.837   2.138  50.913  0.00  0.00    +0.000 OA
BRANCH  24  26
ATOM     26  C   UNL     1      25.234   3.419  49.629  0.00  0.00    +0.000 C 
BRANCH  26  27
ATOM     27  C   UNL     1      26.025   4.624  49.181  0.00  0.00    +0.000 A 
ATOM     28  C   UNL     1      25.429   5.890  49.128  0.00  0.00    +0.000 A 
ATOM     29  C   UNL     1      26.181   7.007  48.758  0.00  0.00    +0.000 A 
ATOM     30  C   UNL     1      27.527   6.868  48.425  0.00  0.00    +0.000 A 
ATOM     31  C   UNL     1      28.122   5.609  48.448  0.00  0.00    +0.000 A 
ATOM     32  C   UNL     1      27.377   4.496  48.828  0.00  0.00    +0.000 A 
ENDBRANCH  26  27
ENDBRANCH  24  26
ENDBRANCH  23  24
ENDBRANCH   1  23
TORSDOF 9
ENDMDL
MODEL 9
REMARK VINA RESULT:    -8.397      2.079      7.247
REMARK INTER + INTRA:         -13.880
REMARK INTER:                 -12.979
REMARK INTRA:                  -0.901
REMARK UNBOUND:                -1.555
REMARK  Name = 
REMARK  11 active torsions:
REMARK  status: ('A' for Active; 'I' for Inactive)
REMARK    1  A    between atoms: C_1  and  C_2
REMARK    2  A    between atoms: C_2  and  C_3
REMARK    3  A    between atoms: C_4  and  C_5
REMARK    4  A    between atoms: C_5  and  C_6
REMARK    5  A    between atoms: C_6  and  O_7
REMARK    6  A    between atoms: C_6  and  C_17
REMARK    7  A    between atoms: O_7  and  C_8
REMARK    8  A    between atoms: C_8  and  C_10
REMARK    9  A    between atoms: C_10  and  C_11
REMARK   10  A    between atoms: C_22  and  O_23
REMARK   11  A    between atoms: C_26  and  O_27
REMARK                            x       y       z     vdW  Elec       q    Type
REMARK                         _______ _______ _______ _____ _____    ______ ____
ROOT
ATOM      1  C   UNL     1      24.904   2.593  51.767  0.00  0.00    +0.000 C 
ENDROOT
BRANCH   1   2
ATOM      2  C   UNL     1      24.676   3.360  50.489  0.00  0.00    +0.000 C 
ATOM      3  C   UNL     1      23.521   3.965  50.180  0.00  0.00    +0.000 C 
ATOM      4  C   UNL     1      23.490   5.091  49.235  0.00  0.00    +0.000 C 
ATOM      5  O   UNL     1      22.434   5.632  48.934  0.00  0.00    +0.000 OA
ATOM      6  C   UNL     1      24.786   5.674  48.836  0.00  0.00    +0.000 A 
ATOM      7  C   UNL     1      24.837   6.978  48.335  0.00  0.00    +0.000 A 
ATOM      8  C   UNL     1      26.061   7.555  48.006  0.00  0.00    +0.000 A 
ATOM      9  C   UNL     1      27.243   6.845  48.202  0.00  0.00    +0.000 A 
ATOM     10  C   UNL     1      27.197   5.559  48.743  0.00  0.00    +0.000 A 
ATOM     11  C   UNL     1      25.969   4.961  49.048  0.00  0.00    +0.000 A 
ATOM     12  C   UNL     1      25.892   3.629  49.683  0.00  0.00    +0.000 C 
ATOM     13  O   UNL     1      26.771   2.784  49.593  0.00  0.00    +0.000 OA
BRANCH   7  14
ATOM     14  O   UNL     1      23.731   7.770  48.193  0.00  0.00    +0.000 OA
ATOM     15  H   UNL     1      23.795   8.694  48.330  0.00  0.00    +0.000 HD
ENDBRANCH   7  14
BRANCH  10  16
ATOM     16  O   UNL     1      28.370   4.919  49.026  0.00  0.00    +0.000 OA
ATOM     17  H   UNL     1      28.547   4.630  49.899  0.00  0.00    +0.000 HD
ENDBRANCH  10  16
ENDBRANCH   1   2
BRANCH   1  18
ATOM     18  C   UNL     1      24.260   1.184  51.687  0.00  0.00    +0.000 C 
BRANCH  18  22
ATOM     19  C   UNL     1      23.763  -0.719  53.988  0.00  0.00    +0.000 C 
ATOM     20  C   UNL     1      22.740   0.259  53.475  0.00  0.00    +0.000 C 
ATOM     21  C   UNL     1      21.380   0.228  54.103  0.00  0.00    +0.000 C 
ATOM     22  C   UNL     1      22.980   1.111  52.460  0.00  0.00    +0.000 C 
ENDBRANCH  18  22
ENDBRANCH   1  18
BRANCH   1  23
ATOM     23  O   UNL     1      26.272   2.677  52.197  0.00  0.00    +0.000 OA
BRANCH  23  24
ATOM     24  C   UNL     1      26.618   2.249  53.430  0.00  0.00    +0.000 C 
ATOM     25  O   UNL     1      25.840   2.090  54.363  0.00  0.00    +0.000 OA
BRANCH  24  26
ATOM     26  C   UNL     1      28.094   1.953  53.491  0.00  0.00    +0.000 C 
BRANCH  26  27
ATOM     27  C   UNL     1      28.385   0.478  53.350  0.00  0.00    +0.000 A 
ATOM     28  C   UNL     1      29.651  -0.034  53.662  0.00  0.00    +0.000 A 
ATOM     29  C   UNL     1      29.897  -1.405  53.574  0.00  0.00    +0.000 A 
ATOM     30  C   UNL     1      28.888  -2.274  53.161  0.00  0.00    +0.000 A 
ATOM     31  C   UNL     1      27.634  -1.772  52.821  0.00  0.00    +0.000 A 
ATOM     32  C   UNL     1      27.383  -0.406  52.920  0.00  0.00    +0.000 A 
ENDBRANCH  26  27
ENDBRANCH  24  26
ENDBRANCH  23  24
ENDBRANCH   1  23
TORSDOF 9
ENDMDL
