MODEL 1
REMARK VINA RESULT:    -8.706      0.000      0.000
REMARK INTER + INTRA:         -13.913
REMARK INTER:                 -12.778
REMARK INTRA:                  -1.135
REMARK UNBOUND:                -1.135
REMARK  Name = 
REMARK  12 active torsions:
REMARK  status: ('A' for Active; 'I' for Inactive)
REMARK    1  A    between atoms: C_1  and  C_2
REMARK    2  A    between atoms: C_2  and  C_3
REMARK    3  A    between atoms: C_4  and  C_5
REMARK    4  A    between atoms: C_5  and  O_7
REMARK    5  A    between atoms: O_7  and  C_8
REMARK    6  A    between atoms: C_8  and  C_9
REMARK    7  A    between atoms: C_8  and  C_14
REMARK    8  A    between atoms: C_9  and  C_10
REMARK    9  A    between atoms: C_11  and  C_12
REMARK   10  A    between atoms: C_11  and  C_13
REMARK   11  A    between atoms: C_19  and  O_20
REMARK   12  A    between atoms: C_23  and  O_24
REMARK                            x       y       z     vdW  Elec       q    Type
REMARK                         _______ _______ _______ _____ _____    ______ ____
ROOT
ATOM      1  C   UNL     1      25.054   0.590  52.397  0.00  0.00    +0.000 C 
ATOM      2  C   UNL     1      25.305  -0.712  52.187  0.00  0.00    +0.000 C 
ATOM      3  C   UNL     1      26.588  -1.353  52.517  0.00  0.00    +0.000 C 
ATOM      4  O   UNL     1      26.752  -2.552  52.308  0.00  0.00    +0.000 OA
ATOM      5  C   UNL     1      27.658  -0.540  53.108  0.00  0.00    +0.000 A 
ATOM      6  C   UNL     1      28.888  -1.132  53.443  0.00  0.00    +0.000 A 
ATOM      7  C   UNL     1      29.908  -0.382  54.020  0.00  0.00    +0.000 A 
ATOM      8  C   UNL     1      29.715   0.973  54.261  0.00  0.00    +0.000 A 
ATOM      9  C   UNL     1      28.497   1.568  53.927  0.00  0.00    +0.000 A 
ATOM     10  C   UNL     1      27.451   0.814  53.353  0.00  0.00    +0.000 A 
ATOM     11  C   UNL     1      26.129   1.419  53.047  0.00  0.00    +0.000 C 
ATOM     12  O   UNL     1      25.909   2.577  53.371  0.00  0.00    +0.000 OA
ENDROOT
BRANCH   6  13
ATOM     13  O   UNL     1      29.163  -2.458  53.245  0.00  0.00    +0.000 OA
ATOM     14  H   UNL     1      29.001  -3.078  53.928  0.00  0.00    +0.000 HD
ENDBRANCH   6  13
BRANCH   9  15
ATOM     15  O   UNL     1      28.354   2.905  54.179  0.00  0.00    +0.000 OA
ATOM     16  H   UNL     1      27.766   3.195  54.848  0.00  0.00    +0.000 HD
ENDBRANCH   9  15
BRANCH   1  17
ATOM     17  C   UNL     1      23.711   1.266  52.035  0.00  0.00    +0.000 C 
BRANCH  17  18
ATOM     18  O   UNL     1      23.883   2.609  51.456  0.00  0.00    +0.000 OA
BRANCH  18  19
ATOM     19  C   UNL     1      23.815   2.745  50.108  0.00  0.00    +0.000 C 
ATOM     20  O   UNL     1      22.923   2.289  49.402  0.00  0.00    +0.000 OA
BRANCH  19  22
ATOM     21  C   UNL     1      26.229   3.445  49.628  0.00  0.00    +0.000 C 
ATOM     22  C   UNL     1      24.894   3.578  49.513  0.00  0.00    +0.000 C 
BRANCH  21  24
ATOM     23  C   UNL     1      26.863   5.776  48.633  0.00  0.00    +0.000 C 
ATOM     24  C   UNL     1      27.274   4.351  49.005  0.00  0.00    +0.000 C 
ENDBRANCH  21  24
ENDBRANCH  19  22
ENDBRANCH  18  19
ENDBRANCH  17  18
BRANCH  17  25
ATOM     25  C   UNL     1      22.653   1.244  53.171  0.00  0.00    +0.000 C 
BRANCH  25  26
ATOM     26  C   UNL     1      21.611   0.162  53.201  0.00  0.00    +0.000 C 
ATOM     27  C   UNL     1      21.679  -0.860  54.083  0.00  0.00    +0.000 C 
ATOM     28  C   UNL     1      20.520  -1.789  54.279  0.00  0.00    +0.000 C 
ATOM     29  C   UNL     1      22.861  -1.085  54.999  0.00  0.00    +0.000 C 
ENDBRANCH  25  26
ENDBRANCH  17  25
ENDBRANCH   1  17
TORSDOF 9
ENDMDL
MODEL 2
REMARK VINA RESULT:    -8.438      2.292      4.517
REMARK INTER + INTRA:         -13.520
REMARK INTER:                 -12.000
REMARK INTRA:                  -1.520
REMARK UNBOUND:                -1.135
REMARK  Name = 
REMARK  12 active torsions:
REMARK  status: ('A' for Active; 'I' for Inactive)
REMARK    1  A    between atoms: C_1  and  C_2
REMARK    2  A    between atoms: C_2  and  C_3
REMARK    3  A    between atoms: C_4  and  C_5
REMARK    4  A    between atoms: C_5  and  O_7
REMARK    5  A    between atoms: O_7  and  C_8
REMARK    6  A    between atoms: C_8  and  C_9
REMARK    7  A    between atoms: C_8  and  C_14
REMARK    8  A    between atoms: C_9  and  C_10
REMARK    9  A    between atoms: C_11  and  C_12
REMARK   10  A    between atoms: C_11  and  C_13
REMARK   11  A    between atoms: C_19  and  O_20
REMARK   12  A    between atoms: C_23  and  O_24
REMARK                            x       y       z     vdW  Elec       q    Type
REMARK                         _______ _______ _______ _____ _____    ______ ____
ROOT
ATOM      1  C   UNL     1      24.796   0.349  53.075  0.00  0.00    +0.000 C 
ATOM      2  C   UNL     1      25.152  -0.913  52.786  0.00  0.00    +0.000 C 
ATOM      3  C   UNL     1      26.541  -1.396  52.842  0.00  0.00    +0.000 C 
ATOM      4  O   UNL     1      26.799  -2.567  52.574  0.00  0.00    +0.000 OA
ATOM      5  C   UNL     1      27.604  -0.463  53.233  0.00  0.00    +0.000 A 
ATOM      6  C   UNL     1      28.937  -0.904  53.306  0.00  0.00    +0.000 A 
ATOM      7  C   UNL     1      29.955  -0.038  53.691  0.00  0.00    +0.000 A 
ATOM      8  C   UNL     1      29.657   1.284  54.000  0.00  0.00    +0.000 A 
ATOM      9  C   UNL     1      28.336   1.729  53.927  0.00  0.00    +0.000 A 
ATOM     10  C   UNL     1      27.292   0.857  53.549  0.00  0.00    +0.000 A 
ATOM     11  C   UNL     1      25.874   1.299  53.523  0.00  0.00    +0.000 C 
ATOM     12  O   UNL     1      25.588   2.422  53.914  0.00  0.00    +0.000 OA
ENDROOT
BRANCH   6  13
ATOM     13  O   UNL     1      29.320  -2.187  53.023  0.00  0.00    +0.000 OA
ATOM     14  H   UNL     1      29.755  -2.701  53.674  0.00  0.00    +0.000 HD
ENDBRANCH   6  13
BRANCH   9  15
ATOM     15  O   UNL     1      28.090   3.038  54.236  0.00  0.00    +0.000 OA
ATOM     16  H   UNL     1      28.145   3.328  55.125  0.00  0.00    +0.000 HD
ENDBRANCH   9  15
BRANCH   1  17
ATOM     17  C   UNL     1      23.339   0.860  53.001  0.00  0.00    +0.000 C 
BRANCH  17  18
ATOM     18  O   UNL     1      22.349  -0.232  52.973  0.00  0.00    +0.000 OA
BRANCH  18  19
ATOM     19  C   UNL     1      21.370  -0.239  53.912  0.00  0.00    +0.000 C 
ATOM     20  O   UNL     1      21.558  -0.348  55.118  0.00  0.00    +0.000 OA
BRANCH  19  22
ATOM     21  C   UNL     1      19.566  -0.071  52.106  0.00  0.00    +0.000 C 
ATOM     22  C   UNL     1      19.998  -0.024  53.381  0.00  0.00    +0.000 C 
BRANCH  21  24
ATOM     23  C   UNL     1      17.903   0.355  50.137  0.00  0.00    +0.000 C 
ATOM     24  C   UNL     1      18.146   0.181  51.636  0.00  0.00    +0.000 C 
ENDBRANCH  21  24
ENDBRANCH  19  22
ENDBRANCH  18  19
ENDBRANCH  17  18
BRANCH  17  25
ATOM     25  C   UNL     1      23.083   1.914  51.890  0.00  0.00    +0.000 C 
BRANCH  25  26
ATOM     26  C   UNL     1      22.725   1.465  50.502  0.00  0.00    +0.000 C 
ATOM     27  C   UNL     1      21.687   2.009  49.830  0.00  0.00    +0.000 C 
ATOM     28  C   UNL     1      21.488   1.743  48.368  0.00  0.00    +0.000 C 
ATOM     29  C   UNL     1      20.722   2.993  50.452  0.00  0.00    +0.000 C 
ENDBRANCH  25  26
ENDBRANCH  17  25
ENDBRANCH   1  17
TORSDOF 9
ENDMDL
MODEL 3
REMARK VINA RESULT:    -8.351      0.953      2.499
REMARK INTER + INTRA:         -13.392
REMARK INTER:                 -12.277
REMARK INTRA:                  -1.115
REMARK UNBOUND:                -1.135
REMARK  Name = 
REMARK  12 active torsions:
REMARK  status: ('A' for Active; 'I' for Inactive)
REMARK    1  A    between atoms: C_1  and  C_2
REMARK    2  A    between atoms: C_2  and  C_3
REMARK    3  A    between atoms: C_4  and  C_5
REMARK    4  A    between atoms: C_5  and  O_7
REMARK    5  A    between atoms: O_7  and  C_8
REMARK    6  A    between atoms: C_8  and  C_9
REMARK    7  A    between atoms: C_8  and  C_14
REMARK    8  A    between atoms: C_9  and  C_10
REMARK    9  A    between atoms: C_11  and  C_12
REMARK   10  A    between atoms: C_11  and  C_13
REMARK   11  A    between atoms: C_19  and  O_20
REMARK   12  A    between atoms: C_23  and  O_24
REMARK                            x       y       z     vdW  Elec       q    Type
REMARK                         _______ _______ _______ _____ _____    ______ ____
ROOT
ATOM      1  C   UNL     1      25.531   0.968  52.574  0.00  0.00    +0.000 C 
ATOM      2  C   UNL     1      26.320   1.984  52.960  0.00  0.00    +0.000 C 
ATOM      3  C   UNL     1      27.720   1.809  53.377  0.00  0.00    +0.000 C 
ATOM      4  O   UNL     1      28.393   2.781  53.710  0.00  0.00    +0.000 OA
ATOM      5  C   UNL     1      28.299   0.459  53.377  0.00  0.00    +0.000 A 
ATOM      6  C   UNL     1      29.638   0.268  53.760  0.00  0.00    +0.000 A 
ATOM      7  C   UNL     1      30.209  -1.001  53.749  0.00  0.00    +0.000 A 
ATOM      8  C   UNL     1      29.446  -2.097  53.365  0.00  0.00    +0.000 A 
ATOM      9  C   UNL     1      28.115  -1.915  52.987  0.00  0.00    +0.000 A 
ATOM     10  C   UNL     1      27.528  -0.630  52.981  0.00  0.00    +0.000 A 
ATOM     11  C   UNL     1      26.132  -0.411  52.525  0.00  0.00    +0.000 C 
ATOM     12  O   UNL     1      25.495  -1.349  52.067  0.00  0.00    +0.000 OA
ENDROOT
BRANCH   6  13
ATOM     13  O   UNL     1      30.462   1.290  54.149  0.00  0.00    +0.000 OA
ATOM     14  H   UNL     1      30.181   1.894  54.807  0.00  0.00    +0.000 HD
ENDBRANCH   6  13
BRANCH   9  15
ATOM     15  O   UNL     1      27.402  -3.022  52.620  0.00  0.00    +0.000 OA
ATOM     16  H   UNL     1      26.519  -3.129  52.914  0.00  0.00    +0.000 HD
ENDBRANCH   9  15
BRANCH   1  17
ATOM     17  C   UNL     1      24.055   1.152  52.151  0.00  0.00    +0.000 C 
BRANCH  17  18
ATOM     18  O   UNL     1      23.781   2.487  51.590  0.00  0.00    +0.000 OA
BRANCH  18  19
ATOM     19  C   UNL     1      23.721   2.620  50.241  0.00  0.00    +0.000 C 
ATOM     20  O   UNL     1      22.861   2.118  49.526  0.00  0.00    +0.000 OA
BRANCH  19  22
ATOM     21  C   UNL     1      26.097   3.353  49.642  0.00  0.00    +0.000 C 
ATOM     22  C   UNL     1      24.760   3.509  49.658  0.00  0.00    +0.000 C 
BRANCH  21  24
ATOM     23  C   UNL     1      26.631   5.736  48.714  0.00  0.00    +0.000 C 
ATOM     24  C   UNL     1      27.101   4.319  49.043  0.00  0.00    +0.000 C 
ENDBRANCH  21  24
ENDBRANCH  19  22
ENDBRANCH  18  19
ENDBRANCH  17  18
BRANCH  17  25
ATOM     25  C   UNL     1      23.021   0.744  53.234  0.00  0.00    +0.000 C 
BRANCH  25  26
ATOM     26  C   UNL     1      21.607   0.426  52.835  0.00  0.00    +0.000 C 
ATOM     27  C   UNL     1      20.918  -0.579  53.418  0.00  0.00    +0.000 C 
ATOM     28  C   UNL     1      19.443  -0.732  53.201  0.00  0.00    +0.000 C 
ATOM     29  C   UNL     1      21.539  -1.549  54.398  0.00  0.00    +0.000 C 
ENDBRANCH  25  26
ENDBRANCH  17  25
ENDBRANCH   1  17
TORSDOF 9
ENDMDL
MODEL 4
REMARK VINA RESULT:    -8.276      2.302      4.207
REMARK INTER + INTRA:         -13.281
REMARK INTER:                 -11.703
REMARK INTRA:                  -1.578
REMARK UNBOUND:                -1.135
REMARK  Name = 
REMARK  12 active torsions:
REMARK  status: ('A' for Active; 'I' for Inactive)
REMARK    1  A    between atoms: C_1  and  C_2
REMARK    2  A    between atoms: C_2  and  C_3
REMARK    3  A    between atoms: C_4  and  C_5
REMARK    4  A    between atoms: C_5  and  O_7
REMARK    5  A    between atoms: O_7  and  C_8
REMARK    6  A    between atoms: C_8  and  C_9
REMARK    7  A    between atoms: C_8  and  C_14
REMARK    8  A    between atoms: C_9  and  C_10
REMARK    9  A    between atoms: C_11  and  C_12
REMARK   10  A    between atoms: C_11  and  C_13
REMARK   11  A    between atoms: C_19  and  O_20
REMARK   12  A    between atoms: C_23  and  O_24
REMARK                            x       y       z     vdW  Elec       q    Type
REMARK                         _______ _______ _______ _____ _____    ______ ____
ROOT
ATOM      1  C   UNL     1      25.158   0.070  53.239  0.00  0.00    +0.000 C 
ATOM      2  C   UNL     1      25.648   1.276  53.565  0.00  0.00    +0.000 C 
ATOM      3  C   UNL     1      27.080   1.538  53.780  0.00  0.00    +0.000 C 
ATOM      4  O   UNL     1      27.466   2.668  54.068  0.00  0.00    +0.000 OA
ATOM      5  C   UNL     1      28.035   0.432  53.635  0.00  0.00    +0.000 A 
ATOM      6  C   UNL     1      29.410   0.660  53.823  0.00  0.00    +0.000 A 
ATOM      7  C   UNL     1      30.332  -0.371  53.672  0.00  0.00    +0.000 A 
ATOM      8  C   UNL     1      29.891  -1.647  53.340  0.00  0.00    +0.000 A 
ATOM      9  C   UNL     1      28.527  -1.880  53.155  0.00  0.00    +0.000 A 
ATOM     10  C   UNL     1      27.584  -0.839  53.292  0.00  0.00    +0.000 A 
ATOM     11  C   UNL     1      26.136  -1.058  53.041  0.00  0.00    +0.000 C 
ATOM     12  O   UNL     1      25.756  -2.144  52.626  0.00  0.00    +0.000 OA
ENDROOT
BRANCH   6  13
ATOM     13  O   UNL     1      29.931   1.883  54.148  0.00  0.00    +0.000 OA
ATOM     14  H   UNL     1      30.834   2.067  53.982  0.00  0.00    +0.000 HD
ENDBRANCH   6  13
BRANCH   9  15
ATOM     15  O   UNL     1      28.139  -3.151  52.832  0.00  0.00    +0.000 OA
ATOM     16  H   UNL     1      27.232  -3.385  52.859  0.00  0.00    +0.000 HD
ENDBRANCH   9  15
BRANCH   1  17
ATOM     17  C   UNL     1      23.651  -0.208  53.028  0.00  0.00    +0.000 C 
BRANCH  17  18
ATOM     18  O   UNL     1      22.898   0.993  52.626  0.00  0.00    +0.000 OA
BRANCH  18  19
ATOM     19  C   UNL     1      22.645   1.185  51.307  0.00  0.00    +0.000 C 
ATOM     20  O   UNL     1      23.418   1.713  50.516  0.00  0.00    +0.000 OA
BRANCH  19  22
ATOM     21  C   UNL     1      20.107   1.123  50.995  0.00  0.00    +0.000 C 
ATOM     22  C   UNL     1      21.349   0.629  50.836  0.00  0.00    +0.000 C 
BRANCH  21  24
ATOM     23  C   UNL     1      17.558   0.668  51.340  0.00  0.00    +0.000 C 
ATOM     24  C   UNL     1      18.822   0.485  50.502  0.00  0.00    +0.000 C 
ENDBRANCH  21  24
ENDBRANCH  19  22
ENDBRANCH  18  19
ENDBRANCH  17  18
BRANCH  17  25
ATOM     25  C   UNL     1      22.968  -0.968  54.197  0.00  0.00    +0.000 C 
BRANCH  25  26
ATOM     26  C   UNL     1      21.660  -1.671  53.967  0.00  0.00    +0.000 C 
ATOM     27  C   UNL     1      20.481  -1.018  54.064  0.00  0.00    +0.000 C 
ATOM     28  C   UNL     1      19.207  -1.651  53.592  0.00  0.00    +0.000 C 
ATOM     29  C   UNL     1      20.363   0.409  54.548  0.00  0.00    +0.000 C 
ENDBRANCH  25  26
ENDBRANCH  17  25
ENDBRANCH   1  17
TORSDOF 9
ENDMDL
MODEL 5
REMARK VINA RESULT:    -8.076      2.520      5.336
REMARK INTER + INTRA:         -12.987
REMARK INTER:                 -12.011
REMARK INTRA:                  -0.976
REMARK UNBOUND:                -1.135
REMARK  Name = 
REMARK  12 active torsions:
REMARK  status: ('A' for Active; 'I' for Inactive)
REMARK    1  A    between atoms: C_1  and  C_2
REMARK    2  A    between atoms: C_2  and  C_3
REMARK    3  A    between atoms: C_4  and  C_5
REMARK    4  A    between atoms: C_5  and  O_7
REMARK    5  A    between atoms: O_7  and  C_8
REMARK    6  A    between atoms: C_8  and  C_9
REMARK    7  A    between atoms: C_8  and  C_14
REMARK    8  A    between atoms: C_9  and  C_10
REMARK    9  A    between atoms: C_11  and  C_12
REMARK   10  A    between atoms: C_11  and  C_13
REMARK   11  A    between atoms: C_19  and  O_20
REMARK   12  A    between atoms: C_23  and  O_24
REMARK                            x       y       z     vdW  Elec       q    Type
REMARK                         _______ _______ _______ _____ _____    ______ ____
ROOT
ATOM      1  C   UNL     1      24.925   0.589  53.203  0.00  0.00    +0.000 C 
ATOM      2  C   UNL     1      25.549   1.734  53.521  0.00  0.00    +0.000 C 
ATOM      3  C   UNL     1      27.001   1.833  53.734  0.00  0.00    +0.000 C 
ATOM      4  O   UNL     1      27.514   2.914  54.015  0.00  0.00    +0.000 OA
ATOM      5  C   UNL     1      27.825   0.625  53.595  0.00  0.00    +0.000 A 
ATOM      6  C   UNL     1      29.216   0.697  53.782  0.00  0.00    +0.000 A 
ATOM      7  C   UNL     1      30.015  -0.433  53.638  0.00  0.00    +0.000 A 
ATOM      8  C   UNL     1      29.432  -1.653  53.314  0.00  0.00    +0.000 A 
ATOM      9  C   UNL     1      28.050  -1.732  53.130  0.00  0.00    +0.000 A 
ATOM     10  C   UNL     1      27.231  -0.589  53.262  0.00  0.00    +0.000 A 
ATOM     11  C   UNL     1      25.768  -0.643  53.012  0.00  0.00    +0.000 C 
ATOM     12  O   UNL     1      25.266  -1.681  52.604  0.00  0.00    +0.000 OA
ENDROOT
BRANCH   6  13
ATOM     13  O   UNL     1      29.874   1.855  54.099  0.00  0.00    +0.000 OA
ATOM     14  H   UNL     1      30.629   2.114  53.609  0.00  0.00    +0.000 HD
ENDBRANCH   6  13
BRANCH   9  15
ATOM     15  O   UNL     1      27.520  -2.952  52.817  0.00  0.00    +0.000 OA
ATOM     16  H   UNL     1      28.086  -3.683  52.665  0.00  0.00    +0.000 HD
ENDBRANCH   9  15
BRANCH   1  17
ATOM     17  C   UNL     1      23.396   0.484  52.995  0.00  0.00    +0.000 C 
BRANCH  17  18
ATOM     18  O   UNL     1      22.888  -0.889  53.164  0.00  0.00    +0.000 OA
BRANCH  18  19
ATOM     19  C   UNL     1      22.306  -1.221  54.344  0.00  0.00    +0.000 C 
ATOM     20  O   UNL     1      22.825  -1.076  55.445  0.00  0.00    +0.000 OA
BRANCH  19  22
ATOM     21  C   UNL     1      19.830  -1.118  53.710  0.00  0.00    +0.000 C 
ATOM     22  C   UNL     1      20.913  -1.727  54.230  0.00  0.00    +0.000 C 
BRANCH  21  24
ATOM     23  C   UNL     1      17.412  -1.015  52.726  0.00  0.00    +0.000 C 
ATOM     24  C   UNL     1      18.428  -1.692  53.647  0.00  0.00    +0.000 C 
ENDBRANCH  21  24
ENDBRANCH  19  22
ENDBRANCH  18  19
ENDBRANCH  17  18
BRANCH  17  25
ATOM     25  C   UNL     1      22.878   1.147  51.690  0.00  0.00    +0.000 C 
BRANCH  25  26
ATOM     26  C   UNL     1      21.651   0.604  51.013  0.00  0.00    +0.000 C 
ATOM     27  C   UNL     1      20.447   1.202  51.150  0.00  0.00    +0.000 C 
ATOM     28  C   UNL     1      19.288   0.812  50.283  0.00  0.00    +0.000 C 
ATOM     29  C   UNL     1      20.198   2.356  52.094  0.00  0.00    +0.000 C 
ENDBRANCH  25  26
ENDBRANCH  17  25
ENDBRANCH   1  17
TORSDOF 9
ENDMDL
MODEL 6
REMARK VINA RESULT:    -7.964      1.606      2.067
REMARK INTER + INTRA:         -12.823
REMARK INTER:                 -12.041
REMARK INTRA:                  -0.782
REMARK UNBOUND:                -1.135
REMARK  Name = 
REMARK  12 active torsions:
REMARK  status: ('A' for Active; 'I' for Inactive)
REMARK    1  A    between atoms: C_1  and  C_2
REMARK    2  A    between atoms: C_2  and  C_3
REMARK    3  A    between atoms: C_4  and  C_5
REMARK    4  A    between atoms: C_5  and  O_7
REMARK    5  A    between atoms: O_7  and  C_8
REMARK    6  A    between atoms: C_8  and  C_9
REMARK    7  A    between atoms: C_8  and  C_14
REMARK    8  A    between atoms: C_9  and  C_10
REMARK    9  A    between atoms: C_11  and  C_12
REMARK   10  A    between atoms: C_11  and  C_13
REMARK   11  A    between atoms: C_19  and  O_20
REMARK   12  A    between atoms: C_23  and  O_24
REMARK                            x       y       z     vdW  Elec       q    Type
REMARK                         _______ _______ _______ _____ _____    ______ ____
ROOT
ATOM      1  C   UNL     1      25.459   0.810  52.574  0.00  0.00    +0.000 C 
ATOM      2  C   UNL     1      25.487  -0.505  52.305  0.00  0.00    +0.000 C 
ATOM      3  C   UNL     1      26.667  -1.353  52.534  0.00  0.00    +0.000 C 
ATOM      4  O   UNL     1      26.626  -2.553  52.275  0.00  0.00    +0.000 OA
ATOM      5  C   UNL     1      27.885  -0.746  53.085  0.00  0.00    +0.000 A 
ATOM      6  C   UNL     1      29.021  -1.538  53.325  0.00  0.00    +0.000 A 
ATOM      7  C   UNL     1      30.178  -0.983  53.863  0.00  0.00    +0.000 A 
ATOM      8  C   UNL     1      30.218   0.374  54.161  0.00  0.00    +0.000 A 
ATOM      9  C   UNL     1      29.094   1.168  53.922  0.00  0.00    +0.000 A 
ATOM     10  C   UNL     1      27.910   0.613  53.388  0.00  0.00    +0.000 A 
ATOM     11  C   UNL     1      26.687   1.431  53.184  0.00  0.00    +0.000 C 
ATOM     12  O   UNL     1      26.673   2.595  53.560  0.00  0.00    +0.000 OA
ENDROOT
BRANCH   6  13
ATOM     13  O   UNL     1      29.069  -2.881  53.065  0.00  0.00    +0.000 OA
ATOM     14  H   UNL     1      28.374  -3.439  53.353  0.00  0.00    +0.000 HD
ENDBRANCH   6  13
BRANCH   9  15
ATOM     15  O   UNL     1      29.180   2.498  54.226  0.00  0.00    +0.000 OA
ATOM     16  H   UNL     1      29.216   3.134  53.540  0.00  0.00    +0.000 HD
ENDBRANCH   9  15
BRANCH   1  17
ATOM     17  C   UNL     1      24.223   1.704  52.318  0.00  0.00    +0.000 C 
BRANCH  17  18
ATOM     18  O   UNL     1      24.577   3.109  52.051  0.00  0.00    +0.000 OA
BRANCH  18  19
ATOM     19  C   UNL     1      23.669   3.894  51.419  0.00  0.00    +0.000 C 
ATOM     20  O   UNL     1      23.471   5.077  51.671  0.00  0.00    +0.000 OA
BRANCH  19  22
ATOM     21  C   UNL     1      23.370   2.967  49.053  0.00  0.00    +0.000 C 
ATOM     22  C   UNL     1      22.944   3.231  50.303  0.00  0.00    +0.000 C 
BRANCH  21  24
ATOM     23  C   UNL     1      21.443   1.343  48.365  0.00  0.00    +0.000 C 
ATOM     24  C   UNL     1      22.561   2.302  47.956  0.00  0.00    +0.000 C 
ENDBRANCH  21  24
ENDBRANCH  19  22
ENDBRANCH  18  19
ENDBRANCH  17  18
BRANCH  17  25
ATOM     25  C   UNL     1      23.102   1.571  53.384  0.00  0.00    +0.000 C 
BRANCH  25  26
ATOM     26  C   UNL     1      21.846   0.814  53.056  0.00  0.00    +0.000 C 
ATOM     27  C   UNL     1      21.493  -0.297  53.739  0.00  0.00    +0.000 C 
ATOM     28  C   UNL     1      20.130  -0.900  53.583  0.00  0.00    +0.000 C 
ATOM     29  C   UNL     1      22.382  -0.951  54.773  0.00  0.00    +0.000 C 
ENDBRANCH  25  26
ENDBRANCH  17  25
ENDBRANCH   1  17
TORSDOF 9
ENDMDL
MODEL 7
REMARK VINA RESULT:    -7.957      2.251      5.848
REMARK INTER + INTRA:         -12.813
REMARK INTER:                 -12.415
REMARK INTRA:                  -0.398
REMARK UNBOUND:                -1.135
REMARK  Name = 
REMARK  12 active torsions:
REMARK  status: ('A' for Active; 'I' for Inactive)
REMARK    1  A    between atoms: C_1  and  C_2
REMARK    2  A    between atoms: C_2  and  C_3
REMARK    3  A    between atoms: C_4  and  C_5
REMARK    4  A    between atoms: C_5  and  O_7
REMARK    5  A    between atoms: O_7  and  C_8
REMARK    6  A    between atoms: C_8  and  C_9
REMARK    7  A    between atoms: C_8  and  C_14
REMARK    8  A    between atoms: C_9  and  C_10
REMARK    9  A    between atoms: C_11  and  C_12
REMARK   10  A    between atoms: C_11  and  C_13
REMARK   11  A    between atoms: C_19  and  O_20
REMARK   12  A    between atoms: C_23  and  O_24
REMARK                            x       y       z     vdW  Elec       q    Type
REMARK                         _______ _______ _______ _____ _____    ______ ____
ROOT
ATOM      1  C   UNL     1      23.932   1.123  52.293  0.00  0.00    +0.000 C 
ATOM      2  C   UNL     1      23.975   0.356  53.394  0.00  0.00    +0.000 C 
ATOM      3  C   UNL     1      22.805  -0.356  53.932  0.00  0.00    +0.000 C 
ATOM      4  O   UNL     1      22.912  -1.050  54.939  0.00  0.00    +0.000 OA
ATOM      5  C   UNL     1      21.516  -0.230  53.240  0.00  0.00    +0.000 A 
ATOM      6  C   UNL     1      20.386  -0.910  53.727  0.00  0.00    +0.000 A 
ATOM      7  C   UNL     1      19.161  -0.817  53.075  0.00  0.00    +0.000 A 
ATOM      8  C   UNL     1      19.045  -0.035  51.932  0.00  0.00    +0.000 A 
ATOM      9  C   UNL     1      20.163   0.646  51.444  0.00  0.00    +0.000 A 
ATOM     10  C   UNL     1      21.414   0.549  52.090  0.00  0.00    +0.000 A 
ATOM     11  C   UNL     1      22.626   1.218  51.552  0.00  0.00    +0.000 C 
ATOM     12  O   UNL     1      22.562   1.803  50.479  0.00  0.00    +0.000 OA
ENDROOT
BRANCH   6  13
ATOM     13  O   UNL     1      20.410  -1.703  54.843  0.00  0.00    +0.000 OA
ATOM     14  H   UNL     1      19.684  -1.702  55.435  0.00  0.00    +0.000 HD
ENDBRANCH   6  13
BRANCH   9  15
ATOM     15  O   UNL     1      20.002   1.406  50.319  0.00  0.00    +0.000 OA
ATOM     16  H   UNL     1      20.546   1.256  49.571  0.00  0.00    +0.000 HD
ENDBRANCH   9  15
BRANCH   1  17
ATOM     17  C   UNL     1      25.160   1.883  51.739  0.00  0.00    +0.000 C 
BRANCH  17  18
ATOM     18  O   UNL     1      24.839   2.710  50.562  0.00  0.00    +0.000 OA
BRANCH  18  19
ATOM     19  C   UNL     1      24.868   4.059  50.694  0.00  0.00    +0.000 C 
ATOM     20  O   UNL     1      24.151   4.705  51.450  0.00  0.00    +0.000 OA
BRANCH  19  22
ATOM     21  C   UNL     1      26.972   4.205  49.246  0.00  0.00    +0.000 C 
ATOM     22  C   UNL     1      25.917   4.740  49.888  0.00  0.00    +0.000 C 
BRANCH  21  24
ATOM     23  C   UNL     1      27.843   6.480  48.303  0.00  0.00    +0.000 C 
ATOM     24  C   UNL     1      28.018   4.969  48.456  0.00  0.00    +0.000 C 
ENDBRANCH  21  24
ENDBRANCH  19  22
ENDBRANCH  18  19
ENDBRANCH  17  18
BRANCH  17  25
ATOM     25  C   UNL     1      26.415   0.998  51.512  0.00  0.00    +0.000 C 
BRANCH  25  26
ATOM     26  C   UNL     1      27.457   0.889  52.590  0.00  0.00    +0.000 C 
ATOM     27  C   UNL     1      27.799  -0.304  53.124  0.00  0.00    +0.000 C 
ATOM     28  C   UNL     1      29.002  -0.438  54.007  0.00  0.00    +0.000 C 
ATOM     29  C   UNL     1      27.078  -1.593  52.799  0.00  0.00    +0.000 C 
ENDBRANCH  25  26
ENDBRANCH  17  25
ENDBRANCH   1  17
TORSDOF 9
ENDMDL
MODEL 8
REMARK VINA RESULT:    -7.882      2.230      6.358
REMARK INTER + INTRA:         -12.703
REMARK INTER:                 -12.160
REMARK INTRA:                  -0.542
REMARK UNBOUND:                -1.135
REMARK  Name = 
REMARK  12 active torsions:
REMARK  status: ('A' for Active; 'I' for Inactive)
REMARK    1  A    between atoms: C_1  and  C_2
REMARK    2  A    between atoms: C_2  and  C_3
REMARK    3  A    between atoms: C_4  and  C_5
REMARK    4  A    between atoms: C_5  and  O_7
REMARK    5  A    between atoms: O_7  and  C_8
REMARK    6  A    between atoms: C_8  and  C_9
REMARK    7  A    between atoms: C_8  and  C_14
REMARK    8  A    between atoms: C_9  and  C_10
REMARK    9  A    between atoms: C_11  and  C_12
REMARK   10  A    between atoms: C_11  and  C_13
REMARK   11  A    between atoms: C_19  and  O_20
REMARK   12  A    between atoms: C_23  and  O_24
REMARK                            x       y       z     vdW  Elec       q    Type
REMARK                         _______ _______ _______ _____ _____    ______ ____
ROOT
ATOM      1  C   UNL     1      23.772   0.605  52.403  0.00  0.00    +0.000 C 
ATOM      2  C   UNL     1      23.203   1.231  51.361  0.00  0.00    +0.000 C 
ATOM      3  C   UNL     1      21.764   1.168  51.064  0.00  0.00    +0.000 C 
ATOM      4  O   UNL     1      21.304   1.772  50.099  0.00  0.00    +0.000 OA
ATOM      5  C   UNL     1      20.890   0.382  51.944  0.00  0.00    +0.000 A 
ATOM      6  C   UNL     1      19.509   0.315  51.688  0.00  0.00    +0.000 A 
ATOM      7  C   UNL     1      18.663  -0.410  52.521  0.00  0.00    +0.000 A 
ATOM      8  C   UNL     1      19.187  -1.087  53.616  0.00  0.00    +0.000 A 
ATOM      9  C   UNL     1      20.558  -1.028  53.873  0.00  0.00    +0.000 A 
ATOM     10  C   UNL     1      21.424  -0.285  53.043  0.00  0.00    +0.000 A 
ATOM     11  C   UNL     1      22.875  -0.164  53.337  0.00  0.00    +0.000 C 
ATOM     12  O   UNL     1      23.323  -0.651  54.365  0.00  0.00    +0.000 OA
ENDROOT
BRANCH   6  13
ATOM     13  O   UNL     1      18.908   0.953  50.636  0.00  0.00    +0.000 OA
ATOM     14  H   UNL     1      17.985   1.109  50.648  0.00  0.00    +0.000 HD
ENDBRANCH   6  13
BRANCH   9  15
ATOM     15  O   UNL     1      21.030  -1.713  54.959  0.00  0.00    +0.000 OA
ATOM     16  H   UNL     1      21.814  -1.431  55.386  0.00  0.00    +0.000 HD
ENDBRANCH   9  15
BRANCH   1  17
ATOM     17  C   UNL     1      25.288   0.659  52.704  0.00  0.00    +0.000 C 
BRANCH  17  18
ATOM     18  O   UNL     1      26.086   1.111  51.551  0.00  0.00    +0.000 OA
BRANCH  18  19
ATOM     19  C   UNL     1      26.788   2.266  51.664  0.00  0.00    +0.000 C 
ATOM     20  O   UNL     1      27.608   2.504  52.544  0.00  0.00    +0.000 OA
BRANCH  19  22
ATOM     21  C   UNL     1      25.447   3.970  50.306  0.00  0.00    +0.000 C 
ATOM     22  C   UNL     1      26.551   3.247  50.572  0.00  0.00    +0.000 C 
BRANCH  21  24
ATOM     23  C   UNL     1      25.555   6.421  49.409  0.00  0.00    +0.000 C 
ATOM     24  C   UNL     1      25.271   4.941  49.154  0.00  0.00    +0.000 C 
ENDBRANCH  21  24
ENDBRANCH  19  22
ENDBRANCH  18  19
ENDBRANCH  17  18
BRANCH  17  25
ATOM     25  C   UNL     1      25.862  -0.631  53.349  0.00  0.00    +0.000 C 
BRANCH  25  26
ATOM     26  C   UNL     1      27.210  -1.141  52.924  0.00  0.00    +0.000 C 
ATOM     27  C   UNL     1      28.327  -0.857  53.630  0.00  0.00    +0.000 C 
ATOM     28  C   UNL     1      29.617  -1.567  53.353  0.00  0.00    +0.000 C 
ATOM     29  C   UNL     1      28.345   0.100  54.800  0.00  0.00    +0.000 C 
ENDBRANCH  25  26
ENDBRANCH  17  25
ENDBRANCH   1  17
TORSDOF 9
ENDMDL
MODEL 9
REMARK VINA RESULT:    -7.700      2.768      6.860
REMARK INTER + INTRA:         -12.436
REMARK INTER:                 -11.162
REMARK INTRA:                  -1.274
REMARK UNBOUND:                -1.135
REMARK  Name = 
REMARK  12 active torsions:
REMARK  status: ('A' for Active; 'I' for Inactive)
REMARK    1  A    between atoms: C_1  and  C_2
REMARK    2  A    between atoms: C_2  and  C_3
REMARK    3  A    between atoms: C_4  and  C_5
REMARK    4  A    between atoms: C_5  and  O_7
REMARK    5  A    between atoms: O_7  and  C_8
REMARK    6  A    between atoms: C_8  and  C_9
REMARK    7  A    between atoms: C_8  and  C_14
REMARK    8  A    between atoms: C_9  and  C_10
REMARK    9  A    between atoms: C_11  and  C_12
REMARK   10  A    between atoms: C_11  and  C_13
REMARK   11  A    between atoms: C_19  and  O_20
REMARK   12  A    between atoms: C_23  and  O_24
REMARK                            x       y       z     vdW  Elec       q    Type
REMARK                         _______ _______ _______ _____ _____    ______ ____
ROOT
ATOM      1  C   UNL     1      24.652   3.856  50.754  0.00  0.00    +0.000 C 
ATOM      2  C   UNL     1      23.977   4.960  51.109  0.00  0.00    +0.000 C 
ATOM      3  C   UNL     1      24.385   6.319  50.722  0.00  0.00    +0.000 C 
ATOM      4  O   UNL     1      23.717   7.289  51.072  0.00  0.00    +0.000 OA
ATOM      5  C   UNL     1      25.593   6.495  49.906  0.00  0.00    +0.000 A 
ATOM      6  C   UNL     1      25.996   7.783  49.513  0.00  0.00    +0.000 A 
ATOM      7  C   UNL     1      27.128   7.967  48.725  0.00  0.00    +0.000 A 
ATOM      8  C   UNL     1      27.877   6.866  48.326  0.00  0.00    +0.000 A 
ATOM      9  C   UNL     1      27.483   5.584  48.715  0.00  0.00    +0.000 A 
ATOM     10  C   UNL     1      26.330   5.384  49.504  0.00  0.00    +0.000 A 
ATOM     11  C   UNL     1      25.864   4.024  49.876  0.00  0.00    +0.000 C 
ATOM     12  O   UNL     1      26.444   3.046  49.425  0.00  0.00    +0.000 OA
ENDROOT
BRANCH   6  13
ATOM     13  O   UNL     1      25.318   8.920  49.858  0.00  0.00    +0.000 OA
ATOM     14  H   UNL     1      25.453   9.311  50.698  0.00  0.00    +0.000 HD
ENDBRANCH   6  13
BRANCH   9  15
ATOM     15  O   UNL     1      28.252   4.532  48.302  0.00  0.00    +0.000 OA
ATOM     16  H   UNL     1      29.034   4.312  48.768  0.00  0.00    +0.000 HD
ENDBRANCH   9  15
BRANCH   1  17
ATOM     17  C   UNL     1      24.231   2.428  51.174  0.00  0.00    +0.000 C 
BRANCH  17  18
ATOM     18  O   UNL     1      22.786   2.312  51.439  0.00  0.00    +0.000 OA
BRANCH  18  19
ATOM     19  C   UNL     1      22.163   1.150  51.117  0.00  0.00    +0.000 C 
ATOM     20  O   UNL     1      21.835   0.822  49.982  0.00  0.00    +0.000 OA
BRANCH  19  22
ATOM     21  C   UNL     1      21.857   0.501  53.573  0.00  0.00    +0.000 C 
ATOM     22  C   UNL     1      21.953   0.221  52.259  0.00  0.00    +0.000 C 
BRANCH  21  24
ATOM     23  C   UNL     1      21.056  -1.866  54.334  0.00  0.00    +0.000 C 
ATOM     24  C   UNL     1      21.662  -0.509  54.688  0.00  0.00    +0.000 C 
ENDBRANCH  21  24
ENDBRANCH  19  22
ENDBRANCH  18  19
ENDBRANCH  17  18
BRANCH  17  25
ATOM     25  C   UNL     1      25.090   1.813  52.311  0.00  0.00    +0.000 C 
BRANCH  25  26
ATOM     26  C   UNL     1      25.969   0.628  52.026  0.00  0.00    +0.000 C 
ATOM     27  C   UNL     1      26.062  -0.406  52.890  0.00  0.00    +0.000 C 
ATOM     28  C   UNL     1      26.733  -1.686  52.493  0.00  0.00    +0.000 C 
ATOM     29  C   UNL     1      25.422  -0.401  54.260  0.00  0.00    +0.000 C 
ENDBRANCH  25  26
ENDBRANCH  17  25
ENDBRANCH   1  17
TORSDOF 9
ENDMDL
