MODEL 1
REMARK VINA RESULT:    -7.957      0.000      0.000
REMARK INTER + INTRA:         -10.529
REMARK INTER:                 -10.050
REMARK INTRA:                  -0.479
REMARK UNBOUND:                -0.479
REMARK  Name = 
REMARK  7 active torsions:
REMARK  status: ('A' for Active; 'I' for Inactive)
REMARK    1  A    between atoms: C_1  and  C_2
REMARK    2  A    between atoms: C_2  and  C_3
REMARK    3  A    between atoms: C_5  and  N_6
REMARK    4  A    between atoms: N_6  and  C_7
REMARK    5  A    between atoms: C_7  and  C_8
REMARK    6  A    between atoms: C_19  and  O_20
REMARK    7  A    between atoms: C_22  and  C_23
REMARK                            x       y       z     vdW  Elec       q    Type
REMARK                         _______ _______ _______ _____ _____    ______ ____
ROOT
ATOM      1  N   UNL     1      23.973   3.022  51.851  0.00  0.00    +0.000 N 
ATOM      2  H   UNL     1      23.366   2.419  51.364  0.00  0.00    +0.000 HD
ENDROOT
BRANCH   1   5
ATOM      3  C   UNL     1      25.552   5.768  49.808  0.00  0.00    +0.000 A 
ATOM      4  C   UNL     1      25.281   4.479  50.320  0.00  0.00    +0.000 A 
ATOM      5  C   UNL     1      24.322   4.277  51.313  0.00  0.00    +0.000 A 
ATOM      6  C   UNL     1      23.616   5.428  51.686  0.00  0.00    +0.000 A 
ATOM      7  N   UNL     1      23.838   6.676  51.238  0.00  0.00    +0.000 NA
ATOM      8  C   UNL     1      24.810   6.844  50.309  0.00  0.00    +0.000 A 
ATOM      9  C   UNL     1      24.975   8.262  49.842  0.00  0.00    +0.000 C 
BRANCH   3  11
ATOM     10  C   UNL     1      27.528   4.680  48.712  0.00  0.00    +0.000 C 
ATOM     11  C   UNL     1      26.653   5.925  48.789  0.00  0.00    +0.000 C 
ENDBRANCH   3  11
BRANCH   6  12
ATOM     12  O   UNL     1      22.559   5.310  52.552  0.00  0.00    +0.000 OA
ATOM     13  H   UNL     1      22.679   5.479  53.465  0.00  0.00    +0.000 HD
ENDBRANCH   6  12
ENDBRANCH   1   5
BRANCH   1  14
ATOM     14  C   UNL     1      24.534   2.629  53.153  0.00  0.00    +0.000 C 
BRANCH  14  15
ATOM     15  C   UNL     1      25.686   1.661  53.118  0.00  0.00    +0.000 A 
ATOM     16  N   UNL     1      25.715   0.399  52.722  0.00  0.00    +0.000 NA
ATOM     17  C   UNL     1      27.002  -0.013  53.020  0.00  0.00    +0.000 A 
ATOM     18  C   UNL     1      27.683  -1.232  52.875  0.00  0.00    +0.000 A 
ATOM     19 CL   UNL     1      26.812  -2.521  52.175  0.00  0.00    +0.000 Cl
ATOM     20  C   UNL     1      29.006  -1.367  53.303  0.00  0.00    +0.000 A 
ATOM     21  C   UNL     1      29.671  -0.275  53.872  0.00  0.00    +0.000 A 
ATOM     22  C   UNL     1      29.028   0.961  54.019  0.00  0.00    +0.000 A 
ATOM     23 CL   UNL     1      29.844   2.296  54.716  0.00  0.00    +0.000 Cl
ATOM     24  C   UNL     1      27.704   1.042  53.588  0.00  0.00    +0.000 A 
ATOM     25  O   UNL     1      26.864   2.118  53.649  0.00  0.00    +0.000 OA
ENDBRANCH  14  15
ENDBRANCH   1  14
TORSDOF 5
ENDMDL
MODEL 2
REMARK VINA RESULT:    -7.899      3.728      7.165
REMARK INTER + INTRA:         -10.455
REMARK INTER:                  -9.891
REMARK INTRA:                  -0.565
REMARK UNBOUND:                -0.479
REMARK  Name = 
REMARK  7 active torsions:
REMARK  status: ('A' for Active; 'I' for Inactive)
REMARK    1  A    between atoms: C_1  and  C_2
REMARK    2  A    between atoms: C_2  and  C_3
REMARK    3  A    between atoms: C_5  and  N_6
REMARK    4  A    between atoms: N_6  and  C_7
REMARK    5  A    between atoms: C_7  and  C_8
REMARK    6  A    between atoms: C_19  and  O_20
REMARK    7  A    between atoms: C_22  and  C_23
REMARK                            x       y       z     vdW  Elec       q    Type
REMARK                         _______ _______ _______ _____ _____    ______ ____
ROOT
ATOM      1  N   UNL     1      25.886   2.367  53.450  0.00  0.00    +0.000 N 
ATOM      2  H   UNL     1      25.615   2.863  54.256  0.00  0.00    +0.000 HD
ENDROOT
BRANCH   1   5
ATOM      3  C   UNL     1      27.772  -0.886  53.194  0.00  0.00    +0.000 A 
ATOM      4  C   UNL     1      26.713   0.046  53.123  0.00  0.00    +0.000 A 
ATOM      5  C   UNL     1      26.882   1.372  53.520  0.00  0.00    +0.000 A 
ATOM      6  C   UNL     1      28.187   1.704  53.908  0.00  0.00    +0.000 A 
ATOM      7  N   UNL     1      29.227   0.857  54.001  0.00  0.00    +0.000 NA
ATOM      8  C   UNL     1      29.015  -0.435  53.653  0.00  0.00    +0.000 A 
ATOM      9  C   UNL     1      30.234  -1.307  53.760  0.00  0.00    +0.000 C 
BRANCH   3  11
ATOM     10  C   UNL     1      26.415  -2.428  51.756  0.00  0.00    +0.000 C 
ATOM     11  C   UNL     1      27.500  -2.322  52.820  0.00  0.00    +0.000 C 
ENDBRANCH   3  11
BRANCH   6  12
ATOM     12  O   UNL     1      28.488   3.013  54.181  0.00  0.00    +0.000 OA
ATOM     13  H   UNL     1      28.155   3.696  53.632  0.00  0.00    +0.000 HD
ENDBRANCH   6  12
ENDBRANCH   1   5
BRANCH   1  14
ATOM     14  C   UNL     1      25.261   2.651  52.148  0.00  0.00    +0.000 C 
BRANCH  14  15
ATOM     15  C   UNL     1      23.923   2.007  51.897  0.00  0.00    +0.000 A 
ATOM     16  N   UNL     1      23.189   1.990  50.797  0.00  0.00    +0.000 NA
ATOM     17  C   UNL     1      22.024   1.354  51.186  0.00  0.00    +0.000 A 
ATOM     18  C   UNL     1      20.832   1.029  50.517  0.00  0.00    +0.000 A 
ATOM     19 CL   UNL     1      20.733   1.459  48.869  0.00  0.00    +0.000 Cl
ATOM     20  C   UNL     1      19.785   0.394  51.190  0.00  0.00    +0.000 A 
ATOM     21  C   UNL     1      19.922   0.065  52.543  0.00  0.00    +0.000 A 
ATOM     22  C   UNL     1      21.101   0.362  53.239  0.00  0.00    +0.000 A 
ATOM     23 CL   UNL     1      21.266  -0.041  54.895  0.00  0.00    +0.000 Cl
ATOM     24  C   UNL     1      22.113   1.006  52.527  0.00  0.00    +0.000 A 
ATOM     25  O   UNL     1      23.332   1.420  52.986  0.00  0.00    +0.000 OA
ENDBRANCH  14  15
ENDBRANCH   1  14
TORSDOF 5
ENDMDL
MODEL 3
REMARK VINA RESULT:    -7.872      3.121      5.532
REMARK INTER + INTRA:         -10.421
REMARK INTER:                  -9.870
REMARK INTRA:                  -0.551
REMARK UNBOUND:                -0.479
REMARK  Name = 
REMARK  7 active torsions:
REMARK  status: ('A' for Active; 'I' for Inactive)
REMARK    1  A    between atoms: C_1  and  C_2
REMARK    2  A    between atoms: C_2  and  C_3
REMARK    3  A    between atoms: C_5  and  N_6
REMARK    4  A    between atoms: N_6  and  C_7
REMARK    5  A    between atoms: C_7  and  C_8
REMARK    6  A    between atoms: C_19  and  O_20
REMARK    7  A    between atoms: C_22  and  C_23
REMARK                            x       y       z     vdW  Elec       q    Type
REMARK                         _______ _______ _______ _____ _____    ______ ____
ROOT
ATOM      1  N   UNL     1      23.786   2.000  51.551  0.00  0.00    +0.000 N 
ATOM      2  H   UNL     1      24.153   2.111  50.644  0.00  0.00    +0.000 HD
ENDROOT
BRANCH   1   5
ATOM      3  C   UNL     1      21.004  -0.129  52.942  0.00  0.00    +0.000 A 
ATOM      4  C   UNL     1      22.280   0.459  52.789  0.00  0.00    +0.000 A 
ATOM      5  C   UNL     1      22.552   1.349  51.751  0.00  0.00    +0.000 A 
ATOM      6  C   UNL     1      21.449   1.661  50.945  0.00  0.00    +0.000 A 
ATOM      7  N   UNL     1      20.219   1.127  51.041  0.00  0.00    +0.000 NA
ATOM      8  C   UNL     1      20.003   0.228  52.032  0.00  0.00    +0.000 A 
ATOM      9  C   UNL     1      18.597  -0.299  52.086  0.00  0.00    +0.000 C 
BRANCH   3  11
ATOM     10  C   UNL     1      22.092  -1.412  54.802  0.00  0.00    +0.000 C 
ATOM     11  C   UNL     1      20.800  -1.141  54.043  0.00  0.00    +0.000 C 
ENDBRANCH   3  11
BRANCH   6  12
ATOM     12  O   UNL     1      21.579   2.632  49.986  0.00  0.00    +0.000 OA
ATOM     13  H   UNL     1      21.938   2.418  49.147  0.00  0.00    +0.000 HD
ENDBRANCH   6  12
ENDBRANCH   1   5
BRANCH   1  14
ATOM     14  C   UNL     1      24.516   2.510  52.723  0.00  0.00    +0.000 C 
BRANCH  14  15
ATOM     15  C   UNL     1      25.778   1.778  53.092  0.00  0.00    +0.000 A 
ATOM     16  N   UNL     1      26.887   2.236  53.649  0.00  0.00    +0.000 NA
ATOM     17  C   UNL     1      27.737   1.146  53.643  0.00  0.00    +0.000 A 
ATOM     18  C   UNL     1      29.062   0.953  54.067  0.00  0.00    +0.000 A 
ATOM     19 CL   UNL     1      29.850   2.295  54.764  0.00  0.00    +0.000 Cl
ATOM     20  C   UNL     1      29.691  -0.285  53.905  0.00  0.00    +0.000 A 
ATOM     21  C   UNL     1      28.996  -1.351  53.326  0.00  0.00    +0.000 A 
ATOM     22  C   UNL     1      27.669  -1.199  52.903  0.00  0.00    +0.000 A 
ATOM     23 CL   UNL     1      26.819  -2.506  52.194  0.00  0.00    +0.000 Cl
ATOM     24  C   UNL     1      27.088   0.057  53.076  0.00  0.00    +0.000 A 
ATOM     25  O   UNL     1      25.830   0.458  52.725  0.00  0.00    +0.000 OA
ENDBRANCH  14  15
ENDBRANCH   1  14
TORSDOF 5
ENDMDL
MODEL 4
REMARK VINA RESULT:    -7.792      3.082      5.027
REMARK INTER + INTRA:         -10.321
REMARK INTER:                  -9.869
REMARK INTRA:                  -0.451
REMARK UNBOUND:                -0.479
REMARK  Name = 
REMARK  7 active torsions:
REMARK  status: ('A' for Active; 'I' for Inactive)
REMARK    1  A    between atoms: C_1  and  C_2
REMARK    2  A    between atoms: C_2  and  C_3
REMARK    3  A    between atoms: C_5  and  N_6
REMARK    4  A    between atoms: N_6  and  C_7
REMARK    5  A    between atoms: C_7  and  C_8
REMARK    6  A    between atoms: C_19  and  O_20
REMARK    7  A    between atoms: C_22  and  C_23
REMARK                            x       y       z     vdW  Elec       q    Type
REMARK                         _______ _______ _______ _____ _____    ______ ____
ROOT
ATOM      1  N   UNL     1      23.596   2.594  52.147  0.00  0.00    +0.000 N 
ATOM      2  H   UNL     1      23.752   3.109  51.323  0.00  0.00    +0.000 HD
ENDROOT
BRANCH   1   5
ATOM      3  C   UNL     1      21.066   0.081  53.367  0.00  0.00    +0.000 A 
ATOM      4  C   UNL     1      22.264   0.826  53.275  0.00  0.00    +0.000 A 
ATOM      5  C   UNL     1      22.447   1.790  52.285  0.00  0.00    +0.000 A 
ATOM      6  C   UNL     1      21.332   2.002  51.463  0.00  0.00    +0.000 A 
ATOM      7  N   UNL     1      20.175   1.319  51.502  0.00  0.00    +0.000 NA
ATOM      8  C   UNL     1      20.049   0.356  52.446  0.00  0.00    +0.000 A 
ATOM      9  C   UNL     1      18.717  -0.340  52.439  0.00  0.00    +0.000 C 
BRANCH   3  11
ATOM     10  C   UNL     1      22.335  -1.407  54.937  0.00  0.00    +0.000 C 
ATOM     11  C   UNL     1      20.964  -0.998  54.416  0.00  0.00    +0.000 C 
ENDBRANCH   3  11
BRANCH   6  12
ATOM     12  O   UNL     1      21.363   3.026  50.551  0.00  0.00    +0.000 OA
ATOM     13  H   UNL     1      22.067   3.086  49.936  0.00  0.00    +0.000 HD
ENDBRANCH   6  12
ENDBRANCH   1   5
BRANCH   1  14
ATOM     14  C   UNL     1      24.558   2.650  53.259  0.00  0.00    +0.000 C 
BRANCH  14  15
ATOM     15  C   UNL     1      25.711   1.685  53.192  0.00  0.00    +0.000 A 
ATOM     16  N   UNL     1      25.736   0.429  52.779  0.00  0.00    +0.000 NA
ATOM     17  C   UNL     1      27.028   0.015  53.051  0.00  0.00    +0.000 A 
ATOM     18  C   UNL     1      27.708  -1.201  52.879  0.00  0.00    +0.000 A 
ATOM     19 CL   UNL     1      26.829  -2.481  52.174  0.00  0.00    +0.000 Cl
ATOM     20  C   UNL     1      29.038  -1.339  53.285  0.00  0.00    +0.000 A 
ATOM     21  C   UNL     1      29.710  -0.255  53.858  0.00  0.00    +0.000 A 
ATOM     22  C   UNL     1      29.067   0.978  54.033  0.00  0.00    +0.000 A 
ATOM     23 CL   UNL     1      29.892   2.305  54.736  0.00  0.00    +0.000 Cl
ATOM     24  C   UNL     1      27.737   1.063  53.623  0.00  0.00    +0.000 A 
ATOM     25  O   UNL     1      26.897   2.137  53.712  0.00  0.00    +0.000 OA
ENDBRANCH  14  15
ENDBRANCH   1  14
TORSDOF 5
ENDMDL
MODEL 5
REMARK VINA RESULT:    -7.790      1.826      3.059
REMARK INTER + INTRA:         -10.318
REMARK INTER:                  -9.854
REMARK INTRA:                  -0.464
REMARK UNBOUND:                -0.479
REMARK  Name = 
REMARK  7 active torsions:
REMARK  status: ('A' for Active; 'I' for Inactive)
REMARK    1  A    between atoms: C_1  and  C_2
REMARK    2  A    between atoms: C_2  and  C_3
REMARK    3  A    between atoms: C_5  and  N_6
REMARK    4  A    between atoms: N_6  and  C_7
REMARK    5  A    between atoms: C_7  and  C_8
REMARK    6  A    between atoms: C_19  and  O_20
REMARK    7  A    between atoms: C_22  and  C_23
REMARK                            x       y       z     vdW  Elec       q    Type
REMARK                         _______ _______ _______ _____ _____    ______ ____
ROOT
ATOM      1  N   UNL     1      24.339   3.736  52.696  0.00  0.00    +0.000 N 
ATOM      2  H   UNL     1      24.609   4.353  53.413  0.00  0.00    +0.000 HD
ENDROOT
BRANCH   1   5
ATOM      3  C   UNL     1      23.152   4.020  49.130  0.00  0.00    +0.000 A 
ATOM      4  C   UNL     1      23.493   3.449  50.377  0.00  0.00    +0.000 A 
ATOM      5  C   UNL     1      24.006   4.224  51.416  0.00  0.00    +0.000 A 
ATOM      6  C   UNL     1      24.072   5.597  51.144  0.00  0.00    +0.000 A 
ATOM      7  N   UNL     1      23.769   6.190  49.976  0.00  0.00    +0.000 NA
ATOM      8  C   UNL     1      23.319   5.400  48.971  0.00  0.00    +0.000 A 
ATOM      9  C   UNL     1      22.978   6.145  47.711  0.00  0.00    +0.000 C 
BRANCH   3  11
ATOM     10  C   UNL     1      22.136   1.796  48.572  0.00  0.00    +0.000 C 
ATOM     11  C   UNL     1      22.673   3.111  48.024  0.00  0.00    +0.000 C 
ENDBRANCH   3  11
BRANCH   6  12
ATOM     12  O   UNL     1      24.429   6.459  52.148  0.00  0.00    +0.000 OA
ATOM     13  H   UNL     1      23.779   6.787  52.738  0.00  0.00    +0.000 HD
ENDBRANCH   6  12
ENDBRANCH   1   5
BRANCH   1  14
ATOM     14  C   UNL     1      24.274   2.286  52.939  0.00  0.00    +0.000 C 
BRANCH  14  15
ATOM     15  C   UNL     1      25.582   1.601  53.230  0.00  0.00    +0.000 A 
ATOM     16  N   UNL     1      26.694   2.093  53.752  0.00  0.00    +0.000 NA
ATOM     17  C   UNL     1      27.590   1.041  53.677  0.00  0.00    +0.000 A 
ATOM     18  C   UNL     1      28.940   0.896  54.037  0.00  0.00    +0.000 A 
ATOM     19 CL   UNL     1      29.699   2.252  54.738  0.00  0.00    +0.000 Cl
ATOM     20  C   UNL     1      29.613  -0.308  53.810  0.00  0.00    +0.000 A 
ATOM     21  C   UNL     1      28.939  -1.387  53.230  0.00  0.00    +0.000 A 
ATOM     22  C   UNL     1      27.589  -1.283  52.871  0.00  0.00    +0.000 A 
ATOM     23 CL   UNL     1      26.766  -2.606  52.160  0.00  0.00    +0.000 Cl
ATOM     24  C   UNL     1      26.963  -0.059  53.106  0.00  0.00    +0.000 A 
ATOM     25  O   UNL     1      25.675   0.295  52.822  0.00  0.00    +0.000 OA
ENDBRANCH  14  15
ENDBRANCH   1  14
TORSDOF 5
ENDMDL
MODEL 6
REMARK VINA RESULT:    -7.656      3.417      7.604
REMARK INTER + INTRA:         -10.148
REMARK INTER:                  -9.391
REMARK INTRA:                  -0.757
REMARK UNBOUND:                -0.479
REMARK  Name = 
REMARK  7 active torsions:
REMARK  status: ('A' for Active; 'I' for Inactive)
REMARK    1  A    between atoms: C_1  and  C_2
REMARK    2  A    between atoms: C_2  and  C_3
REMARK    3  A    between atoms: C_5  and  N_6
REMARK    4  A    between atoms: N_6  and  C_7
REMARK    5  A    between atoms: C_7  and  C_8
REMARK    6  A    between atoms: C_19  and  O_20
REMARK    7  A    between atoms: C_22  and  C_23
REMARK                            x       y       z     vdW  Elec       q    Type
REMARK                         _______ _______ _______ _____ _____    ______ ____
ROOT
ATOM      1  N   UNL     1      24.710   3.967  52.173  0.00  0.00    +0.000 N 
ATOM      2  H   UNL     1      24.898   4.650  52.856  0.00  0.00    +0.000 HD
ENDROOT
BRANCH   1   5
ATOM      3  C   UNL     1      24.696   0.293  53.014  0.00  0.00    +0.000 A 
ATOM      4  C   UNL     1      24.251   1.627  52.870  0.00  0.00    +0.000 A 
ATOM      5  C   UNL     1      25.090   2.625  52.376  0.00  0.00    +0.000 A 
ATOM      6  C   UNL     1      26.354   2.178  51.970  0.00  0.00    +0.000 A 
ATOM      7  N   UNL     1      26.830   0.927  52.091  0.00  0.00    +0.000 NA
ATOM      8  C   UNL     1      26.005  -0.009  52.621  0.00  0.00    +0.000 A 
ATOM      9  C   UNL     1      26.605  -1.384  52.696  0.00  0.00    +0.000 C 
BRANCH   3  11
ATOM     10  C   UNL     1      22.393  -0.697  52.957  0.00  0.00    +0.000 C 
ATOM     11  C   UNL     1      23.761  -0.720  53.626  0.00  0.00    +0.000 C 
ENDBRANCH   3  11
BRANCH   6  12
ATOM     12  O   UNL     1      27.200   3.055  51.340  0.00  0.00    +0.000 OA
ATOM     13  H   UNL     1      28.097   2.823  51.201  0.00  0.00    +0.000 HD
ENDBRANCH   6  12
ENDBRANCH   1   5
BRANCH   1  14
ATOM     14  C   UNL     1      24.030   4.329  50.919  0.00  0.00    +0.000 C 
BRANCH  14  15
ATOM     15  C   UNL     1      24.691   5.394  50.086  0.00  0.00    +0.000 A 
ATOM     16  N   UNL     1      24.188   6.517  49.600  0.00  0.00    +0.000 NA
ATOM     17  C   UNL     1      25.213   7.033  48.827  0.00  0.00    +0.000 A 
ATOM     18  C   UNL     1      25.336   8.182  48.029  0.00  0.00    +0.000 A 
ATOM     19 CL   UNL     1      23.985   9.220  47.962  0.00  0.00    +0.000 Cl
ATOM     20  C   UNL     1      26.513   8.436  47.320  0.00  0.00    +0.000 A 
ATOM     21  C   UNL     1      27.591   7.549  47.412  0.00  0.00    +0.000 A 
ATOM     22  C   UNL     1      27.508   6.400  48.210  0.00  0.00    +0.000 A 
ATOM     23 CL   UNL     1      28.828   5.314  48.320  0.00  0.00    +0.000 Cl
ATOM     24  C   UNL     1      26.309   6.183  48.888  0.00  0.00    +0.000 A 
ATOM     25  O   UNL     1      25.979   5.133  49.698  0.00  0.00    +0.000 OA
ENDBRANCH  14  15
ENDBRANCH   1  14
TORSDOF 5
ENDMDL
MODEL 7
REMARK VINA RESULT:    -7.651      3.489      7.600
REMARK INTER + INTRA:         -10.142
REMARK INTER:                  -9.439
REMARK INTRA:                  -0.704
REMARK UNBOUND:                -0.479
REMARK  Name = 
REMARK  7 active torsions:
REMARK  status: ('A' for Active; 'I' for Inactive)
REMARK    1  A    between atoms: C_1  and  C_2
REMARK    2  A    between atoms: C_2  and  C_3
REMARK    3  A    between atoms: C_5  and  N_6
REMARK    4  A    between atoms: N_6  and  C_7
REMARK    5  A    between atoms: C_7  and  C_8
REMARK    6  A    between atoms: C_19  and  O_20
REMARK    7  A    between atoms: C_22  and  C_23
REMARK                            x       y       z     vdW  Elec       q    Type
REMARK                         _______ _______ _______ _____ _____    ______ ____
ROOT
ATOM      1  N   UNL     1      24.674   3.989  51.875  0.00  0.00    +0.000 N 
ATOM      2  H   UNL     1      24.757   4.707  52.544  0.00  0.00    +0.000 HD
ENDROOT
BRANCH   1   5
ATOM      3  C   UNL     1      24.565   0.366  52.907  0.00  0.00    +0.000 A 
ATOM      4  C   UNL     1      24.137   1.685  52.636  0.00  0.00    +0.000 A 
ATOM      5  C   UNL     1      25.029   2.663  52.197  0.00  0.00    +0.000 A 
ATOM      6  C   UNL     1      26.335   2.208  51.979  0.00  0.00    +0.000 A 
ATOM      7  N   UNL     1      26.796   0.970  52.228  0.00  0.00    +0.000 NA
ATOM      8  C   UNL     1      25.914   0.056  52.699  0.00  0.00    +0.000 A 
ATOM      9  C   UNL     1      26.503  -1.307  52.924  0.00  0.00    +0.000 C 
BRANCH   3  11
ATOM     10  C   UNL     1      22.183   0.004  53.604  0.00  0.00    +0.000 C 
ATOM     11  C   UNL     1      23.563  -0.623  53.450  0.00  0.00    +0.000 C 
ENDBRANCH   3  11
BRANCH   6  12
ATOM     12  O   UNL     1      27.252   3.058  51.415  0.00  0.00    +0.000 OA
ATOM     13  H   UNL     1      28.018   3.307  51.894  0.00  0.00    +0.000 HD
ENDBRANCH   6  12
ENDBRANCH   1   5
BRANCH   1  14
ATOM     14  C   UNL     1      24.180   4.281  50.521  0.00  0.00    +0.000 C 
BRANCH  14  15
ATOM     15  C   UNL     1      25.099   5.076  49.633  0.00  0.00    +0.000 A 
ATOM     16  N   UNL     1      26.393   4.922  49.405  0.00  0.00    +0.000 NA
ATOM     17  C   UNL     1      26.720   6.000  48.603  0.00  0.00    +0.000 A 
ATOM     18  C   UNL     1      27.920   6.443  48.022  0.00  0.00    +0.000 A 
ATOM     19 CL   UNL     1      29.308   5.493  48.306  0.00  0.00    +0.000 Cl
ATOM     20  C   UNL     1      27.956   7.616  47.264  0.00  0.00    +0.000 A 
ATOM     21  C   UNL     1      26.786   8.356  47.064  0.00  0.00    +0.000 A 
ATOM     22  C   UNL     1      25.569   7.937  47.617  0.00  0.00    +0.000 A 
ATOM     23 CL   UNL     1      24.137   8.845  47.372  0.00  0.00    +0.000 Cl
ATOM     24  C   UNL     1      25.585   6.767  48.375  0.00  0.00    +0.000 A 
ATOM     25  O   UNL     1      24.543   6.175  49.031  0.00  0.00    +0.000 OA
ENDBRANCH  14  15
ENDBRANCH   1  14
TORSDOF 5
ENDMDL
MODEL 8
REMARK VINA RESULT:    -7.639      5.034      6.962
REMARK INTER + INTRA:         -10.127
REMARK INTER:                  -9.320
REMARK INTRA:                  -0.807
REMARK UNBOUND:                -0.479
REMARK  Name = 
REMARK  7 active torsions:
REMARK  status: ('A' for Active; 'I' for Inactive)
REMARK    1  A    between atoms: C_1  and  C_2
REMARK    2  A    between atoms: C_2  and  C_3
REMARK    3  A    between atoms: C_5  and  N_6
REMARK    4  A    between atoms: N_6  and  C_7
REMARK    5  A    between atoms: C_7  and  C_8
REMARK    6  A    between atoms: C_19  and  O_20
REMARK    7  A    between atoms: C_22  and  C_23
REMARK                            x       y       z     vdW  Elec       q    Type
REMARK                         _______ _______ _______ _____ _____    ______ ____
ROOT
ATOM      1  N   UNL     1      21.446  -0.236  54.463  0.00  0.00    +0.000 N 
ATOM      2  H   UNL     1      21.426   0.381  55.230  0.00  0.00    +0.000 HD
ENDROOT
BRANCH   1   5
ATOM      3  C   UNL     1      18.198  -1.067  52.741  0.00  0.00    +0.000 A 
ATOM      4  C   UNL     1      19.251  -1.100  53.684  0.00  0.00    +0.000 A 
ATOM      5  C   UNL     1      20.373  -0.284  53.550  0.00  0.00    +0.000 A 
ATOM      6  C   UNL     1      20.324   0.606  52.470  0.00  0.00    +0.000 A 
ATOM      7  N   UNL     1      19.354   0.674  51.541  0.00  0.00    +0.000 NA
ATOM      8  C   UNL     1      18.300  -0.167  51.674  0.00  0.00    +0.000 A 
ATOM      9  C   UNL     1      17.250  -0.007  50.611  0.00  0.00    +0.000 C 
BRANCH   3  11
ATOM     10  C   UNL     1      17.476  -3.294  53.640  0.00  0.00    +0.000 C 
ATOM     11  C   UNL     1      17.049  -2.030  52.905  0.00  0.00    +0.000 C 
ENDBRANCH   3  11
BRANCH   6  12
ATOM     12  O   UNL     1      21.314   1.546  52.335  0.00  0.00    +0.000 OA
ATOM     13  H   UNL     1      21.780   1.624  51.525  0.00  0.00    +0.000 HD
ENDBRANCH   6  12
ENDBRANCH   1   5
BRANCH   1  14
ATOM     14  C   UNL     1      22.598  -1.127  54.250  0.00  0.00    +0.000 C 
BRANCH  14  15
ATOM     15  C   UNL     1      23.881  -0.466  53.822  0.00  0.00    +0.000 A 
ATOM     16  N   UNL     1      25.086  -0.534  54.363  0.00  0.00    +0.000 NA
ATOM     17  C   UNL     1      25.835   0.359  53.619  0.00  0.00    +0.000 A 
ATOM     18  C   UNL     1      27.175   0.778  53.677  0.00  0.00    +0.000 A 
ATOM     19 CL   UNL     1      28.152   0.067  54.880  0.00  0.00    +0.000 Cl
ATOM     20  C   UNL     1      27.660   1.743  52.790  0.00  0.00    +0.000 A 
ATOM     21  C   UNL     1      26.812   2.292  51.822  0.00  0.00    +0.000 A 
ATOM     22  C   UNL     1      25.474   1.888  51.727  0.00  0.00    +0.000 A 
ATOM     23 CL   UNL     1      24.437   2.563  50.542  0.00  0.00    +0.000 Cl
ATOM     24  C   UNL     1      25.033   0.932  52.641  0.00  0.00    +0.000 A 
ATOM     25  O   UNL     1      23.780   0.402  52.765  0.00  0.00    +0.000 OA
ENDBRANCH  14  15
ENDBRANCH   1  14
TORSDOF 5
ENDMDL
MODEL 9
REMARK VINA RESULT:    -7.619      3.574      7.622
REMARK INTER + INTRA:         -10.102
REMARK INTER:                  -9.467
REMARK INTRA:                  -0.635
REMARK UNBOUND:                -0.479
REMARK  Name = 
REMARK  7 active torsions:
REMARK  status: ('A' for Active; 'I' for Inactive)
REMARK    1  A    between atoms: C_1  and  C_2
REMARK    2  A    between atoms: C_2  and  C_3
REMARK    3  A    between atoms: C_5  and  N_6
REMARK    4  A    between atoms: N_6  and  C_7
REMARK    5  A    between atoms: C_7  and  C_8
REMARK    6  A    between atoms: C_19  and  O_20
REMARK    7  A    between atoms: C_22  and  C_23
REMARK                            x       y       z     vdW  Elec       q    Type
REMARK                         _______ _______ _______ _____ _____    ______ ____
ROOT
ATOM      1  N   UNL     1      27.125   3.137  50.975  0.00  0.00    +0.000 N 
ATOM      2  H   UNL     1      27.857   3.610  51.433  0.00  0.00    +0.000 HD
ENDROOT
BRANCH   1   5
ATOM      3  C   UNL     1      26.019  -0.065  52.627  0.00  0.00    +0.000 A 
ATOM      4  C   UNL     1      26.820   0.858  51.917  0.00  0.00    +0.000 A 
ATOM      5  C   UNL     1      26.374   2.152  51.647  0.00  0.00    +0.000 A 
ATOM      6  C   UNL     1      25.127   2.468  52.201  0.00  0.00    +0.000 A 
ATOM      7  N   UNL     1      24.323   1.629  52.876  0.00  0.00    +0.000 NA
ATOM      8  C   UNL     1      24.765   0.364  53.079  0.00  0.00    +0.000 A 
ATOM      9  C   UNL     1      23.819  -0.499  53.863  0.00  0.00    +0.000 C 
BRANCH   3  11
ATOM     10  C   UNL     1      28.029  -1.489  53.098  0.00  0.00    +0.000 C 
ATOM     11  C   UNL     1      26.531  -1.471  52.819  0.00  0.00    +0.000 C 
ENDBRANCH   3  11
BRANCH   6  12
ATOM     12  O   UNL     1      24.666   3.756  52.112  0.00  0.00    +0.000 OA
ATOM     13  H   UNL     1      24.310   4.180  52.868  0.00  0.00    +0.000 HD
ENDBRANCH   6  12
ENDBRANCH   1   5
BRANCH   1  14
ATOM     14  C   UNL     1      26.795   3.446  49.574  0.00  0.00    +0.000 C 
BRANCH  14  15
ATOM     15  C   UNL     1      26.698   4.906  49.219  0.00  0.00    +0.000 A 
ATOM     16  N   UNL     1      27.460   5.631  48.417  0.00  0.00    +0.000 NA
ATOM     17  C   UNL     1      26.972   6.916  48.566  0.00  0.00    +0.000 A 
ATOM     18  C   UNL     1      27.337   8.157  48.019  0.00  0.00    +0.000 A 
ATOM     19 CL   UNL     1      28.636   8.158  46.914  0.00  0.00    +0.000 Cl
ATOM     20  C   UNL     1      26.664   9.325  48.386  0.00  0.00    +0.000 A 
ATOM     21  C   UNL     1      25.606   9.265  49.299  0.00  0.00    +0.000 A 
ATOM     22  C   UNL     1      25.205   8.042  49.855  0.00  0.00    +0.000 A 
ATOM     23 CL   UNL     1      23.909   7.970  50.973  0.00  0.00    +0.000 Cl
ATOM     24  C   UNL     1      25.915   6.906  49.466  0.00  0.00    +0.000 A 
ATOM     25  O   UNL     1      25.734   5.618  49.884  0.00  0.00    +0.000 OA
ENDBRANCH  14  15
ENDBRANCH   1  14
TORSDOF 5
ENDMDL
