MODEL 1
REMARK VINA RESULT:    -7.240      0.000      0.000
REMARK INTER + INTRA:         -12.597
REMARK INTER:                 -10.626
REMARK INTRA:                  -1.971
REMARK UNBOUND:                -1.971
REMARK  Name = 
REMARK  10 active torsions:
REMARK  status: ('A' for Active; 'I' for Inactive)
REMARK    1  A    between atoms: C_1  and  C_2
REMARK    2  A    between atoms: C_2  and  O_3
REMARK    3  A    between atoms: O_3  and  C_4
REMARK    4  A    between atoms: C_4  and  C_5
REMARK    5  A    between atoms: C_5  and  N_6
REMARK    6  A    between atoms: C_8  and  C_9
REMARK    7  A    between atoms: C_18  and  C_19
REMARK    8  A    between atoms: C_22  and  C_23
REMARK    9  A    between atoms: C_26  and  O_27
REMARK   10  A    between atoms: O_27  and  C_28
REMARK                            x       y       z     vdW  Elec       q    Type
REMARK                         _______ _______ _______ _____ _____    ______ ____
ROOT
ATOM      1  N   UNL     1      23.186   3.526  48.693  0.00  0.00    +0.000 N 
ATOM      2  C   UNL     1      23.201   2.291  49.485  0.00  0.00    +0.000 C 
ATOM      3  C   UNL     1      22.967   2.714  50.935  0.00  0.00    +0.000 C 
ATOM      4  C   UNL     1      23.713   4.048  51.025  0.00  0.00    +0.000 C 
ATOM      5  C   UNL     1      23.644   4.619  49.592  0.00  0.00    +0.000 C 
ATOM      6  H   UNL     1      23.826   3.472  47.901  0.00  0.00    +0.000 HD
ENDROOT
BRANCH   3   7
ATOM      7  C   UNL     1      23.414   1.646  51.912  0.00  0.00    +0.000 A 
ATOM      8  C   UNL     1      22.538   0.620  52.341  0.00  0.00    +0.000 A 
ATOM      9  C   UNL     1      22.925  -0.308  53.315  0.00  0.00    +0.000 A 
ATOM     10  C   UNL     1      24.191  -0.191  53.839  0.00  0.00    +0.000 A 
ATOM     11  C   UNL     1      25.059   0.787  53.419  0.00  0.00    +0.000 A 
ATOM     12  C   UNL     1      24.706   1.714  52.460  0.00  0.00    +0.000 A 
ATOM     13  O   UNL     1      26.253   0.733  54.069  0.00  0.00    +0.000 OA
ATOM     14  C   UNL     1      26.029  -0.386  54.952  0.00  0.00    +0.000 C 
ATOM     15  O   UNL     1      24.724  -0.983  54.807  0.00  0.00    +0.000 OA
ENDBRANCH   3   7
BRANCH   5  16
ATOM     16  C   UNL     1      25.002   5.118  49.105  0.00  0.00    +0.000 A 
ATOM     17  C   UNL     1      25.154   6.415  48.585  0.00  0.00    +0.000 A 
ATOM     18  C   UNL     1      26.402   6.906  48.200  0.00  0.00    +0.000 A 
ATOM     19  C   UNL     1      27.535   6.108  48.330  0.00  0.00    +0.000 A 
ATOM     20  C   UNL     1      27.398   4.809  48.829  0.00  0.00    +0.000 A 
ATOM     21  C   UNL     1      26.145   4.316  49.216  0.00  0.00    +0.000 A 
BRANCH  19  22
ATOM     22  O   UNL     1      28.811   6.483  48.010  0.00  0.00    +0.000 OA
ATOM     23  C   UNL     1      29.807   5.469  48.087  0.00  0.00    +0.000 C 
ENDBRANCH  19  22
ENDBRANCH   5  16
BRANCH   4  24
ATOM     24  C   UNL     1      23.029   4.979  51.989  0.00  0.00    +0.000 C 
ATOM     25  O   UNL     1      22.081   5.715  51.748  0.00  0.00    +0.000 OA
ATOM     26  O   UNL     1      23.576   4.957  53.219  0.00  0.00    +0.000 OA
ENDBRANCH   4  24
BRANCH   1  27
ATOM     27  C   UNL     1      21.881   3.754  48.045  0.00  0.00    +0.000 C 
BRANCH  27  28
ATOM     28  C   UNL     1      21.328   5.177  48.240  0.00  0.00    +0.000 C 
BRANCH  28  29
ATOM     29  O   UNL     1      20.145   5.175  49.053  0.00  0.00    +0.000 OA
BRANCH  29  31
ATOM     30  C   UNL     1      19.386   3.677  50.802  0.00  0.00    +0.000 C 
ATOM     31  C   UNL     1      19.757   3.827  49.340  0.00  0.00    +0.000 C 
ENDBRANCH  29  31
ENDBRANCH  28  29
ENDBRANCH  27  28
ENDBRANCH   1  27
TORSDOF 8
ENDMDL
MODEL 2
REMARK VINA RESULT:    -7.205      2.204      6.766
REMARK INTER + INTRA:         -12.546
REMARK INTER:                 -10.748
REMARK INTRA:                  -1.798
REMARK UNBOUND:                -1.971
REMARK  Name = 
REMARK  10 active torsions:
REMARK  status: ('A' for Active; 'I' for Inactive)
REMARK    1  A    between atoms: C_1  and  C_2
REMARK    2  A    between atoms: C_2  and  O_3
REMARK    3  A    between atoms: O_3  and  C_4
REMARK    4  A    between atoms: C_4  and  C_5
REMARK    5  A    between atoms: C_5  and  N_6
REMARK    6  A    between atoms: C_8  and  C_9
REMARK    7  A    between atoms: C_18  and  C_19
REMARK    8  A    between atoms: C_22  and  C_23
REMARK    9  A    between atoms: C_26  and  O_27
REMARK   10  A    between atoms: O_27  and  C_28
REMARK                            x       y       z     vdW  Elec       q    Type
REMARK                         _______ _______ _______ _____ _____    ______ ____
ROOT
ATOM      1  N   UNL     1      21.588   3.842  51.634  0.00  0.00    +0.000 N 
ATOM      2  C   UNL     1      22.757   4.583  51.148  0.00  0.00    +0.000 C 
ATOM      3  C   UNL     1      23.124   3.959  49.801  0.00  0.00    +0.000 C 
ATOM      4  C   UNL     1      22.816   2.475  50.018  0.00  0.00    +0.000 C 
ATOM      5  C   UNL     1      21.678   2.472  51.060  0.00  0.00    +0.000 C 
ATOM      6  H   UNL     1      21.588   3.765  52.651  0.00  0.00    +0.000 HD
ENDROOT
BRANCH   3   7
ATOM      7  C   UNL     1      24.551   4.282  49.403  0.00  0.00    +0.000 A 
ATOM      8  C   UNL     1      25.604   3.355  49.600  0.00  0.00    +0.000 A 
ATOM      9  C   UNL     1      26.932   3.693  49.319  0.00  0.00    +0.000 A 
ATOM     10  C   UNL     1      27.180   4.958  48.839  0.00  0.00    +0.000 A 
ATOM     11  C   UNL     1      26.168   5.861  48.626  0.00  0.00    +0.000 A 
ATOM     12  C   UNL     1      24.849   5.556  48.892  0.00  0.00    +0.000 A 
ATOM     13  O   UNL     1      26.628   7.053  48.159  0.00  0.00    +0.000 OA
ATOM     14  C   UNL     1      28.047   6.797  48.115  0.00  0.00    +0.000 C 
ATOM     15  O   UNL     1      28.405   5.466  48.539  0.00  0.00    +0.000 OA
ENDBRANCH   3   7
BRANCH   5  16
ATOM     16  C   UNL     1      21.937   1.482  52.193  0.00  0.00    +0.000 A 
ATOM     17  C   UNL     1      20.905   1.093  53.066  0.00  0.00    +0.000 A 
ATOM     18  C   UNL     1      21.113   0.138  54.061  0.00  0.00    +0.000 A 
ATOM     19  C   UNL     1      22.363  -0.455  54.208  0.00  0.00    +0.000 A 
ATOM     20  C   UNL     1      23.404  -0.067  53.360  0.00  0.00    +0.000 A 
ATOM     21  C   UNL     1      23.196   0.892  52.359  0.00  0.00    +0.000 A 
BRANCH  19  22
ATOM     22  O   UNL     1      22.683  -1.417  55.128  0.00  0.00    +0.000 OA
ATOM     23  C   UNL     1      24.016  -1.395  55.629  0.00  0.00    +0.000 C 
ENDBRANCH  19  22
ENDBRANCH   5  16
BRANCH   4  24
ATOM     24  C   UNL     1      22.352   1.833  48.739  0.00  0.00    +0.000 C 
ATOM     25  O   UNL     1      22.628   2.188  47.600  0.00  0.00    +0.000 OA
ATOM     26  O   UNL     1      21.546   0.776  48.944  0.00  0.00    +0.000 OA
ENDBRANCH   4  24
BRANCH   1  27
ATOM     27  C   UNL     1      20.326   4.553  51.359  0.00  0.00    +0.000 C 
BRANCH  27  28
ATOM     28  C   UNL     1      19.245   3.676  50.705  0.00  0.00    +0.000 C 
BRANCH  28  29
ATOM     29  O   UNL     1      18.243   3.280  51.654  0.00  0.00    +0.000 OA
BRANCH  29  31
ATOM     30  C   UNL     1      18.252   1.525  49.981  0.00  0.00    +0.000 C 
ATOM     31  C   UNL     1      17.795   1.953  51.361  0.00  0.00    +0.000 C 
ENDBRANCH  29  31
ENDBRANCH  28  29
ENDBRANCH  27  28
ENDBRANCH   1  27
TORSDOF 8
ENDMDL
MODEL 3
REMARK VINA RESULT:    -7.056      1.592      2.093
REMARK INTER + INTRA:         -12.326
REMARK INTER:                 -10.626
REMARK INTRA:                  -1.700
REMARK UNBOUND:                -1.971
REMARK  Name = 
REMARK  10 active torsions:
REMARK  status: ('A' for Active; 'I' for Inactive)
REMARK    1  A    between atoms: C_1  and  C_2
REMARK    2  A    between atoms: C_2  and  O_3
REMARK    3  A    between atoms: O_3  and  C_4
REMARK    4  A    between atoms: C_4  and  C_5
REMARK    5  A    between atoms: C_5  and  N_6
REMARK    6  A    between atoms: C_8  and  C_9
REMARK    7  A    between atoms: C_18  and  C_19
REMARK    8  A    between atoms: C_22  and  C_23
REMARK    9  A    between atoms: C_26  and  O_27
REMARK   10  A    between atoms: O_27  and  C_28
REMARK                            x       y       z     vdW  Elec       q    Type
REMARK                         _______ _______ _______ _____ _____    ______ ____
ROOT
ATOM      1  N   UNL     1      23.957   4.340  48.757  0.00  0.00    +0.000 N 
ATOM      2  C   UNL     1      24.205   3.003  49.309  0.00  0.00    +0.000 C 
ATOM      3  C   UNL     1      23.796   3.070  50.780  0.00  0.00    +0.000 C 
ATOM      4  C   UNL     1      24.213   4.485  51.187  0.00  0.00    +0.000 C 
ATOM      5  C   UNL     1      24.101   5.303  49.882  0.00  0.00    +0.000 C 
ATOM      6  H   UNL     1      24.638   4.582  48.037  0.00  0.00    +0.000 HD
ENDROOT
BRANCH   3   7
ATOM      7  C   UNL     1      24.416   1.946  51.587  0.00  0.00    +0.000 A 
ATOM      8  C   UNL     1      23.622   1.054  52.348  0.00  0.00    +0.000 A 
ATOM      9  C   UNL     1      24.204   0.079  53.165  0.00  0.00    +0.000 A 
ATOM     10  C   UNL     1      25.577   0.014  53.202  0.00  0.00    +0.000 A 
ATOM     11  C   UNL     1      26.360   0.860  52.456  0.00  0.00    +0.000 A 
ATOM     12  C   UNL     1      25.815   1.830  51.640  0.00  0.00    +0.000 A 
ATOM     13  O   UNL     1      27.689   0.636  52.644  0.00  0.00    +0.000 OA
ATOM     14  C   UNL     1      27.648  -0.441  53.602  0.00  0.00    +0.000 C 
ATOM     15  O   UNL     1      26.310  -0.847  53.957  0.00  0.00    +0.000 OA
ENDBRANCH   3   7
BRANCH   5  16
ATOM     16  C   UNL     1      25.337   6.164  49.634  0.00  0.00    +0.000 A 
ATOM     17  C   UNL     1      26.345   5.747  48.747  0.00  0.00    +0.000 A 
ATOM     18  C   UNL     1      27.446   6.555  48.460  0.00  0.00    +0.000 A 
ATOM     19  C   UNL     1      27.564   7.808  49.055  0.00  0.00    +0.000 A 
ATOM     20  C   UNL     1      26.579   8.230  49.953  0.00  0.00    +0.000 A 
ATOM     21  C   UNL     1      25.473   7.419  50.241  0.00  0.00    +0.000 A 
BRANCH  19  22
ATOM     22  O   UNL     1      28.581   8.697  48.837  0.00  0.00    +0.000 OA
ATOM     23  C   UNL     1      28.275  10.072  49.047  0.00  0.00    +0.000 C 
ENDBRANCH  19  22
ENDBRANCH   5  16
BRANCH   4  24
ATOM     24  C   UNL     1      23.281   5.039  52.229  0.00  0.00    +0.000 C 
ATOM     25  O   UNL     1      23.402   4.945  53.444  0.00  0.00    +0.000 OA
ATOM     26  O   UNL     1      22.221   5.679  51.700  0.00  0.00    +0.000 OA
ENDBRANCH   4  24
BRANCH   1  27
ATOM     27  C   UNL     1      22.675   4.412  48.033  0.00  0.00    +0.000 C 
BRANCH  27  28
ATOM     28  C   UNL     1      22.161   3.050  47.534  0.00  0.00    +0.000 C 
BRANCH  28  29
ATOM     29  O   UNL     1      20.750   2.908  47.753  0.00  0.00    +0.000 OA
BRANCH  29  31
ATOM     30  C   UNL     1      21.225   0.967  49.125  0.00  0.00    +0.000 C 
ATOM     31  C   UNL     1      20.515   2.301  49.028  0.00  0.00    +0.000 C 
ENDBRANCH  29  31
ENDBRANCH  28  29
ENDBRANCH  27  28
ENDBRANCH   1  27
TORSDOF 8
ENDMDL
MODEL 4
REMARK VINA RESULT:    -6.977      1.922      6.551
REMARK INTER + INTRA:         -12.211
REMARK INTER:                 -10.481
REMARK INTRA:                  -1.730
REMARK UNBOUND:                -1.971
REMARK  Name = 
REMARK  10 active torsions:
REMARK  status: ('A' for Active; 'I' for Inactive)
REMARK    1  A    between atoms: C_1  and  C_2
REMARK    2  A    between atoms: C_2  and  O_3
REMARK    3  A    between atoms: O_3  and  C_4
REMARK    4  A    between atoms: C_4  and  C_5
REMARK    5  A    between atoms: C_5  and  N_6
REMARK    6  A    between atoms: C_8  and  C_9
REMARK    7  A    between atoms: C_18  and  C_19
REMARK    8  A    between atoms: C_22  and  C_23
REMARK    9  A    between atoms: C_26  and  O_27
REMARK   10  A    between atoms: O_27  and  C_28
REMARK                            x       y       z     vdW  Elec       q    Type
REMARK                         _______ _______ _______ _____ _____    ______ ____
ROOT
ATOM      1  N   UNL     1      23.249   4.250  52.098  0.00  0.00    +0.000 N 
ATOM      2  C   UNL     1      23.933   5.391  51.481  0.00  0.00    +0.000 C 
ATOM      3  C   UNL     1      23.779   5.211  49.971  0.00  0.00    +0.000 C 
ATOM      4  C   UNL     1      23.868   3.692  49.797  0.00  0.00    +0.000 C 
ATOM      5  C   UNL     1      23.322   3.126  51.126  0.00  0.00    +0.000 C 
ATOM      6  H   UNL     1      23.707   3.958  52.962  0.00  0.00    +0.000 HD
ENDROOT
BRANCH   3   7
ATOM      7  C   UNL     1      24.803   6.020  49.201  0.00  0.00    +0.000 A 
ATOM      8  C   UNL     1      24.423   7.111  48.382  0.00  0.00    +0.000 A 
ATOM      9  C   UNL     1      25.361   7.795  47.599  0.00  0.00    +0.000 A 
ATOM     10  C   UNL     1      26.668   7.372  47.656  0.00  0.00    +0.000 A 
ATOM     11  C   UNL     1      27.055   6.327  48.459  0.00  0.00    +0.000 A 
ATOM     12  C   UNL     1      26.154   5.636  49.243  0.00  0.00    +0.000 A 
ATOM     13  O   UNL     1      28.386   6.064  48.361  0.00  0.00    +0.000 OA
ATOM     14  C   UNL     1      28.787   7.058  47.395  0.00  0.00    +0.000 C 
ATOM     15  O   UNL     1      27.702   7.897  46.948  0.00  0.00    +0.000 OA
ENDBRANCH   3   7
BRANCH   5  16
ATOM     16  C   UNL     1      24.224   2.037  51.702  0.00  0.00    +0.000 A 
ATOM     17  C   UNL     1      23.713   1.061  52.576  0.00  0.00    +0.000 A 
ATOM     18  C   UNL     1      24.511   0.022  53.055  0.00  0.00    +0.000 A 
ATOM     19  C   UNL     1      25.845  -0.068  52.668  0.00  0.00    +0.000 A 
ATOM     20  C   UNL     1      26.372   0.904  51.813  0.00  0.00    +0.000 A 
ATOM     21  C   UNL     1      25.571   1.948  51.331  0.00  0.00    +0.000 A 
BRANCH  19  22
ATOM     22  O   UNL     1      26.718  -1.050  53.051  0.00  0.00    +0.000 OA
ATOM     23  C   UNL     1      28.083  -0.667  53.180  0.00  0.00    +0.000 C 
ENDBRANCH  19  22
ENDBRANCH   5  16
BRANCH   4  24
ATOM     24  C   UNL     1      23.015   3.234  48.647  0.00  0.00    +0.000 C 
ATOM     25  O   UNL     1      22.673   3.900  47.678  0.00  0.00    +0.000 OA
ATOM     26  O   UNL     1      22.612   1.956  48.767  0.00  0.00    +0.000 OA
ENDBRANCH   4  24
BRANCH   1  27
ATOM     27  C   UNL     1      21.889   4.597  52.551  0.00  0.00    +0.000 C 
BRANCH  27  28
ATOM     28  C   UNL     1      20.777   3.775  51.875  0.00  0.00    +0.000 C 
BRANCH  28  29
ATOM     29  O   UNL     1      20.324   2.707  52.721  0.00  0.00    +0.000 OA
BRANCH  29  31
ATOM     30  C   UNL     1      20.244   0.530  51.658  0.00  0.00    +0.000 C 
ATOM     31  C   UNL     1      19.498   1.811  51.970  0.00  0.00    +0.000 C 
ENDBRANCH  29  31
ENDBRANCH  28  29
ENDBRANCH  27  28
ENDBRANCH   1  27
TORSDOF 8
ENDMDL
MODEL 5
REMARK VINA RESULT:    -6.926      3.258      6.181
REMARK INTER + INTRA:         -12.137
REMARK INTER:                 -10.679
REMARK INTRA:                  -1.457
REMARK UNBOUND:                -1.971
REMARK  Name = 
REMARK  10 active torsions:
REMARK  status: ('A' for Active; 'I' for Inactive)
REMARK    1  A    between atoms: C_1  and  C_2
REMARK    2  A    between atoms: C_2  and  O_3
REMARK    3  A    between atoms: O_3  and  C_4
REMARK    4  A    between atoms: C_4  and  C_5
REMARK    5  A    between atoms: C_5  and  N_6
REMARK    6  A    between atoms: C_8  and  C_9
REMARK    7  A    between atoms: C_18  and  C_19
REMARK    8  A    between atoms: C_22  and  C_23
REMARK    9  A    between atoms: C_26  and  O_27
REMARK   10  A    between atoms: O_27  and  C_28
REMARK                            x       y       z     vdW  Elec       q    Type
REMARK                         _______ _______ _______ _____ _____    ______ ____
ROOT
ATOM      1  N   UNL     1      22.866   1.713  49.946  0.00  0.00    +0.000 N 
ATOM      2  C   UNL     1      21.630   0.964  49.698  0.00  0.00    +0.000 C 
ATOM      3  C   UNL     1      20.522   1.721  50.430  0.00  0.00    +0.000 C 
ATOM      4  C   UNL     1      21.229   2.226  51.691  0.00  0.00    +0.000 C 
ATOM      5  C   UNL     1      22.701   2.395  51.258  0.00  0.00    +0.000 C 
ATOM      6  H   UNL     1      23.676   1.095  50.005  0.00  0.00    +0.000 HD
ENDROOT
BRANCH   3   7
ATOM      7  C   UNL     1      19.306   0.848  50.665  0.00  0.00    +0.000 A 
ATOM      8  C   UNL     1      18.187   0.884  49.797  0.00  0.00    +0.000 A 
ATOM      9  C   UNL     1      17.029   0.148  50.070  0.00  0.00    +0.000 A 
ATOM     10  C   UNL     1      17.016  -0.617  51.213  0.00  0.00    +0.000 A 
ATOM     11  C   UNL     1      18.099  -0.677  52.055  0.00  0.00    +0.000 A 
ATOM     12  C   UNL     1      19.254   0.036  51.810  0.00  0.00    +0.000 A 
ATOM     13  O   UNL     1      17.876  -1.482  53.129  0.00  0.00    +0.000 OA
ATOM     14  C   UNL     1      16.523  -1.911  52.868  0.00  0.00    +0.000 C 
ATOM     15  O   UNL     1      15.972  -1.371  51.649  0.00  0.00    +0.000 OA
ENDBRANCH   3   7
BRANCH   5  16
ATOM     16  C   UNL     1      23.671   1.773  52.259  0.00  0.00    +0.000 A 
ATOM     17  C   UNL     1      23.503   0.449  52.704  0.00  0.00    +0.000 A 
ATOM     18  C   UNL     1      24.421  -0.153  53.566  0.00  0.00    +0.000 A 
ATOM     19  C   UNL     1      25.535   0.557  54.004  0.00  0.00    +0.000 A 
ATOM     20  C   UNL     1      25.707   1.879  53.584  0.00  0.00    +0.000 A 
ATOM     21  C   UNL     1      24.786   2.485  52.718  0.00  0.00    +0.000 A 
BRANCH  19  22
ATOM     22  O   UNL     1      26.513   0.070  54.828  0.00  0.00    +0.000 OA
ATOM     23  C   UNL     1      27.849   0.155  54.344  0.00  0.00    +0.000 C 
ENDBRANCH  19  22
ENDBRANCH   5  16
BRANCH   4  24
ATOM     24  C   UNL     1      20.661   3.547  52.130  0.00  0.00    +0.000 C 
ATOM     25  O   UNL     1      19.480   3.872  52.131  0.00  0.00    +0.000 OA
ATOM     26  O   UNL     1      21.604   4.416  52.538  0.00  0.00    +0.000 OA
ENDBRANCH   4  24
BRANCH   1  27
ATOM     27  C   UNL     1      23.214   2.600  48.820  0.00  0.00    +0.000 C 
BRANCH  27  28
ATOM     28  C   UNL     1      23.912   3.904  49.245  0.00  0.00    +0.000 C 
BRANCH  28  29
ATOM     29  O   UNL     1      25.315   3.700  49.469  0.00  0.00    +0.000 OA
BRANCH  29  31
ATOM     30  C   UNL     1      27.357   4.803  48.767  0.00  0.00    +0.000 C 
ATOM     31  C   UNL     1      26.001   4.956  49.424  0.00  0.00    +0.000 C 
ENDBRANCH  29  31
ENDBRANCH  28  29
ENDBRANCH  27  28
ENDBRANCH   1  27
TORSDOF 8
ENDMDL
MODEL 6
REMARK VINA RESULT:    -6.916      1.162      1.924
REMARK INTER + INTRA:         -12.122
REMARK INTER:                 -10.663
REMARK INTRA:                  -1.458
REMARK UNBOUND:                -1.971
REMARK  Name = 
REMARK  10 active torsions:
REMARK  status: ('A' for Active; 'I' for Inactive)
REMARK    1  A    between atoms: C_1  and  C_2
REMARK    2  A    between atoms: C_2  and  O_3
REMARK    3  A    between atoms: O_3  and  C_4
REMARK    4  A    between atoms: C_4  and  C_5
REMARK    5  A    between atoms: C_5  and  N_6
REMARK    6  A    between atoms: C_8  and  C_9
REMARK    7  A    between atoms: C_18  and  C_19
REMARK    8  A    between atoms: C_22  and  C_23
REMARK    9  A    between atoms: C_26  and  O_27
REMARK   10  A    between atoms: O_27  and  C_28
REMARK                            x       y       z     vdW  Elec       q    Type
REMARK                         _______ _______ _______ _____ _____    ______ ____
ROOT
ATOM      1  N   UNL     1      23.429   3.597  48.619  0.00  0.00    +0.000 N 
ATOM      2  C   UNL     1      23.319   2.407  49.470  0.00  0.00    +0.000 C 
ATOM      3  C   UNL     1      22.960   2.917  50.866  0.00  0.00    +0.000 C 
ATOM      4  C   UNL     1      23.744   4.229  50.962  0.00  0.00    +0.000 C 
ATOM      5  C   UNL     1      23.838   4.722  49.502  0.00  0.00    +0.000 C 
ATOM      6  H   UNL     1      24.141   3.479  47.898  0.00  0.00    +0.000 HD
ENDROOT
BRANCH   3   7
ATOM      7  C   UNL     1      23.268   1.889  51.936  0.00  0.00    +0.000 A 
ATOM      8  C   UNL     1      24.577   1.380  52.121  0.00  0.00    +0.000 A 
ATOM      9  C   UNL     1      24.838   0.363  53.045  0.00  0.00    +0.000 A 
ATOM     10  C   UNL     1      23.777  -0.125  53.772  0.00  0.00    +0.000 A 
ATOM     11  C   UNL     1      22.506   0.370  53.617  0.00  0.00    +0.000 A 
ATOM     12  C   UNL     1      22.219   1.374  52.716  0.00  0.00    +0.000 A 
ATOM     13  O   UNL     1      21.605  -0.254  54.423  0.00  0.00    +0.000 OA
ATOM     14  C   UNL     1      22.456  -1.207  55.092  0.00  0.00    +0.000 C 
ATOM     15  O   UNL     1      23.839  -1.126  54.690  0.00  0.00    +0.000 OA
ENDBRANCH   3   7
BRANCH   5  16
ATOM     16  C   UNL     1      25.256   5.148  49.128  0.00  0.00    +0.000 A 
ATOM     17  C   UNL     1      26.330   4.245  49.214  0.00  0.00    +0.000 A 
ATOM     18  C   UNL     1      27.617   4.602  48.811  0.00  0.00    +0.000 A 
ATOM     19  C   UNL     1      27.862   5.876  48.308  0.00  0.00    +0.000 A 
ATOM     20  C   UNL     1      26.808   6.791  48.233  0.00  0.00    +0.000 A 
ATOM     21  C   UNL     1      25.515   6.433  48.637  0.00  0.00    +0.000 A 
BRANCH  19  22
ATOM     22  O   UNL     1      29.071   6.335  47.861  0.00  0.00    +0.000 OA
ATOM     23  C   UNL     1      30.171   5.439  47.979  0.00  0.00    +0.000 C 
ENDBRANCH  19  22
ENDBRANCH   5  16
BRANCH   4  24
ATOM     24  C   UNL     1      23.005   5.233  51.804  0.00  0.00    +0.000 C 
ATOM     25  O   UNL     1      22.022   5.021  52.502  0.00  0.00    +0.000 OA
ATOM     26  O   UNL     1      23.526   6.471  51.723  0.00  0.00    +0.000 OA
ENDBRANCH   4  24
BRANCH   1  27
ATOM     27  C   UNL     1      22.204   3.833  47.833  0.00  0.00    +0.000 C 
BRANCH  27  28
ATOM     28  C   UNL     1      21.209   2.659  47.861  0.00  0.00    +0.000 C 
BRANCH  28  29
ATOM     29  O   UNL     1      19.854   3.116  47.733  0.00  0.00    +0.000 OA
BRANCH  29  31
ATOM     30  C   UNL     1      19.801   1.460  49.503  0.00  0.00    +0.000 C 
ATOM     31  C   UNL     1      19.056   2.569  48.787  0.00  0.00    +0.000 C 
ENDBRANCH  29  31
ENDBRANCH  28  29
ENDBRANCH  27  28
ENDBRANCH   1  27
TORSDOF 8
ENDMDL
MODEL 7
REMARK VINA RESULT:    -6.886      2.732      6.628
REMARK INTER + INTRA:         -12.078
REMARK INTER:                 -10.419
REMARK INTRA:                  -1.660
REMARK UNBOUND:                -1.971
REMARK  Name = 
REMARK  10 active torsions:
REMARK  status: ('A' for Active; 'I' for Inactive)
REMARK    1  A    between atoms: C_1  and  C_2
REMARK    2  A    between atoms: C_2  and  O_3
REMARK    3  A    between atoms: O_3  and  C_4
REMARK    4  A    between atoms: C_4  and  C_5
REMARK    5  A    between atoms: C_5  and  N_6
REMARK    6  A    between atoms: C_8  and  C_9
REMARK    7  A    between atoms: C_18  and  C_19
REMARK    8  A    between atoms: C_22  and  C_23
REMARK    9  A    between atoms: C_26  and  O_27
REMARK   10  A    between atoms: O_27  and  C_28
REMARK                            x       y       z     vdW  Elec       q    Type
REMARK                         _______ _______ _______ _____ _____    ______ ____
ROOT
ATOM      1  N   UNL     1      22.184   2.639  52.535  0.00  0.00    +0.000 N 
ATOM      2  C   UNL     1      22.274   4.096  52.391  0.00  0.00    +0.000 C 
ATOM      3  C   UNL     1      22.433   4.364  50.894  0.00  0.00    +0.000 C 
ATOM      4  C   UNL     1      23.298   3.191  50.427  0.00  0.00    +0.000 C 
ATOM      5  C   UNL     1      22.942   2.046  51.400  0.00  0.00    +0.000 C 
ATOM      6  H   UNL     1      22.609   2.320  53.406  0.00  0.00    +0.000 HD
ENDROOT
BRANCH   3   7
ATOM      7  C   UNL     1      23.000   5.744  50.628  0.00  0.00    +0.000 A 
ATOM      8  C   UNL     1      22.172   6.822  50.232  0.00  0.00    +0.000 A 
ATOM      9  C   UNL     1      22.712   8.069  49.895  0.00  0.00    +0.000 A 
ATOM     10  C   UNL     1      24.078   8.212  49.966  0.00  0.00    +0.000 A 
ATOM     11  C   UNL     1      24.892   7.181  50.366  0.00  0.00    +0.000 A 
ATOM     12  C   UNL     1      24.388   5.942  50.705  0.00  0.00    +0.000 A 
ATOM     13  O   UNL     1      26.208   7.527  50.358  0.00  0.00    +0.000 OA
ATOM     14  C   UNL     1      26.125   8.891  49.896  0.00  0.00    +0.000 C 
ATOM     15  O   UNL     1      24.774   9.336  49.651  0.00  0.00    +0.000 OA
ENDBRANCH   3   7
BRANCH   5  16
ATOM     16  C   UNL     1      24.185   1.351  51.951  0.00  0.00    +0.000 A 
ATOM     17  C   UNL     1      24.077   0.316  52.897  0.00  0.00    +0.000 A 
ATOM     18  C   UNL     1      25.200  -0.373  53.356  0.00  0.00    +0.000 A 
ATOM     19  C   UNL     1      26.464  -0.043  52.875  0.00  0.00    +0.000 A 
ATOM     20  C   UNL     1      26.590   0.995  51.948  0.00  0.00    +0.000 A 
ATOM     21  C   UNL     1      25.462   1.686  51.486  0.00  0.00    +0.000 A 
BRANCH  19  22
ATOM     22  O   UNL     1      27.634  -0.659  53.231  0.00  0.00    +0.000 OA
ATOM     23  C   UNL     1      28.329  -0.103  54.341  0.00  0.00    +0.000 C 
ENDBRANCH  19  22
ENDBRANCH   5  16
BRANCH   4  24
ATOM     24  C   UNL     1      22.953   2.800  49.016  0.00  0.00    +0.000 C 
ATOM     25  O   UNL     1      23.164   3.454  48.003  0.00  0.00    +0.000 OA
ATOM     26  O   UNL     1      22.341   1.604  48.936  0.00  0.00    +0.000 OA
ENDBRANCH   4  24
BRANCH   1  27
ATOM     27  C   UNL     1      20.789   2.178  52.664  0.00  0.00    +0.000 C 
BRANCH  27  28
ATOM     28  C   UNL     1      20.573   0.716  52.236  0.00  0.00    +0.000 C 
BRANCH  28  29
ATOM     29  O   UNL     1      19.901  -0.037  53.257  0.00  0.00    +0.000 OA
BRANCH  29  31
ATOM     30  C   UNL     1      21.348  -1.657  54.333  0.00  0.00    +0.000 C 
ATOM     31  C   UNL     1      20.784  -0.251  54.362  0.00  0.00    +0.000 C 
ENDBRANCH  29  31
ENDBRANCH  28  29
ENDBRANCH  27  28
ENDBRANCH   1  27
TORSDOF 8
ENDMDL
MODEL 8
REMARK VINA RESULT:    -6.883      3.255      4.963
REMARK INTER + INTRA:         -12.073
REMARK INTER:                 -10.117
REMARK INTRA:                  -1.955
REMARK UNBOUND:                -1.971
REMARK  Name = 
REMARK  10 active torsions:
REMARK  status: ('A' for Active; 'I' for Inactive)
REMARK    1  A    between atoms: C_1  and  C_2
REMARK    2  A    between atoms: C_2  and  O_3
REMARK    3  A    between atoms: O_3  and  C_4
REMARK    4  A    between atoms: C_4  and  C_5
REMARK    5  A    between atoms: C_5  and  N_6
REMARK    6  A    between atoms: C_8  and  C_9
REMARK    7  A    between atoms: C_18  and  C_19
REMARK    8  A    between atoms: C_22  and  C_23
REMARK    9  A    between atoms: C_26  and  O_27
REMARK   10  A    between atoms: O_27  and  C_28
REMARK                            x       y       z     vdW  Elec       q    Type
REMARK                         _______ _______ _______ _____ _____    ______ ____
ROOT
ATOM      1  N   UNL     1      22.409   1.752  49.139  0.00  0.00    +0.000 N 
ATOM      2  C   UNL     1      21.323   0.857  49.554  0.00  0.00    +0.000 C 
ATOM      3  C   UNL     1      20.529   1.618  50.615  0.00  0.00    +0.000 C 
ATOM      4  C   UNL     1      21.617   2.395  51.363  0.00  0.00    +0.000 C 
ATOM      5  C   UNL     1      22.714   2.628  50.302  0.00  0.00    +0.000 C 
ATOM      6  H   UNL     1      23.254   1.233  48.898  0.00  0.00    +0.000 HD
ENDROOT
BRANCH   3   7
ATOM      7  C   UNL     1      19.688   0.686  51.463  0.00  0.00    +0.000 A 
ATOM      8  C   UNL     1      20.201   0.088  52.640  0.00  0.00    +0.000 A 
ATOM      9  C   UNL     1      19.453  -0.846  53.367  0.00  0.00    +0.000 A 
ATOM     10  C   UNL     1      18.198  -1.160  52.900  0.00  0.00    +0.000 A 
ATOM     11  C   UNL     1      17.680  -0.575  51.771  0.00  0.00    +0.000 A 
ATOM     12  C   UNL     1      18.393   0.350  51.035  0.00  0.00    +0.000 A 
ATOM     13  O   UNL     1      16.432  -1.030  51.478  0.00  0.00    +0.000 OA
ATOM     14  C   UNL     1      16.232  -1.977  52.548  0.00  0.00    +0.000 C 
ATOM     15  O   UNL     1      17.347  -2.060  53.460  0.00  0.00    +0.000 OA
ENDBRANCH   3   7
BRANCH   5  16
ATOM     16  C   UNL     1      24.105   2.280  50.827  0.00  0.00    +0.000 A 
ATOM     17  C   UNL     1      25.251   2.920  50.322  0.00  0.00    +0.000 A 
ATOM     18  C   UNL     1      26.520   2.660  50.841  0.00  0.00    +0.000 A 
ATOM     19  C   UNL     1      26.674   1.751  51.883  0.00  0.00    +0.000 A 
ATOM     20  C   UNL     1      25.546   1.094  52.384  0.00  0.00    +0.000 A 
ATOM     21  C   UNL     1      24.272   1.355  51.865  0.00  0.00    +0.000 A 
BRANCH  19  22
ATOM     22  O   UNL     1      27.858   1.431  52.489  0.00  0.00    +0.000 OA
ATOM     23  C   UNL     1      28.290   2.297  53.533  0.00  0.00    +0.000 C 
ENDBRANCH  19  22
ENDBRANCH   5  16
BRANCH   4  24
ATOM     24  C   UNL     1      21.086   3.711  51.861  0.00  0.00    +0.000 C 
ATOM     25  O   UNL     1      19.944   4.134  51.739  0.00  0.00    +0.000 OA
ATOM     26  O   UNL     1      22.022   4.453  52.483  0.00  0.00    +0.000 OA
ENDBRANCH   4  24
BRANCH   1  27
ATOM     27  C   UNL     1      22.094   2.464  47.886  0.00  0.00    +0.000 C 
BRANCH  27  28
ATOM     28  C   UNL     1      22.217   3.994  47.991  0.00  0.00    +0.000 C 
BRANCH  28  29
ATOM     29  O   UNL     1      20.939   4.610  48.216  0.00  0.00    +0.000 OA
BRANCH  29  31
ATOM     30  C   UNL     1      22.560   6.084  49.254  0.00  0.00    +0.000 C 
ATOM     31  C   UNL     1      21.119   5.892  48.826  0.00  0.00    +0.000 C 
ENDBRANCH  29  31
ENDBRANCH  28  29
ENDBRANCH  27  28
ENDBRANCH   1  27
TORSDOF 8
ENDMDL
MODEL 9
REMARK VINA RESULT:    -6.712      3.597      7.183
REMARK INTER + INTRA:         -11.823
REMARK INTER:                 -10.089
REMARK INTRA:                  -1.733
REMARK UNBOUND:                -1.971
REMARK  Name = 
REMARK  10 active torsions:
REMARK  status: ('A' for Active; 'I' for Inactive)
REMARK    1  A    between atoms: C_1  and  C_2
REMARK    2  A    between atoms: C_2  and  O_3
REMARK    3  A    between atoms: O_3  and  C_4
REMARK    4  A    between atoms: C_4  and  C_5
REMARK    5  A    between atoms: C_5  and  N_6
REMARK    6  A    between atoms: C_8  and  C_9
REMARK    7  A    between atoms: C_18  and  C_19
REMARK    8  A    between atoms: C_22  and  C_23
REMARK    9  A    between atoms: C_26  and  O_27
REMARK   10  A    between atoms: O_27  and  C_28
REMARK                            x       y       z     vdW  Elec       q    Type
REMARK                         _______ _______ _______ _____ _____    ______ ____
ROOT
ATOM      1  N   UNL     1      21.202   1.839  52.727  0.00  0.00    +0.000 N 
ATOM      2  C   UNL     1      20.748   3.209  52.459  0.00  0.00    +0.000 C 
ATOM      3  C   UNL     1      20.989   3.451  50.969  0.00  0.00    +0.000 C 
ATOM      4  C   UNL     1      22.289   2.686  50.704  0.00  0.00    +0.000 C 
ATOM      5  C   UNL     1      22.270   1.538  51.736  0.00  0.00    +0.000 C 
ATOM      6  H   UNL     1      21.597   1.750  53.663  0.00  0.00    +0.000 HD
ENDROOT
BRANCH   3   7
ATOM      7  C   UNL     1      21.019   4.929  50.637  0.00  0.00    +0.000 A 
ATOM      8  C   UNL     1      21.935   5.811  51.261  0.00  0.00    +0.000 A 
ATOM      9  C   UNL     1      21.895   7.189  51.023  0.00  0.00    +0.000 A 
ATOM     10  C   UNL     1      20.935   7.659  50.157  0.00  0.00    +0.000 A 
ATOM     11  C   UNL     1      20.052   6.815  49.530  0.00  0.00    +0.000 A 
ATOM     12  C   UNL     1      20.068   5.452  49.744  0.00  0.00    +0.000 A 
ATOM     13  O   UNL     1      19.182   7.481  48.724  0.00  0.00    +0.000 OA
ATOM     14  C   UNL     1      19.615   8.842  48.927  0.00  0.00    +0.000 C 
ATOM     15  O   UNL     1      20.733   8.963  49.830  0.00  0.00    +0.000 OA
ENDBRANCH   3   7
BRANCH   5  16
ATOM     16  C   UNL     1      23.600   1.405  52.475  0.00  0.00    +0.000 A 
ATOM     17  C   UNL     1      24.220   0.153  52.631  0.00  0.00    +0.000 A 
ATOM     18  C   UNL     1      25.467   0.028  53.243  0.00  0.00    +0.000 A 
ATOM     19  C   UNL     1      26.129   1.159  53.715  0.00  0.00    +0.000 A 
ATOM     20  C   UNL     1      25.517   2.409  53.583  0.00  0.00    +0.000 A 
ATOM     21  C   UNL     1      24.265   2.535  52.967  0.00  0.00    +0.000 A 
BRANCH  19  22
ATOM     22  O   UNL     1      27.361   1.167  54.311  0.00  0.00    +0.000 OA
ATOM     23  C   UNL     1      28.204   0.054  54.036  0.00  0.00    +0.000 C 
ENDBRANCH  19  22
ENDBRANCH   5  16
BRANCH   4  24
ATOM     24  C   UNL     1      22.307   2.130  49.307  0.00  0.00    +0.000 C 
ATOM     25  O   UNL     1      22.821   2.643  48.321  0.00  0.00    +0.000 OA
ATOM     26  O   UNL     1      21.664   0.953  49.201  0.00  0.00    +0.000 OA
ENDBRANCH   4  24
BRANCH   1  27
ATOM     27  C   UNL     1      20.083   0.879  52.751  0.00  0.00    +0.000 C 
BRANCH  27  28
ATOM     28  C   UNL     1      20.291  -0.297  53.721  0.00  0.00    +0.000 C 
BRANCH  28  29
ATOM     29  O   UNL     1      21.062   0.096  54.866  0.00  0.00    +0.000 OA
BRANCH  29  31
ATOM     30  C   UNL     1      21.868  -2.106  54.249  0.00  0.00    +0.000 C 
ATOM     31  C   UNL     1      22.038  -0.908  55.161  0.00  0.00    +0.000 C 
ENDBRANCH  29  31
ENDBRANCH  28  29
ENDBRANCH  27  28
ENDBRANCH   1  27
TORSDOF 8
ENDMDL
