MODEL 1
REMARK VINA RESULT:    -9.425      0.000      0.000
REMARK INTER + INTRA:         -15.876
REMARK INTER:                 -13.833
REMARK INTRA:                  -2.043
REMARK UNBOUND:                -2.043
REMARK  Name = 
REMARK  10 active torsions:
REMARK  status: ('A' for Active; 'I' for Inactive)
REMARK    1  A    between atoms: C_1  and  C_2
REMARK    2  A    between atoms: C_2  and  C_12
REMARK    3  A    between atoms: C_3  and  C_4
REMARK    4  A    between atoms: C_4  and  C_5
REMARK    5  A    between atoms: C_16  and  O_17
REMARK    6  A    between atoms: O_17  and  C_18
REMARK    7  A    between atoms: C_18  and  C_19
REMARK    8  A    between atoms: C_19  and  C_20
REMARK    9  A    between atoms: C_22  and  C_23
REMARK   10  A    between atoms: C_30  and  C_31
REMARK                            x       y       z     vdW  Elec       q    Type
REMARK                         _______ _______ _______ _____ _____    ______ ____
ROOT
ATOM      1  C   UNL     1      23.164   0.917  53.038  0.00  0.00    +0.000 A 
ATOM      2  C   UNL     1      22.970  -0.299  53.708  0.00  0.00    +0.000 A 
ATOM      3  C   UNL     1      21.695  -0.833  53.843  0.00  0.00    +0.000 A 
ATOM      4  C   UNL     1      20.599  -0.127  53.360  0.00  0.00    +0.000 A 
ATOM      5  C   UNL     1      20.756   1.153  52.813  0.00  0.00    +0.000 A 
ATOM      6  C   UNL     1      22.050   1.650  52.596  0.00  0.00    +0.000 A 
ENDROOT
BRANCH   1   8
ATOM      7  C   UNL     1      24.947   2.716  53.135  0.00  0.00    +0.000 C 
ATOM      8  C   UNL     1      24.560   1.316  52.766  0.00  0.00    +0.000 C 
ATOM      9  C   UNL     1      25.397   0.335  52.377  0.00  0.00    +0.000 C 
BRANCH   9  10
ATOM     10  C   UNL     1      26.891   0.415  52.208  0.00  0.00    +0.000 C 
BRANCH  10  11
ATOM     11  C   UNL     1      27.608   0.352  53.555  0.00  0.00    +0.000 C 
ATOM     12  O   UNL     1      28.334  -0.883  53.702  0.00  0.00    +0.000 OA
ATOM     13  C   UNL     1      29.659  -0.609  53.822  0.00  0.00    +0.000 C 
ATOM     14  O   UNL     1      30.529  -1.458  53.955  0.00  0.00    +0.000 OA
ATOM     15  N   UNL     1      29.865   0.713  53.786  0.00  0.00    +0.000 N 
ATOM     16  C   UNL     1      28.706   1.377  53.630  0.00  0.00    +0.000 C 
ATOM     17  O   UNL     1      28.584   2.588  53.551  0.00  0.00    +0.000 OA
ATOM     18  H   UNL     1      30.748   1.142  53.863  0.00  0.00    +0.000 HD
ENDBRANCH  10  11
ENDBRANCH   9  10
ENDBRANCH   1   8
BRANCH   5  19
ATOM     19  O   UNL     1      19.697   1.982  52.495  0.00  0.00    +0.000 OA
BRANCH  19  20
ATOM     20  C   UNL     1      20.091   3.349  52.280  0.00  0.00    +0.000 C 
BRANCH  20  21
ATOM     21  C   UNL     1      19.824   3.837  50.856  0.00  0.00    +0.000 C 
BRANCH  21  22
ATOM     22  C   UNL     1      21.043   3.617  50.018  0.00  0.00    +0.000 A 
ATOM     23  N   UNL     1      22.094   4.513  50.072  0.00  0.00    +0.000 NA
ATOM     24  C   UNL     1      23.054   3.941  49.368  0.00  0.00    +0.000 A 
ATOM     25  O   UNL     1      22.687   2.747  48.807  0.00  0.00    +0.000 OA
ATOM     26  C   UNL     1      21.411   2.534  49.246  0.00  0.00    +0.000 A 
ATOM     27  C   UNL     1      20.822   1.234  48.889  0.00  0.00    +0.000 C 
BRANCH  24  28
ATOM     28  C   UNL     1      24.455   4.326  49.201  0.00  0.00    +0.000 A 
ATOM     29  C   UNL     1      24.781   5.620  48.766  0.00  0.00    +0.000 A 
ATOM     30  C   UNL     1      26.116   6.024  48.663  0.00  0.00    +0.000 A 
ATOM     31  C   UNL     1      27.143   5.140  48.990  0.00  0.00    +0.000 A 
ATOM     32  C   UNL     1      26.837   3.851  49.417  0.00  0.00    +0.000 A 
ATOM     33  C   UNL     1      25.502   3.447  49.521  0.00  0.00    +0.000 A 
ENDBRANCH  24  28
ENDBRANCH  21  22
ENDBRANCH  20  21
ENDBRANCH  19  20
ENDBRANCH   5  19
TORSDOF 8
ENDMDL
MODEL 2
REMARK VINA RESULT:    -9.340      1.795      3.116
REMARK INTER + INTRA:         -15.752
REMARK INTER:                 -14.187
REMARK INTRA:                  -1.565
REMARK UNBOUND:                -2.043
REMARK  Name = 
REMARK  10 active torsions:
REMARK  status: ('A' for Active; 'I' for Inactive)
REMARK    1  A    between atoms: C_1  and  C_2
REMARK    2  A    between atoms: C_2  and  C_12
REMARK    3  A    between atoms: C_3  and  C_4
REMARK    4  A    between atoms: C_4  and  C_5
REMARK    5  A    between atoms: C_16  and  O_17
REMARK    6  A    between atoms: O_17  and  C_18
REMARK    7  A    between atoms: C_18  and  C_19
REMARK    8  A    between atoms: C_19  and  C_20
REMARK    9  A    between atoms: C_22  and  C_23
REMARK   10  A    between atoms: C_30  and  C_31
REMARK                            x       y       z     vdW  Elec       q    Type
REMARK                         _______ _______ _______ _____ _____    ______ ____
ROOT
ATOM      1  C   UNL     1      21.263  -0.137  52.917  0.00  0.00    +0.000 A 
ATOM      2  C   UNL     1      19.964  -0.451  53.343  0.00  0.00    +0.000 A 
ATOM      3  C   UNL     1      18.888  -0.319  52.475  0.00  0.00    +0.000 A 
ATOM      4  C   UNL     1      19.094   0.183  51.195  0.00  0.00    +0.000 A 
ATOM      5  C   UNL     1      20.359   0.634  50.797  0.00  0.00    +0.000 A 
ATOM      6  C   UNL     1      21.459   0.416  51.640  0.00  0.00    +0.000 A 
ENDROOT
BRANCH   1   8
ATOM      7  C   UNL     1      21.999  -1.185  55.105  0.00  0.00    +0.000 C 
ATOM      8  C   UNL     1      22.370  -0.491  53.829  0.00  0.00    +0.000 C 
ATOM      9  C   UNL     1      23.617  -0.316  53.352  0.00  0.00    +0.000 C 
BRANCH   9  10
ATOM     10  C   UNL     1      24.912  -0.755  53.982  0.00  0.00    +0.000 C 
BRANCH  10  11
ATOM     11  C   UNL     1      26.116  -0.257  53.186  0.00  0.00    +0.000 C 
ATOM     12  O   UNL     1      26.937   0.623  53.977  0.00  0.00    +0.000 OA
ATOM     13  C   UNL     1      28.170   0.071  54.122  0.00  0.00    +0.000 C 
ATOM     14  O   UNL     1      29.085   0.584  54.751  0.00  0.00    +0.000 OA
ATOM     15  N   UNL     1      28.236  -1.096  53.471  0.00  0.00    +0.000 N 
ATOM     16  C   UNL     1      27.063  -1.384  52.878  0.00  0.00    +0.000 C 
ATOM     17  O   UNL     1      26.822  -2.386  52.227  0.00  0.00    +0.000 OA
ATOM     18  H   UNL     1      29.035  -1.669  53.433  0.00  0.00    +0.000 HD
ENDBRANCH  10  11
ENDBRANCH   9  10
ENDBRANCH   1   8
BRANCH   5  19
ATOM     19  O   UNL     1      20.590   1.317  49.619  0.00  0.00    +0.000 OA
BRANCH  19  20
ATOM     20  C   UNL     1      21.951   1.764  49.479  0.00  0.00    +0.000 C 
BRANCH  20  21
ATOM     21  C   UNL     1      22.104   3.280  49.600  0.00  0.00    +0.000 C 
BRANCH  21  22
ATOM     22  C   UNL     1      23.548   3.618  49.793  0.00  0.00    +0.000 A 
ATOM     23  N   UNL     1      24.254   4.251  48.787  0.00  0.00    +0.000 NA
ATOM     24  C   UNL     1      25.415   4.556  49.338  0.00  0.00    +0.000 A 
ATOM     25  O   UNL     1      25.542   4.119  50.629  0.00  0.00    +0.000 OA
ATOM     26  C   UNL     1      24.338   3.543  50.922  0.00  0.00    +0.000 A 
ATOM     27  C   UNL     1      24.163   3.104  52.315  0.00  0.00    +0.000 C 
BRANCH  24  28
ATOM     28  C   UNL     1      26.513   5.376  48.825  0.00  0.00    +0.000 A 
ATOM     29  C   UNL     1      27.804   4.837  48.721  0.00  0.00    +0.000 A 
ATOM     30  C   UNL     1      28.849   5.587  48.173  0.00  0.00    +0.000 A 
ATOM     31  C   UNL     1      28.620   6.886  47.725  0.00  0.00    +0.000 A 
ATOM     32  C   UNL     1      27.346   7.439  47.827  0.00  0.00    +0.000 A 
ATOM     33  C   UNL     1      26.301   6.689  48.374  0.00  0.00    +0.000 A 
ENDBRANCH  24  28
ENDBRANCH  21  22
ENDBRANCH  20  21
ENDBRANCH  19  20
ENDBRANCH   5  19
TORSDOF 8
ENDMDL
MODEL 3
REMARK VINA RESULT:    -8.950      3.937      7.700
REMARK INTER + INTRA:         -15.178
REMARK INTER:                 -14.086
REMARK INTRA:                  -1.092
REMARK UNBOUND:                -2.043
REMARK  Name = 
REMARK  10 active torsions:
REMARK  status: ('A' for Active; 'I' for Inactive)
REMARK    1  A    between atoms: C_1  and  C_2
REMARK    2  A    between atoms: C_2  and  C_12
REMARK    3  A    between atoms: C_3  and  C_4
REMARK    4  A    between atoms: C_4  and  C_5
REMARK    5  A    between atoms: C_16  and  O_17
REMARK    6  A    between atoms: O_17  and  C_18
REMARK    7  A    between atoms: C_18  and  C_19
REMARK    8  A    between atoms: C_19  and  C_20
REMARK    9  A    between atoms: C_22  and  C_23
REMARK   10  A    between atoms: C_30  and  C_31
REMARK                            x       y       z     vdW  Elec       q    Type
REMARK                         _______ _______ _______ _____ _____    ______ ____
ROOT
ATOM      1  C   UNL     1      25.986   5.314  49.126  0.00  0.00    +0.000 A 
ATOM      2  C   UNL     1      26.884   4.237  49.151  0.00  0.00    +0.000 A 
ATOM      3  C   UNL     1      26.478   2.993  49.617  0.00  0.00    +0.000 A 
ATOM      4  C   UNL     1      25.190   2.832  50.116  0.00  0.00    +0.000 A 
ATOM      5  C   UNL     1      24.324   3.928  50.230  0.00  0.00    +0.000 A 
ATOM      6  C   UNL     1      24.703   5.159  49.676  0.00  0.00    +0.000 A 
ENDROOT
BRANCH   1   8
ATOM      7  C   UNL     1      25.388   7.581  48.161  0.00  0.00    +0.000 C 
ATOM      8  C   UNL     1      26.433   6.541  48.436  0.00  0.00    +0.000 C 
ATOM      9  C   UNL     1      27.763   6.688  48.276  0.00  0.00    +0.000 C 
BRANCH   9  10
ATOM     10  C   UNL     1      28.500   7.902  47.779  0.00  0.00    +0.000 C 
BRANCH  10  11
ATOM     11  C   UNL     1      29.376   8.509  48.873  0.00  0.00    +0.000 C 
ATOM     12  O   UNL     1      30.458   9.275  48.310  0.00  0.00    +0.000 OA
ATOM     13  C   UNL     1      30.330  10.572  48.692  0.00  0.00    +0.000 C 
ATOM     14  O   UNL     1      31.099  11.466  48.364  0.00  0.00    +0.000 OA
ATOM     15  N   UNL     1      29.260  10.722  49.481  0.00  0.00    +0.000 N 
ATOM     16  C   UNL     1      28.622   9.551  49.652  0.00  0.00    +0.000 C 
ATOM     17  O   UNL     1      27.608   9.382  50.310  0.00  0.00    +0.000 OA
ATOM     18  H   UNL     1      28.977  11.575  49.881  0.00  0.00    +0.000 HD
ENDBRANCH  10  11
ENDBRANCH   9  10
ENDBRANCH   1   8
BRANCH   5  19
ATOM     19  O   UNL     1      23.112   3.876  50.891  0.00  0.00    +0.000 OA
BRANCH  19  20
ATOM     20  C   UNL     1      23.223   3.403  52.244  0.00  0.00    +0.000 C 
BRANCH  20  21
ATOM     21  C   UNL     1      22.404   2.140  52.512  0.00  0.00    +0.000 C 
BRANCH  21  22
ATOM     22  C   UNL     1      23.321   1.031  52.920  0.00  0.00    +0.000 A 
ATOM     23  N   UNL     1      24.682   1.140  52.706  0.00  0.00    +0.000 NA
ATOM     24  C   UNL     1      25.200   0.097  53.329  0.00  0.00    +0.000 A 
ATOM     25  O   UNL     1      24.264  -0.725  53.898  0.00  0.00    +0.000 OA
ATOM     26  C   UNL     1      23.068  -0.111  53.654  0.00  0.00    +0.000 A 
ATOM     27  C   UNL     1      21.892  -0.731  54.283  0.00  0.00    +0.000 C 
BRANCH  24  28
ATOM     28  C   UNL     1      26.598  -0.238  53.598  0.00  0.00    +0.000 A 
ATOM     29  C   UNL     1      27.229  -1.258  52.870  0.00  0.00    +0.000 A 
ATOM     30  C   UNL     1      28.583  -1.546  53.070  0.00  0.00    +0.000 A 
ATOM     31  C   UNL     1      29.323  -0.823  54.003  0.00  0.00    +0.000 A 
ATOM     32  C   UNL     1      28.711   0.188  54.739  0.00  0.00    +0.000 A 
ATOM     33  C   UNL     1      27.358   0.477  54.538  0.00  0.00    +0.000 A 
ENDBRANCH  24  28
ENDBRANCH  21  22
ENDBRANCH  20  21
ENDBRANCH  19  20
ENDBRANCH   5  19
TORSDOF 8
ENDMDL
MODEL 4
REMARK VINA RESULT:    -8.790      3.216      6.557
REMARK INTER + INTRA:         -14.944
REMARK INTER:                 -13.245
REMARK INTRA:                  -1.699
REMARK UNBOUND:                -2.043
REMARK  Name = 
REMARK  10 active torsions:
REMARK  status: ('A' for Active; 'I' for Inactive)
REMARK    1  A    between atoms: C_1  and  C_2
REMARK    2  A    between atoms: C_2  and  C_12
REMARK    3  A    between atoms: C_3  and  C_4
REMARK    4  A    between atoms: C_4  and  C_5
REMARK    5  A    between atoms: C_16  and  O_17
REMARK    6  A    between atoms: O_17  and  C_18
REMARK    7  A    between atoms: C_18  and  C_19
REMARK    8  A    between atoms: C_19  and  C_20
REMARK    9  A    between atoms: C_22  and  C_23
REMARK   10  A    between atoms: C_30  and  C_31
REMARK                            x       y       z     vdW  Elec       q    Type
REMARK                         _______ _______ _______ _____ _____    ______ ____
ROOT
ATOM      1  C   UNL     1      24.444   4.406  50.163  0.00  0.00    +0.000 A 
ATOM      2  C   UNL     1      24.050   5.629  50.723  0.00  0.00    +0.000 A 
ATOM      3  C   UNL     1      22.808   5.756  51.332  0.00  0.00    +0.000 A 
ATOM      4  C   UNL     1      21.929   4.679  51.334  0.00  0.00    +0.000 A 
ATOM      5  C   UNL     1      22.247   3.494  50.658  0.00  0.00    +0.000 A 
ATOM      6  C   UNL     1      23.535   3.336  50.124  0.00  0.00    +0.000 A 
ENDROOT
BRANCH   1   8
ATOM      7  C   UNL     1      26.468   2.933  49.757  0.00  0.00    +0.000 C 
ATOM      8  C   UNL     1      25.848   4.297  49.714  0.00  0.00    +0.000 C 
ATOM      9  C   UNL     1      26.381   5.396  49.145  0.00  0.00    +0.000 C 
BRANCH   9  10
ATOM     10  C   UNL     1      27.707   5.516  48.444  0.00  0.00    +0.000 C 
BRANCH  10  11
ATOM     11  C   UNL     1      28.003   6.962  48.055  0.00  0.00    +0.000 C 
ATOM     12  O   UNL     1      27.198   7.882  48.818  0.00  0.00    +0.000 OA
ATOM     13  C   UNL     1      28.013   8.672  49.564  0.00  0.00    +0.000 C 
ATOM     14  O   UNL     1      27.618   9.548  50.322  0.00  0.00    +0.000 OA
ATOM     15  N   UNL     1      29.295   8.362  49.340  0.00  0.00    +0.000 N 
ATOM     16  C   UNL     1      29.398   7.355  48.455  0.00  0.00    +0.000 C 
ATOM     17  O   UNL     1      30.440   6.852  48.068  0.00  0.00    +0.000 OA
ATOM     18  H   UNL     1      30.060   8.810  49.767  0.00  0.00    +0.000 HD
ENDBRANCH  10  11
ENDBRANCH   9  10
ENDBRANCH   1   8
BRANCH   5  19
ATOM     19  O   UNL     1      21.347   2.465  50.457  0.00  0.00    +0.000 OA
BRANCH  19  20
ATOM     20  C   UNL     1      21.816   1.197  50.948  0.00  0.00    +0.000 C 
BRANCH  20  21
ATOM     21  C   UNL     1      21.729   1.069  52.469  0.00  0.00    +0.000 C 
BRANCH  21  22
ATOM     22  C   UNL     1      23.007   0.497  52.993  0.00  0.00    +0.000 A 
ATOM     23  N   UNL     1      24.219   1.055  52.632  0.00  0.00    +0.000 NA
ATOM     24  C   UNL     1      25.107   0.440  53.392  0.00  0.00    +0.000 A 
ATOM     25  O   UNL     1      24.566  -0.527  54.197  0.00  0.00    +0.000 OA
ATOM     26  C   UNL     1      23.223  -0.470  53.956  0.00  0.00    +0.000 A 
ATOM     27  C   UNL     1      22.385  -1.331  54.805  0.00  0.00    +0.000 C 
BRANCH  24  28
ATOM     28  C   UNL     1      26.531   0.714  53.584  0.00  0.00    +0.000 A 
ATOM     29  C   UNL     1      27.027   2.014  53.401  0.00  0.00    +0.000 A 
ATOM     30  C   UNL     1      28.373   2.306  53.644  0.00  0.00    +0.000 A 
ATOM     31  C   UNL     1      29.242   1.303  54.068  0.00  0.00    +0.000 A 
ATOM     32  C   UNL     1      28.768   0.006  54.248  0.00  0.00    +0.000 A 
ATOM     33  C   UNL     1      27.422  -0.285  54.007  0.00  0.00    +0.000 A 
ENDBRANCH  24  28
ENDBRANCH  21  22
ENDBRANCH  20  21
ENDBRANCH  19  20
ENDBRANCH   5  19
TORSDOF 8
ENDMDL
MODEL 5
REMARK VINA RESULT:    -8.782      1.488      5.043
REMARK INTER + INTRA:         -14.932
REMARK INTER:                 -12.716
REMARK INTRA:                  -2.216
REMARK UNBOUND:                -2.043
REMARK  Name = 
REMARK  10 active torsions:
REMARK  status: ('A' for Active; 'I' for Inactive)
REMARK    1  A    between atoms: C_1  and  C_2
REMARK    2  A    between atoms: C_2  and  C_12
REMARK    3  A    between atoms: C_3  and  C_4
REMARK    4  A    between atoms: C_4  and  C_5
REMARK    5  A    between atoms: C_16  and  O_17
REMARK    6  A    between atoms: O_17  and  C_18
REMARK    7  A    between atoms: C_18  and  C_19
REMARK    8  A    between atoms: C_19  and  C_20
REMARK    9  A    between atoms: C_22  and  C_23
REMARK   10  A    between atoms: C_30  and  C_31
REMARK                            x       y       z     vdW  Elec       q    Type
REMARK                         _______ _______ _______ _____ _____    ______ ____
ROOT
ATOM      1  C   UNL     1      25.275   2.983  50.798  0.00  0.00    +0.000 A 
ATOM      2  C   UNL     1      26.479   3.446  50.247  0.00  0.00    +0.000 A 
ATOM      3  C   UNL     1      26.480   4.506  49.349  0.00  0.00    +0.000 A 
ATOM      4  C   UNL     1      25.275   5.072  48.951  0.00  0.00    +0.000 A 
ATOM      5  C   UNL     1      24.055   4.534  49.380  0.00  0.00    +0.000 A 
ATOM      6  C   UNL     1      24.057   3.526  50.355  0.00  0.00    +0.000 A 
ENDROOT
BRANCH   1   8
ATOM      7  C   UNL     1      24.596   2.277  53.136  0.00  0.00    +0.000 C 
ATOM      8  C   UNL     1      25.376   1.991  51.888  0.00  0.00    +0.000 C 
ATOM      9  C   UNL     1      26.014   0.842  51.594  0.00  0.00    +0.000 C 
BRANCH   9  10
ATOM     10  C   UNL     1      26.107  -0.400  52.440  0.00  0.00    +0.000 C 
BRANCH  10  11
ATOM     11  C   UNL     1      27.334  -0.364  53.349  0.00  0.00    +0.000 C 
ATOM     12  O   UNL     1      28.286   0.620  52.900  0.00  0.00    +0.000 OA
ATOM     13  C   UNL     1      28.436   1.566  53.863  0.00  0.00    +0.000 C 
ATOM     14  O   UNL     1      29.176   2.535  53.768  0.00  0.00    +0.000 OA
ATOM     15  N   UNL     1      27.673   1.274  54.924  0.00  0.00    +0.000 N 
ATOM     16  C   UNL     1      26.976   0.143  54.718  0.00  0.00    +0.000 C 
ATOM     17  O   UNL     1      26.190  -0.361  55.503  0.00  0.00    +0.000 OA
ATOM     18  H   UNL     1      27.628   1.817  55.744  0.00  0.00    +0.000 HD
ENDBRANCH  10  11
ENDBRANCH   9  10
ENDBRANCH   1   8
BRANCH   5  19
ATOM     19  O   UNL     1      22.829   4.923  48.873  0.00  0.00    +0.000 OA
BRANCH  19  20
ATOM     20  C   UNL     1      21.834   5.129  49.891  0.00  0.00    +0.000 C 
BRANCH  20  21
ATOM     21  C   UNL     1      20.473   4.529  49.535  0.00  0.00    +0.000 C 
BRANCH  21  22
ATOM     22  C   UNL     1      20.152   3.424  50.490  0.00  0.00    +0.000 A 
ATOM     23  N   UNL     1      21.126   2.512  50.851  0.00  0.00    +0.000 NA
ATOM     24  C   UNL     1      20.573   1.802  51.817  0.00  0.00    +0.000 A 
ATOM     25  O   UNL     1      19.276   2.151  52.083  0.00  0.00    +0.000 OA
ATOM     26  C   UNL     1      19.021   3.203  51.250  0.00  0.00    +0.000 A 
ATOM     27  C   UNL     1      17.717   3.859  51.432  0.00  0.00    +0.000 C 
BRANCH  24  28
ATOM     28  C   UNL     1      21.166   0.802  52.706  0.00  0.00    +0.000 A 
ATOM     29  C   UNL     1      20.726   0.693  54.034  0.00  0.00    +0.000 A 
ATOM     30  C   UNL     1      21.236  -0.300  54.876  0.00  0.00    +0.000 A 
ATOM     31  C   UNL     1      22.194  -1.194  54.405  0.00  0.00    +0.000 A 
ATOM     32  C   UNL     1      22.647  -1.096  53.092  0.00  0.00    +0.000 A 
ATOM     33  C   UNL     1      22.136  -0.104  52.250  0.00  0.00    +0.000 A 
ENDBRANCH  24  28
ENDBRANCH  21  22
ENDBRANCH  20  21
ENDBRANCH  19  20
ENDBRANCH   5  19
TORSDOF 8
ENDMDL
MODEL 6
REMARK VINA RESULT:    -8.683      1.956      4.798
REMARK INTER + INTRA:         -14.787
REMARK INTER:                 -12.539
REMARK INTRA:                  -2.248
REMARK UNBOUND:                -2.043
REMARK  Name = 
REMARK  10 active torsions:
REMARK  status: ('A' for Active; 'I' for Inactive)
REMARK    1  A    between atoms: C_1  and  C_2
REMARK    2  A    between atoms: C_2  and  C_12
REMARK    3  A    between atoms: C_3  and  C_4
REMARK    4  A    between atoms: C_4  and  C_5
REMARK    5  A    between atoms: C_16  and  O_17
REMARK    6  A    between atoms: O_17  and  C_18
REMARK    7  A    between atoms: C_18  and  C_19
REMARK    8  A    between atoms: C_19  and  C_20
REMARK    9  A    between atoms: C_22  and  C_23
REMARK   10  A    between atoms: C_30  and  C_31
REMARK                            x       y       z     vdW  Elec       q    Type
REMARK                         _______ _______ _______ _____ _____    ______ ____
ROOT
ATOM      1  C   UNL     1      24.216   3.450  51.312  0.00  0.00    +0.000 A 
ATOM      2  C   UNL     1      23.515   3.944  52.421  0.00  0.00    +0.000 A 
ATOM      3  C   UNL     1      22.231   4.450  52.273  0.00  0.00    +0.000 A 
ATOM      4  C   UNL     1      21.660   4.520  51.008  0.00  0.00    +0.000 A 
ATOM      5  C   UNL     1      22.395   4.162  49.870  0.00  0.00    +0.000 A 
ATOM      6  C   UNL     1      23.655   3.567  50.029  0.00  0.00    +0.000 A 
ENDROOT
BRANCH   1   8
ATOM      7  C   UNL     1      26.472   2.675  50.453  0.00  0.00    +0.000 C 
ATOM      8  C   UNL     1      25.489   2.751  51.582  0.00  0.00    +0.000 C 
ATOM      9  C   UNL     1      25.721   2.403  52.863  0.00  0.00    +0.000 C 
BRANCH   9  10
ATOM     10  C   UNL     1      26.993   1.852  53.450  0.00  0.00    +0.000 C 
BRANCH  10  11
ATOM     11  C   UNL     1      26.774   0.465  54.049  0.00  0.00    +0.000 C 
ATOM     12  O   UNL     1      26.204  -0.437  53.082  0.00  0.00    +0.000 OA
ATOM     13  C   UNL     1      27.071  -1.459  52.860  0.00  0.00    +0.000 C 
ATOM     14  O   UNL     1      26.867  -2.380  52.082  0.00  0.00    +0.000 OA
ATOM     15  N   UNL     1      28.163  -1.315  53.621  0.00  0.00    +0.000 N 
ATOM     16  C   UNL     1      28.084  -0.199  54.368  0.00  0.00    +0.000 C 
ATOM     17  O   UNL     1      28.936   0.197  55.147  0.00  0.00    +0.000 OA
ATOM     18  H   UNL     1      28.922  -1.941  53.631  0.00  0.00    +0.000 HD
ENDBRANCH  10  11
ENDBRANCH   9  10
ENDBRANCH   1   8
BRANCH   5  19
ATOM     19  O   UNL     1      21.960   4.388  48.578  0.00  0.00    +0.000 OA
BRANCH  19  20
ATOM     20  C   UNL     1      20.689   3.779  48.292  0.00  0.00    +0.000 C 
BRANCH  20  21
ATOM     21  C   UNL     1      20.787   2.277  48.022  0.00  0.00    +0.000 C 
BRANCH  21  22
ATOM     22  C   UNL     1      20.409   1.525  49.258  0.00  0.00    +0.000 A 
ATOM     23  N   UNL     1      21.385   0.948  50.048  0.00  0.00    +0.000 NA
ATOM     24  C   UNL     1      20.740   0.531  51.122  0.00  0.00    +0.000 A 
ATOM     25  O   UNL     1      19.389   0.748  51.070  0.00  0.00    +0.000 OA
ATOM     26  C   UNL     1      19.187   1.405  49.889  0.00  0.00    +0.000 A 
ATOM     27  C   UNL     1      17.815   1.878  49.649  0.00  0.00    +0.000 C 
BRANCH  24  28
ATOM     28  C   UNL     1      21.258  -0.007  52.380  0.00  0.00    +0.000 A 
ATOM     29  C   UNL     1      20.418  -0.749  53.225  0.00  0.00    +0.000 A 
ATOM     30  C   UNL     1      20.915  -1.324  54.399  0.00  0.00    +0.000 A 
ATOM     31  C   UNL     1      22.255  -1.164  54.746  0.00  0.00    +0.000 A 
ATOM     32  C   UNL     1      23.100  -0.425  53.922  0.00  0.00    +0.000 A 
ATOM     33  C   UNL     1      22.604   0.149  52.748  0.00  0.00    +0.000 A 
ENDBRANCH  24  28
ENDBRANCH  21  22
ENDBRANCH  20  21
ENDBRANCH  19  20
ENDBRANCH   5  19
TORSDOF 8
ENDMDL
MODEL 7
REMARK VINA RESULT:    -8.659      2.163      5.179
REMARK INTER + INTRA:         -14.751
REMARK INTER:                 -11.728
REMARK INTRA:                  -3.024
REMARK UNBOUND:                -2.043
REMARK  Name = 
REMARK  10 active torsions:
REMARK  status: ('A' for Active; 'I' for Inactive)
REMARK    1  A    between atoms: C_1  and  C_2
REMARK    2  A    between atoms: C_2  and  C_12
REMARK    3  A    between atoms: C_3  and  C_4
REMARK    4  A    between atoms: C_4  and  C_5
REMARK    5  A    between atoms: C_16  and  O_17
REMARK    6  A    between atoms: O_17  and  C_18
REMARK    7  A    between atoms: C_18  and  C_19
REMARK    8  A    between atoms: C_19  and  C_20
REMARK    9  A    between atoms: C_22  and  C_23
REMARK   10  A    between atoms: C_30  and  C_31
REMARK                            x       y       z     vdW  Elec       q    Type
REMARK                         _______ _______ _______ _____ _____    ______ ____
ROOT
ATOM      1  C   UNL     1      25.286   3.786  50.758  0.00  0.00    +0.000 A 
ATOM      2  C   UNL     1      26.420   3.293  50.096  0.00  0.00    +0.000 A 
ATOM      3  C   UNL     1      27.076   4.070  49.150  0.00  0.00    +0.000 A 
ATOM      4  C   UNL     1      26.569   5.320  48.816  0.00  0.00    +0.000 A 
ATOM      5  C   UNL     1      25.360   5.773  49.361  0.00  0.00    +0.000 A 
ATOM      6  C   UNL     1      24.750   5.028  50.382  0.00  0.00    +0.000 A 
ENDROOT
BRANCH   1   8
ATOM      7  C   UNL     1      23.925   3.702  52.895  0.00  0.00    +0.000 C 
ATOM      8  C   UNL     1      24.768   2.983  51.885  0.00  0.00    +0.000 C 
ATOM      9  C   UNL     1      24.954   1.651  51.806  0.00  0.00    +0.000 C 
BRANCH   9  10
ATOM     10  C   UNL     1      24.382   0.589  52.707  0.00  0.00    +0.000 C 
BRANCH  10  11
ATOM     11  C   UNL     1      25.452  -0.410  53.140  0.00  0.00    +0.000 C 
ATOM     12  O   UNL     1      26.771   0.157  53.023  0.00  0.00    +0.000 OA
ATOM     13  C   UNL     1      27.344   0.208  54.254  0.00  0.00    +0.000 C 
ATOM     14  O   UNL     1      28.464   0.648  54.476  0.00  0.00    +0.000 OA
ATOM     15  N   UNL     1      26.515  -0.299  55.174  0.00  0.00    +0.000 N 
ATOM     16  C   UNL     1      25.359  -0.697  54.612  0.00  0.00    +0.000 C 
ATOM     17  O   UNL     1      24.411  -1.186  55.205  0.00  0.00    +0.000 OA
ATOM     18  H   UNL     1      26.722  -0.370  56.133  0.00  0.00    +0.000 HD
ENDBRANCH  10  11
ENDBRANCH   9  10
ENDBRANCH   1   8
BRANCH   5  19
ATOM     19  O   UNL     1      24.706   6.911  48.929  0.00  0.00    +0.000 OA
BRANCH  19  20
ATOM     20  C   UNL     1      24.091   6.756  47.638  0.00  0.00    +0.000 C 
BRANCH  20  21
ATOM     21  C   UNL     1      22.596   7.076  47.640  0.00  0.00    +0.000 C 
BRANCH  21  22
ATOM     22  C   UNL     1      21.913   6.253  48.685  0.00  0.00    +0.000 A 
ATOM     23  N   UNL     1      21.907   4.874  48.591  0.00  0.00    +0.000 NA
ATOM     24  C   UNL     1      21.392   4.466  49.736  0.00  0.00    +0.000 A 
ATOM     25  O   UNL     1      21.009   5.488  50.562  0.00  0.00    +0.000 OA
ATOM     26  C   UNL     1      21.366   6.626  49.897  0.00  0.00    +0.000 A 
ATOM     27  C   UNL     1      21.181   7.884  50.638  0.00  0.00    +0.000 C 
BRANCH  24  28
ATOM     28  C   UNL     1      21.283   3.116  50.290  0.00  0.00    +0.000 A 
ATOM     29  C   UNL     1      20.650   2.912  51.525  0.00  0.00    +0.000 A 
ATOM     30  C   UNL     1      20.480   1.621  52.037  0.00  0.00    +0.000 A 
ATOM     31  C   UNL     1      20.945   0.518  51.323  0.00  0.00    +0.000 A 
ATOM     32  C   UNL     1      21.582   0.703  50.099  0.00  0.00    +0.000 A 
ATOM     33  C   UNL     1      21.750   1.993  49.587  0.00  0.00    +0.000 A 
ENDBRANCH  24  28
ENDBRANCH  21  22
ENDBRANCH  20  21
ENDBRANCH  19  20
ENDBRANCH   5  19
TORSDOF 8
ENDMDL
MODEL 8
REMARK VINA RESULT:    -8.510      1.896      3.003
REMARK INTER + INTRA:         -14.533
REMARK INTER:                 -13.030
REMARK INTRA:                  -1.502
REMARK UNBOUND:                -2.043
REMARK  Name = 
REMARK  10 active torsions:
REMARK  status: ('A' for Active; 'I' for Inactive)
REMARK    1  A    between atoms: C_1  and  C_2
REMARK    2  A    between atoms: C_2  and  C_12
REMARK    3  A    between atoms: C_3  and  C_4
REMARK    4  A    between atoms: C_4  and  C_5
REMARK    5  A    between atoms: C_16  and  O_17
REMARK    6  A    between atoms: O_17  and  C_18
REMARK    7  A    between atoms: C_18  and  C_19
REMARK    8  A    between atoms: C_19  and  C_20
REMARK    9  A    between atoms: C_22  and  C_23
REMARK   10  A    between atoms: C_30  and  C_31
REMARK                            x       y       z     vdW  Elec       q    Type
REMARK                         _______ _______ _______ _____ _____    ______ ____
ROOT
ATOM      1  C   UNL     1      21.761  -0.129  53.115  0.00  0.00    +0.000 A 
ATOM      2  C   UNL     1      20.519  -0.529  53.628  0.00  0.00    +0.000 A 
ATOM      3  C   UNL     1      19.359  -0.342  52.887  0.00  0.00    +0.000 A 
ATOM      4  C   UNL     1      19.425   0.299  51.655  0.00  0.00    +0.000 A 
ATOM      5  C   UNL     1      20.634   0.831  51.188  0.00  0.00    +0.000 A 
ATOM      6  C   UNL     1      21.816   0.561  51.893  0.00  0.00    +0.000 A 
ENDROOT
BRANCH   1   8
ATOM      7  C   UNL     1      22.729  -1.255  55.170  0.00  0.00    +0.000 C 
ATOM      8  C   UNL     1      22.961  -0.540  53.873  0.00  0.00    +0.000 C 
ATOM      9  C   UNL     1      24.144  -0.392  53.246  0.00  0.00    +0.000 C 
BRANCH   9  10
ATOM     10  C   UNL     1      25.492  -0.887  53.698  0.00  0.00    +0.000 C 
BRANCH  10  11
ATOM     11  C   UNL     1      26.621  -0.205  52.931  0.00  0.00    +0.000 C 
ATOM     12  O   UNL     1      26.104   0.687  51.925  0.00  0.00    +0.000 OA
ATOM     13  C   UNL     1      26.500   1.955  52.209  0.00  0.00    +0.000 C 
ATOM     14  O   UNL     1      26.209   2.935  51.536  0.00  0.00    +0.000 OA
ATOM     15  N   UNL     1      27.256   1.970  53.312  0.00  0.00    +0.000 N 
ATOM     16  C   UNL     1      27.391   0.732  53.820  0.00  0.00    +0.000 C 
ATOM     17  O   UNL     1      28.013   0.439  54.828  0.00  0.00    +0.000 OA
ATOM     18  H   UNL     1      27.659   2.779  53.702  0.00  0.00    +0.000 HD
ENDBRANCH  10  11
ENDBRANCH   9  10
ENDBRANCH   1   8
BRANCH   5  19
ATOM     19  O   UNL     1      20.731   1.642  50.074  0.00  0.00    +0.000 OA
BRANCH  19  20
ATOM     20  C   UNL     1      21.266   2.945  50.365  0.00  0.00    +0.000 C 
BRANCH  20  21
ATOM     21  C   UNL     1      21.733   3.698  49.119  0.00  0.00    +0.000 C 
BRANCH  21  22
ATOM     22  C   UNL     1      22.916   4.544  49.465  0.00  0.00    +0.000 A 
ATOM     23  N   UNL     1      24.141   4.303  48.871  0.00  0.00    +0.000 NA
ATOM     24  C   UNL     1      24.899   5.315  49.252  0.00  0.00    +0.000 A 
ATOM     25  O   UNL     1      24.270   6.182  50.105  0.00  0.00    +0.000 OA
ATOM     26  C   UNL     1      22.998   5.699  50.217  0.00  0.00    +0.000 A 
ATOM     27  C   UNL     1      22.063   6.535  50.986  0.00  0.00    +0.000 C 
BRANCH  24  28
ATOM     28  C   UNL     1      26.241   5.701  48.815  0.00  0.00    +0.000 A 
ATOM     29  C   UNL     1      26.510   7.033  48.466  0.00  0.00    +0.000 A 
ATOM     30  C   UNL     1      27.802   7.431  48.109  0.00  0.00    +0.000 A 
ATOM     31  C   UNL     1      28.841   6.503  48.092  0.00  0.00    +0.000 A 
ATOM     32  C   UNL     1      28.591   5.176  48.429  0.00  0.00    +0.000 A 
ATOM     33  C   UNL     1      27.299   4.778  48.787  0.00  0.00    +0.000 A 
ENDBRANCH  24  28
ENDBRANCH  21  22
ENDBRANCH  20  21
ENDBRANCH  19  20
ENDBRANCH   5  19
TORSDOF 8
ENDMDL
MODEL 9
REMARK VINA RESULT:    -8.500      2.996      6.172
REMARK INTER + INTRA:         -14.518
REMARK INTER:                 -12.072
REMARK INTRA:                  -2.446
REMARK UNBOUND:                -2.043
REMARK  Name = 
REMARK  10 active torsions:
REMARK  status: ('A' for Active; 'I' for Inactive)
REMARK    1  A    between atoms: C_1  and  C_2
REMARK    2  A    between atoms: C_2  and  C_12
REMARK    3  A    between atoms: C_3  and  C_4
REMARK    4  A    between atoms: C_4  and  C_5
REMARK    5  A    between atoms: C_16  and  O_17
REMARK    6  A    between atoms: O_17  and  C_18
REMARK    7  A    between atoms: C_18  and  C_19
REMARK    8  A    between atoms: C_19  and  C_20
REMARK    9  A    between atoms: C_22  and  C_23
REMARK   10  A    between atoms: C_30  and  C_31
REMARK                            x       y       z     vdW  Elec       q    Type
REMARK                         _______ _______ _______ _____ _____    ______ ____
ROOT
ATOM      1  C   UNL     1      25.478   1.418  52.092  0.00  0.00    +0.000 A 
ATOM      2  C   UNL     1      26.658   0.690  51.882  0.00  0.00    +0.000 A 
ATOM      3  C   UNL     1      26.816  -0.570  52.444  0.00  0.00    +0.000 A 
ATOM      4  C   UNL     1      25.822  -1.087  53.266  0.00  0.00    +0.000 A 
ATOM      5  C   UNL     1      24.698  -0.319  53.601  0.00  0.00    +0.000 A 
ATOM      6  C   UNL     1      24.498   0.913  52.962  0.00  0.00    +0.000 A 
ENDROOT
BRANCH   1   8
ATOM      7  C   UNL     1      26.413   3.012  50.356  0.00  0.00    +0.000 C 
ATOM      8  C   UNL     1      25.307   2.655  51.303  0.00  0.00    +0.000 C 
ATOM      9  C   UNL     1      24.101   3.251  51.379  0.00  0.00    +0.000 C 
BRANCH   9  10
ATOM     10  C   UNL     1      23.593   4.405  50.556  0.00  0.00    +0.000 C 
BRANCH  10  11
ATOM     11  C   UNL     1      23.478   5.677  51.392  0.00  0.00    +0.000 C 
ATOM     12  O   UNL     1      24.595   6.556  51.160  0.00  0.00    +0.000 OA
ATOM     13  C   UNL     1      24.141   7.722  50.632  0.00  0.00    +0.000 C 
ATOM     14  O   UNL     1      24.858   8.664  50.322  0.00  0.00    +0.000 OA
ATOM     15  N   UNL     1      22.809   7.692  50.514  0.00  0.00    +0.000 N 
ATOM     16  C   UNL     1      22.315   6.516  50.941  0.00  0.00    +0.000 C 
ATOM     17  O   UNL     1      21.137   6.197  50.941  0.00  0.00    +0.000 OA
ATOM     18  H   UNL     1      22.263   8.431  50.161  0.00  0.00    +0.000 HD
ENDBRANCH  10  11
ENDBRANCH   9  10
ENDBRANCH   1   8
BRANCH   5  19
ATOM     19  O   UNL     1      23.776  -0.694  54.559  0.00  0.00    +0.000 OA
BRANCH  19  20
ATOM     20  C   UNL     1      22.584  -1.276  54.002  0.00  0.00    +0.000 C 
BRANCH  20  21
ATOM     21  C   UNL     1      21.306  -0.546  54.415  0.00  0.00    +0.000 C 
BRANCH  21  22
ATOM     22  C   UNL     1      20.678   0.077  53.210  0.00  0.00    +0.000 A 
ATOM     23  N   UNL     1      21.420   0.904  52.388  0.00  0.00    +0.000 NA
ATOM     24  C   UNL     1      20.635   1.131  51.350  0.00  0.00    +0.000 A 
ATOM     25  O   UNL     1      19.401   0.549  51.457  0.00  0.00    +0.000 OA
ATOM     26  C   UNL     1      19.442  -0.142  52.634  0.00  0.00    +0.000 A 
ATOM     27  C   UNL     1      18.266  -0.977  52.926  0.00  0.00    +0.000 C 
BRANCH  24  28
ATOM     28  C   UNL     1      20.925   1.796  50.080  0.00  0.00    +0.000 A 
ATOM     29  C   UNL     1      21.890   1.264  49.212  0.00  0.00    +0.000 A 
ATOM     30  C   UNL     1      22.133   1.851  47.966  0.00  0.00    +0.000 A 
ATOM     31  C   UNL     1      21.417   2.980  47.572  0.00  0.00    +0.000 A 
ATOM     32  C   UNL     1      20.461   3.526  48.424  0.00  0.00    +0.000 A 
ATOM     33  C   UNL     1      20.218   2.938  49.669  0.00  0.00    +0.000 A 
ENDBRANCH  24  28
ENDBRANCH  21  22
ENDBRANCH  20  21
ENDBRANCH  19  20
ENDBRANCH   5  19
TORSDOF 8
ENDMDL
