MODEL 1
REMARK VINA RESULT:    -8.493      0.000      0.000
REMARK INTER + INTRA:         -13.475
REMARK INTER:                 -11.969
REMARK INTRA:                  -1.507
REMARK UNBOUND:                -1.507
REMARK  Name = 
REMARK  12 active torsions:
REMARK  status: ('A' for Active; 'I' for Inactive)
REMARK    1  A    between atoms: C_1  and  C_2
REMARK    2  A    between atoms: C_2  and  C_3
REMARK    3  A    between atoms: C_4  and  C_5
REMARK    4  A    between atoms: C_5  and  C_6
REMARK    5  A    between atoms: C_6  and  O_7
REMARK    6  A    between atoms: C_6  and  C_14
REMARK    7  A    between atoms: O_7  and  C_8
REMARK    8  A    between atoms: C_8  and  C_10
REMARK    9  A    between atoms: C_11  and  C_12
REMARK   10  A    between atoms: C_11  and  C_13
REMARK   11  A    between atoms: C_19  and  O_20
REMARK   12  A    between atoms: C_23  and  O_24
REMARK                            x       y       z     vdW  Elec       q    Type
REMARK                         _______ _______ _______ _____ _____    ______ ____
ROOT
ATOM      1  C   UNL     1      24.928   0.378  53.038  0.00  0.00    +0.000 C 
ATOM      2  C   UNL     1      25.227  -0.875  52.671  0.00  0.00    +0.000 C 
ATOM      3  C   UNL     1      26.562  -1.447  52.745  0.00  0.00    +0.000 C 
ATOM      4  O   UNL     1      26.754  -2.621  52.440  0.00  0.00    +0.000 OA
ATOM      5  C   UNL     1      27.660  -0.593  53.200  0.00  0.00    +0.000 A 
ATOM      6  C   UNL     1      28.952  -1.131  53.263  0.00  0.00    +0.000 A 
ATOM      7  C   UNL     1      30.021  -0.344  53.669  0.00  0.00    +0.000 A 
ATOM      8  C   UNL     1      29.802   0.987  54.011  0.00  0.00    +0.000 A 
ATOM      9  C   UNL     1      28.510   1.525  53.957  0.00  0.00    +0.000 A 
ATOM     10  C   UNL     1      27.417   0.740  53.555  0.00  0.00    +0.000 A 
ATOM     11  C   UNL     1      26.024   1.284  53.500  0.00  0.00    +0.000 C 
ATOM     12  O   UNL     1      25.749   2.435  53.817  0.00  0.00    +0.000 OA
ENDROOT
BRANCH   6  13
ATOM     13  O   UNL     1      29.251  -2.428  52.939  0.00  0.00    +0.000 OA
ATOM     14  H   UNL     1      29.334  -2.678  52.040  0.00  0.00    +0.000 HD
ENDBRANCH   6  13
BRANCH   9  15
ATOM     15  O   UNL     1      28.344   2.836  54.301  0.00  0.00    +0.000 OA
ATOM     16  H   UNL     1      27.775   3.066  55.009  0.00  0.00    +0.000 HD
ENDBRANCH   9  15
BRANCH   1  17
ATOM     17  C   UNL     1      23.516   0.952  53.048  0.00  0.00    +0.000 C 
BRANCH  17  18
ATOM     18  C   UNL     1      23.322   2.045  51.970  0.00  0.00    +0.000 C 
BRANCH  18  22
ATOM     19  C   UNL     1      21.946   3.643  49.736  0.00  0.00    +0.000 C 
ATOM     20  C   UNL     1      22.260   2.175  49.651  0.00  0.00    +0.000 C 
ATOM     21  C   UNL     1      21.858   1.462  48.388  0.00  0.00    +0.000 C 
ATOM     22  C   UNL     1      22.879   1.494  50.636  0.00  0.00    +0.000 C 
ENDBRANCH  18  22
ENDBRANCH  17  18
BRANCH  17  23
ATOM     23  O   UNL     1      22.548  -0.138  53.061  0.00  0.00    +0.000 OA
BRANCH  23  24
ATOM     24  C   UNL     1      21.354  -0.014  53.689  0.00  0.00    +0.000 C 
ATOM     25  O   UNL     1      21.159   0.419  54.809  0.00  0.00    +0.000 OA
BRANCH  24  26
ATOM     26  C   UNL     1      20.309  -0.249  52.658  0.00  0.00    +0.000 C 
ATOM     27  C   UNL     1      19.609   0.726  52.044  0.00  0.00    +0.000 C 
ATOM     28  C   UNL     1      18.645   0.399  50.937  0.00  0.00    +0.000 C 
ATOM     29  C   UNL     1      19.730   2.192  52.368  0.00  0.00    +0.000 C 
ENDBRANCH  24  26
ENDBRANCH  23  24
ENDBRANCH  17  23
ENDBRANCH   1  17
TORSDOF 8
ENDMDL
MODEL 2
REMARK VINA RESULT:    -8.245      1.927      4.089
REMARK INTER + INTRA:         -13.126
REMARK INTER:                 -12.063
REMARK INTRA:                  -1.063
REMARK UNBOUND:                -1.507
REMARK  Name = 
REMARK  12 active torsions:
REMARK  status: ('A' for Active; 'I' for Inactive)
REMARK    1  A    between atoms: C_1  and  C_2
REMARK    2  A    between atoms: C_2  and  C_3
REMARK    3  A    between atoms: C_4  and  C_5
REMARK    4  A    between atoms: C_5  and  C_6
REMARK    5  A    between atoms: C_6  and  O_7
REMARK    6  A    between atoms: C_6  and  C_14
REMARK    7  A    between atoms: O_7  and  C_8
REMARK    8  A    between atoms: C_8  and  C_10
REMARK    9  A    between atoms: C_11  and  C_12
REMARK   10  A    between atoms: C_11  and  C_13
REMARK   11  A    between atoms: C_19  and  O_20
REMARK   12  A    between atoms: C_23  and  O_24
REMARK                            x       y       z     vdW  Elec       q    Type
REMARK                         _______ _______ _______ _____ _____    ______ ____
ROOT
ATOM      1  C   UNL     1      24.986   0.626  52.506  0.00  0.00    +0.000 C 
ATOM      2  C   UNL     1      25.253  -0.659  52.244  0.00  0.00    +0.000 C 
ATOM      3  C   UNL     1      26.520  -1.304  52.551  0.00  0.00    +0.000 C 
ATOM      4  O   UNL     1      26.678  -2.502  52.330  0.00  0.00    +0.000 OA
ATOM      5  C   UNL     1      27.590  -0.494  53.135  0.00  0.00    +0.000 A 
ATOM      6  C   UNL     1      28.819  -1.103  53.421  0.00  0.00    +0.000 A 
ATOM      7  C   UNL     1      29.863  -0.360  53.955  0.00  0.00    +0.000 A 
ATOM      8  C   UNL     1      29.682   0.998  54.202  0.00  0.00    +0.000 A 
ATOM      9  C   UNL     1      28.452   1.608  53.924  0.00  0.00    +0.000 A 
ATOM     10  C   UNL     1      27.384   0.868  53.390  0.00  0.00    +0.000 A 
ATOM     11  C   UNL     1      26.055   1.489  53.095  0.00  0.00    +0.000 C 
ATOM     12  O   UNL     1      25.811   2.670  53.316  0.00  0.00    +0.000 OA
ENDROOT
BRANCH   6  13
ATOM     13  O   UNL     1      29.077  -2.430  53.203  0.00  0.00    +0.000 OA
ATOM     14  H   UNL     1      29.340  -2.722  52.353  0.00  0.00    +0.000 HD
ENDBRANCH   6  13
BRANCH   9  15
ATOM     15  O   UNL     1      28.323   2.941  54.181  0.00  0.00    +0.000 OA
ATOM     16  H   UNL     1      27.591   3.255  54.676  0.00  0.00    +0.000 HD
ENDBRANCH   9  15
BRANCH   1  17
ATOM     17  C   UNL     1      23.629   1.283  52.271  0.00  0.00    +0.000 C 
BRANCH  17  18
ATOM     18  C   UNL     1      22.768   1.321  53.555  0.00  0.00    +0.000 C 
BRANCH  18  22
ATOM     19  C   UNL     1      22.713  -1.298  55.160  0.00  0.00    +0.000 C 
ATOM     20  C   UNL     1      21.613  -0.853  54.236  0.00  0.00    +0.000 C 
ATOM     21  C   UNL     1      20.426  -1.766  54.097  0.00  0.00    +0.000 C 
ATOM     22  C   UNL     1      21.648   0.308  53.552  0.00  0.00    +0.000 C 
ENDBRANCH  18  22
ENDBRANCH  17  18
BRANCH  17  23
ATOM     23  O   UNL     1      23.816   2.546  51.566  0.00  0.00    +0.000 OA
BRANCH  23  24
ATOM     24  C   UNL     1      23.662   2.633  50.223  0.00  0.00    +0.000 C 
ATOM     25  O   UNL     1      22.941   1.946  49.524  0.00  0.00    +0.000 OA
BRANCH  24  26
ATOM     26  C   UNL     1      24.327   3.894  49.803  0.00  0.00    +0.000 C 
ATOM     27  C   UNL     1      25.644   4.010  49.533  0.00  0.00    +0.000 C 
ATOM     28  C   UNL     1      26.210   5.302  49.011  0.00  0.00    +0.000 C 
ATOM     29  C   UNL     1      26.645   2.896  49.693  0.00  0.00    +0.000 C 
ENDBRANCH  24  26
ENDBRANCH  23  24
ENDBRANCH  17  23
ENDBRANCH   1  17
TORSDOF 8
ENDMDL
MODEL 3
REMARK VINA RESULT:    -8.169      1.977      4.558
REMARK INTER + INTRA:         -13.018
REMARK INTER:                 -11.868
REMARK INTRA:                  -1.149
REMARK UNBOUND:                -1.507
REMARK  Name = 
REMARK  12 active torsions:
REMARK  status: ('A' for Active; 'I' for Inactive)
REMARK    1  A    between atoms: C_1  and  C_2
REMARK    2  A    between atoms: C_2  and  C_3
REMARK    3  A    between atoms: C_4  and  C_5
REMARK    4  A    between atoms: C_5  and  C_6
REMARK    5  A    between atoms: C_6  and  O_7
REMARK    6  A    between atoms: C_6  and  C_14
REMARK    7  A    between atoms: O_7  and  C_8
REMARK    8  A    between atoms: C_8  and  C_10
REMARK    9  A    between atoms: C_11  and  C_12
REMARK   10  A    between atoms: C_11  and  C_13
REMARK   11  A    between atoms: C_19  and  O_20
REMARK   12  A    between atoms: C_23  and  O_24
REMARK                            x       y       z     vdW  Elec       q    Type
REMARK                         _______ _______ _______ _____ _____    ______ ____
ROOT
ATOM      1  C   UNL     1      25.498   0.936  52.698  0.00  0.00    +0.000 C 
ATOM      2  C   UNL     1      26.278   1.932  53.136  0.00  0.00    +0.000 C 
ATOM      3  C   UNL     1      27.680   1.773  53.487  0.00  0.00    +0.000 C 
ATOM      4  O   UNL     1      28.350   2.743  53.833  0.00  0.00    +0.000 OA
ATOM      5  C   UNL     1      28.269   0.435  53.407  0.00  0.00    +0.000 A 
ATOM      6  C   UNL     1      29.616   0.268  53.756  0.00  0.00    +0.000 A 
ATOM      7  C   UNL     1      30.202  -0.989  53.713  0.00  0.00    +0.000 A 
ATOM      8  C   UNL     1      29.441  -2.088  53.323  0.00  0.00    +0.000 A 
ATOM      9  C   UNL     1      28.096  -1.922  52.967  0.00  0.00    +0.000 A 
ATOM     10  C   UNL     1      27.491  -0.655  52.998  0.00  0.00    +0.000 A 
ATOM     11  C   UNL     1      26.061  -0.447  52.610  0.00  0.00    +0.000 C 
ATOM     12  O   UNL     1      25.338  -1.359  52.226  0.00  0.00    +0.000 OA
ENDROOT
BRANCH   6  13
ATOM     13  O   UNL     1      30.430   1.296  54.153  0.00  0.00    +0.000 OA
ATOM     14  H   UNL     1      30.337   1.662  55.011  0.00  0.00    +0.000 HD
ENDBRANCH   6  13
BRANCH   9  15
ATOM     15  O   UNL     1      27.390  -3.028  52.593  0.00  0.00    +0.000 OA
ATOM     16  H   UNL     1      27.019  -3.591  53.244  0.00  0.00    +0.000 HD
ENDBRANCH   9  15
BRANCH   1  17
ATOM     17  C   UNL     1      24.054   1.117  52.242  0.00  0.00    +0.000 C 
BRANCH  17  18
ATOM     18  C   UNL     1      23.040   0.680  53.326  0.00  0.00    +0.000 C 
BRANCH  18  22
ATOM     19  C   UNL     1      20.951  -1.386  54.221  0.00  0.00    +0.000 C 
ATOM     20  C   UNL     1      20.700  -0.331  53.179  0.00  0.00    +0.000 C 
ATOM     21  C   UNL     1      19.337  -0.310  52.542  0.00  0.00    +0.000 C 
ATOM     22  C   UNL     1      21.625   0.578  52.811  0.00  0.00    +0.000 C 
ENDBRANCH  18  22
ENDBRANCH  17  18
BRANCH  17  23
ATOM     23  O   UNL     1      23.885   2.453  51.682  0.00  0.00    +0.000 OA
BRANCH  23  24
ATOM     24  C   UNL     1      23.609   2.638  50.370  0.00  0.00    +0.000 C 
ATOM     25  O   UNL     1      22.858   1.974  49.680  0.00  0.00    +0.000 OA
BRANCH  24  26
ATOM     26  C   UNL     1      24.184   3.958  49.999  0.00  0.00    +0.000 C 
ATOM     27  C   UNL     1      25.469   4.159  49.645  0.00  0.00    +0.000 C 
ATOM     28  C   UNL     1      25.936   5.513  49.184  0.00  0.00    +0.000 C 
ATOM     29  C   UNL     1      26.529   3.089  49.649  0.00  0.00    +0.000 C 
ENDBRANCH  24  26
ENDBRANCH  23  24
ENDBRANCH  17  23
ENDBRANCH   1  17
TORSDOF 8
ENDMDL
MODEL 4
REMARK VINA RESULT:    -8.160      1.374      3.614
REMARK INTER + INTRA:         -13.006
REMARK INTER:                 -11.299
REMARK INTRA:                  -1.707
REMARK UNBOUND:                -1.507
REMARK  Name = 
REMARK  12 active torsions:
REMARK  status: ('A' for Active; 'I' for Inactive)
REMARK    1  A    between atoms: C_1  and  C_2
REMARK    2  A    between atoms: C_2  and  C_3
REMARK    3  A    between atoms: C_4  and  C_5
REMARK    4  A    between atoms: C_5  and  C_6
REMARK    5  A    between atoms: C_6  and  O_7
REMARK    6  A    between atoms: C_6  and  C_14
REMARK    7  A    between atoms: O_7  and  C_8
REMARK    8  A    between atoms: C_8  and  C_10
REMARK    9  A    between atoms: C_11  and  C_12
REMARK   10  A    between atoms: C_11  and  C_13
REMARK   11  A    between atoms: C_19  and  O_20
REMARK   12  A    between atoms: C_23  and  O_24
REMARK                            x       y       z     vdW  Elec       q    Type
REMARK                         _______ _______ _______ _____ _____    ______ ____
ROOT
ATOM      1  C   UNL     1      25.220   0.175  53.212  0.00  0.00    +0.000 C 
ATOM      2  C   UNL     1      25.736   1.347  53.601  0.00  0.00    +0.000 C 
ATOM      3  C   UNL     1      27.158   1.581  53.808  0.00  0.00    +0.000 C 
ATOM      4  O   UNL     1      27.566   2.697  54.116  0.00  0.00    +0.000 OA
ATOM      5  C   UNL     1      28.080   0.458  53.629  0.00  0.00    +0.000 A 
ATOM      6  C   UNL     1      29.449   0.670  53.838  0.00  0.00    +0.000 A 
ATOM      7  C   UNL     1      30.350  -0.376  53.699  0.00  0.00    +0.000 A 
ATOM      8  C   UNL     1      29.884  -1.641  53.352  0.00  0.00    +0.000 A 
ATOM      9  C   UNL     1      28.517  -1.854  53.135  0.00  0.00    +0.000 A 
ATOM     10  C   UNL     1      27.594  -0.804  53.265  0.00  0.00    +0.000 A 
ATOM     11  C   UNL     1      26.129  -0.998  53.027  0.00  0.00    +0.000 C 
ATOM     12  O   UNL     1      25.649  -2.073  52.688  0.00  0.00    +0.000 OA
ENDROOT
BRANCH   6  13
ATOM     13  O   UNL     1      29.985   1.882  54.185  0.00  0.00    +0.000 OA
ATOM     14  H   UNL     1      29.793   2.256  55.022  0.00  0.00    +0.000 HD
ENDBRANCH   6  13
BRANCH   9  15
ATOM     15  O   UNL     1      28.107  -3.111  52.798  0.00  0.00    +0.000 OA
ATOM     16  H   UNL     1      28.477  -3.541  52.052  0.00  0.00    +0.000 HD
ENDBRANCH   9  15
BRANCH   1  17
ATOM     17  C   UNL     1      23.743  -0.050  52.907  0.00  0.00    +0.000 C 
BRANCH  17  18
ATOM     18  C   UNL     1      23.038  -0.876  54.008  0.00  0.00    +0.000 C 
BRANCH  18  22
ATOM     19  C   UNL     1      20.427   0.605  54.662  0.00  0.00    +0.000 C 
ATOM     20  C   UNL     1      20.492  -0.697  53.911  0.00  0.00    +0.000 C 
ATOM     21  C   UNL     1      19.185  -1.298  53.470  0.00  0.00    +0.000 C 
ATOM     22  C   UNL     1      21.649  -1.324  53.619  0.00  0.00    +0.000 C 
ENDBRANCH  18  22
ENDBRANCH  17  18
BRANCH  17  23
ATOM     23  O   UNL     1      23.125   1.219  52.537  0.00  0.00    +0.000 OA
BRANCH  23  24
ATOM     24  C   UNL     1      22.967   1.575  51.241  0.00  0.00    +0.000 C 
ATOM     25  O   UNL     1      23.775   2.154  50.538  0.00  0.00    +0.000 OA
BRANCH  24  26
ATOM     26  C   UNL     1      21.737   0.891  50.761  0.00  0.00    +0.000 C 
ATOM     27  C   UNL     1      20.490   1.388  50.886  0.00  0.00    +0.000 C 
ATOM     28  C   UNL     1      19.315   0.674  50.276  0.00  0.00    +0.000 C 
ATOM     29  C   UNL     1      20.153   2.671  51.599  0.00  0.00    +0.000 C 
ENDBRANCH  24  26
ENDBRANCH  23  24
ENDBRANCH  17  23
ENDBRANCH   1  17
TORSDOF 8
ENDMDL
MODEL 5
REMARK VINA RESULT:    -7.948      2.114      3.392
REMARK INTER + INTRA:         -12.707
REMARK INTER:                 -10.870
REMARK INTRA:                  -1.837
REMARK UNBOUND:                -1.507
REMARK  Name = 
REMARK  12 active torsions:
REMARK  status: ('A' for Active; 'I' for Inactive)
REMARK    1  A    between atoms: C_1  and  C_2
REMARK    2  A    between atoms: C_2  and  C_3
REMARK    3  A    between atoms: C_4  and  C_5
REMARK    4  A    between atoms: C_5  and  C_6
REMARK    5  A    between atoms: C_6  and  O_7
REMARK    6  A    between atoms: C_6  and  C_14
REMARK    7  A    between atoms: O_7  and  C_8
REMARK    8  A    between atoms: C_8  and  C_10
REMARK    9  A    between atoms: C_11  and  C_12
REMARK   10  A    between atoms: C_11  and  C_13
REMARK   11  A    between atoms: C_19  and  O_20
REMARK   12  A    between atoms: C_23  and  O_24
REMARK                            x       y       z     vdW  Elec       q    Type
REMARK                         _______ _______ _______ _____ _____    ______ ____
ROOT
ATOM      1  C   UNL     1      23.463   1.158  52.240  0.00  0.00    +0.000 C 
ATOM      2  C   UNL     1      23.569   0.225  53.195  0.00  0.00    +0.000 C 
ATOM      3  C   UNL     1      24.794  -0.050  53.929  0.00  0.00    +0.000 C 
ATOM      4  O   UNL     1      24.806  -0.885  54.830  0.00  0.00    +0.000 OA
ATOM      5  C   UNL     1      26.001   0.698  53.573  0.00  0.00    +0.000 A 
ATOM      6  C   UNL     1      27.189   0.431  54.265  0.00  0.00    +0.000 A 
ATOM      7  C   UNL     1      28.358   1.106  53.940  0.00  0.00    +0.000 A 
ATOM      8  C   UNL     1      28.343   2.050  52.917  0.00  0.00    +0.000 A 
ATOM      9  C   UNL     1      27.154   2.324  52.229  0.00  0.00    +0.000 A 
ATOM     10  C   UNL     1      25.962   1.655  52.551  0.00  0.00    +0.000 A 
ATOM     11  C   UNL     1      24.675   1.937  51.842  0.00  0.00    +0.000 C 
ATOM     12  O   UNL     1      24.576   2.776  50.955  0.00  0.00    +0.000 OA
ENDROOT
BRANCH   6  13
ATOM     13  O   UNL     1      27.288  -0.484  55.279  0.00  0.00    +0.000 OA
ATOM     14  H   UNL     1      27.560  -0.210  56.133  0.00  0.00    +0.000 HD
ENDBRANCH   6  13
BRANCH   9  15
ATOM     15  O   UNL     1      27.188   3.257  51.233  0.00  0.00    +0.000 OA
ATOM     16  H   UNL     1      26.651   3.151  50.473  0.00  0.00    +0.000 HD
ENDBRANCH   9  15
BRANCH   1  17
ATOM     17  C   UNL     1      22.159   1.512  51.532  0.00  0.00    +0.000 C 
BRANCH  17  18
ATOM     18  C   UNL     1      21.459   0.267  50.940  0.00  0.00    +0.000 C 
BRANCH  18  22
ATOM     19  C   UNL     1      19.659  -0.557  53.289  0.00  0.00    +0.000 C 
ATOM     20  C   UNL     1      19.145  -0.012  51.984  0.00  0.00    +0.000 C 
ATOM     21  C   UNL     1      17.654   0.120  51.840  0.00  0.00    +0.000 C 
ATOM     22  C   UNL     1      19.952   0.359  50.971  0.00  0.00    +0.000 C 
ENDBRANCH  18  22
ENDBRANCH  17  18
BRANCH  17  23
ATOM     23  O   UNL     1      21.356   2.371  52.395  0.00  0.00    +0.000 OA
BRANCH  23  24
ATOM     24  C   UNL     1      21.191   3.687  52.124  0.00  0.00    +0.000 C 
ATOM     25  O   UNL     1      22.065   4.529  52.032  0.00  0.00    +0.000 OA
BRANCH  24  26
ATOM     26  C   UNL     1      19.778   3.856  51.692  0.00  0.00    +0.000 C 
ATOM     27  C   UNL     1      19.364   3.838  50.409  0.00  0.00    +0.000 C 
ATOM     28  C   UNL     1      17.900   3.912  50.074  0.00  0.00    +0.000 C 
ATOM     29  C   UNL     1      20.283   3.722  49.221  0.00  0.00    +0.000 C 
ENDBRANCH  24  26
ENDBRANCH  23  24
ENDBRANCH  17  23
ENDBRANCH   1  17
TORSDOF 8
ENDMDL
MODEL 6
REMARK VINA RESULT:    -7.911      2.095      7.136
REMARK INTER + INTRA:         -12.655
REMARK INTER:                 -11.509
REMARK INTRA:                  -1.146
REMARK UNBOUND:                -1.507
REMARK  Name = 
REMARK  12 active torsions:
REMARK  status: ('A' for Active; 'I' for Inactive)
REMARK    1  A    between atoms: C_1  and  C_2
REMARK    2  A    between atoms: C_2  and  C_3
REMARK    3  A    between atoms: C_4  and  C_5
REMARK    4  A    between atoms: C_5  and  C_6
REMARK    5  A    between atoms: C_6  and  O_7
REMARK    6  A    between atoms: C_6  and  C_14
REMARK    7  A    between atoms: O_7  and  C_8
REMARK    8  A    between atoms: C_8  and  C_10
REMARK    9  A    between atoms: C_11  and  C_12
REMARK   10  A    between atoms: C_11  and  C_13
REMARK   11  A    between atoms: C_19  and  O_20
REMARK   12  A    between atoms: C_23  and  O_24
REMARK                            x       y       z     vdW  Elec       q    Type
REMARK                         _______ _______ _______ _____ _____    ______ ____
ROOT
ATOM      1  C   UNL     1      23.333   0.288  52.515  0.00  0.00    +0.000 C 
ATOM      2  C   UNL     1      22.847  -0.316  53.607  0.00  0.00    +0.000 C 
ATOM      3  C   UNL     1      21.440  -0.632  53.802  0.00  0.00    +0.000 C 
ATOM      4  O   UNL     1      21.072  -1.235  54.807  0.00  0.00    +0.000 OA
ATOM      5  C   UNL     1      20.486  -0.224  52.770  0.00  0.00    +0.000 A 
ATOM      6  C   UNL     1      19.128  -0.512  52.955  0.00  0.00    +0.000 A 
ATOM      7  C   UNL     1      18.192  -0.121  52.008  0.00  0.00    +0.000 A 
ATOM      8  C   UNL     1      18.611   0.564  50.871  0.00  0.00    +0.000 A 
ATOM      9  C   UNL     1      19.970   0.847  50.680  0.00  0.00    +0.000 A 
ATOM     10  C   UNL     1      20.930   0.451  51.626  0.00  0.00    +0.000 A 
ATOM     11  C   UNL     1      22.389   0.728  51.442  0.00  0.00    +0.000 C 
ATOM     12  O   UNL     1      22.837   1.297  50.454  0.00  0.00    +0.000 OA
ENDROOT
BRANCH   6  13
ATOM     13  O   UNL     1      18.635  -1.178  54.046  0.00  0.00    +0.000 OA
ATOM     14  H   UNL     1      18.962  -2.029  54.263  0.00  0.00    +0.000 HD
ENDBRANCH   6  13
BRANCH   9  15
ATOM     15  O   UNL     1      20.334   1.522  49.551  0.00  0.00    +0.000 OA
ATOM     16  H   UNL     1      20.167   2.441  49.481  0.00  0.00    +0.000 HD
ENDBRANCH   9  15
BRANCH   1  17
ATOM     17  C   UNL     1      24.816   0.540  52.266  0.00  0.00    +0.000 C 
BRANCH  17  18
ATOM     18  C   UNL     1      25.209   2.015  52.513  0.00  0.00    +0.000 C 
BRANCH  18  22
ATOM     19  C   UNL     1      24.421   4.311  50.630  0.00  0.00    +0.000 C 
ATOM     20  C   UNL     1      25.740   3.588  50.573  0.00  0.00    +0.000 C 
ATOM     21  C   UNL     1      26.714   4.027  49.514  0.00  0.00    +0.000 C 
ATOM     22  C   UNL     1      26.073   2.593  51.419  0.00  0.00    +0.000 C 
ENDBRANCH  18  22
ENDBRANCH  17  18
BRANCH  17  23
ATOM     23  O   UNL     1      25.604  -0.476  52.956  0.00  0.00    +0.000 OA
BRANCH  23  24
ATOM     24  C   UNL     1      26.366  -0.166  54.031  0.00  0.00    +0.000 C 
ATOM     25  O   UNL     1      25.975   0.185  55.128  0.00  0.00    +0.000 OA
BRANCH  24  26
ATOM     26  C   UNL     1      27.752  -0.596  53.705  0.00  0.00    +0.000 C 
ATOM     27  C   UNL     1      28.814   0.233  53.644  0.00  0.00    +0.000 C 
ATOM     28  C   UNL     1      30.197  -0.308  53.409  0.00  0.00    +0.000 C 
ATOM     29  C   UNL     1      28.737   1.727  53.821  0.00  0.00    +0.000 C 
ENDBRANCH  24  26
ENDBRANCH  23  24
ENDBRANCH  17  23
ENDBRANCH   1  17
TORSDOF 8
ENDMDL
MODEL 7
REMARK VINA RESULT:    -7.749      2.882      6.752
REMARK INTER + INTRA:         -12.427
REMARK INTER:                 -11.566
REMARK INTRA:                  -0.860
REMARK UNBOUND:                -1.507
REMARK  Name = 
REMARK  12 active torsions:
REMARK  status: ('A' for Active; 'I' for Inactive)
REMARK    1  A    between atoms: C_1  and  C_2
REMARK    2  A    between atoms: C_2  and  C_3
REMARK    3  A    between atoms: C_4  and  C_5
REMARK    4  A    between atoms: C_5  and  C_6
REMARK    5  A    between atoms: C_6  and  O_7
REMARK    6  A    between atoms: C_6  and  C_14
REMARK    7  A    between atoms: O_7  and  C_8
REMARK    8  A    between atoms: C_8  and  C_10
REMARK    9  A    between atoms: C_11  and  C_12
REMARK   10  A    between atoms: C_11  and  C_13
REMARK   11  A    between atoms: C_19  and  O_20
REMARK   12  A    between atoms: C_23  and  O_24
REMARK                            x       y       z     vdW  Elec       q    Type
REMARK                         _______ _______ _______ _____ _____    ______ ____
ROOT
ATOM      1  C   UNL     1      24.663   2.637  52.568  0.00  0.00    +0.000 C 
ATOM      2  C   UNL     1      23.636   3.469  52.786  0.00  0.00    +0.000 C 
ATOM      3  C   UNL     1      23.337   4.626  51.957  0.00  0.00    +0.000 C 
ATOM      4  O   UNL     1      22.347   5.316  52.186  0.00  0.00    +0.000 OA
ATOM      5  C   UNL     1      24.237   4.936  50.845  0.00  0.00    +0.000 A 
ATOM      6  C   UNL     1      23.965   6.056  50.049  0.00  0.00    +0.000 A 
ATOM      7  C   UNL     1      24.808   6.392  48.999  0.00  0.00    +0.000 A 
ATOM      8  C   UNL     1      25.931   5.610  48.743  0.00  0.00    +0.000 A 
ATOM      9  C   UNL     1      26.201   4.485  49.533  0.00  0.00    +0.000 A 
ATOM     10  C   UNL     1      25.353   4.128  50.594  0.00  0.00    +0.000 A 
ATOM     11  C   UNL     1      25.609   2.925  51.446  0.00  0.00    +0.000 C 
ATOM     12  O   UNL     1      26.557   2.171  51.262  0.00  0.00    +0.000 OA
ENDROOT
BRANCH   6  13
ATOM     13  O   UNL     1      22.885   6.877  50.238  0.00  0.00    +0.000 OA
ATOM     14  H   UNL     1      22.920   7.769  49.954  0.00  0.00    +0.000 HD
ENDBRANCH   6  13
BRANCH   9  15
ATOM     15  O   UNL     1      27.313   3.750  49.245  0.00  0.00    +0.000 OA
ATOM     16  H   UNL     1      27.406   2.884  49.592  0.00  0.00    +0.000 HD
ENDBRANCH   9  15
BRANCH   1  17
ATOM     17  C   UNL     1      24.927   1.373  53.378  0.00  0.00    +0.000 C 
BRANCH  17  18
ATOM     18  C   UNL     1      24.410   0.102  52.664  0.00  0.00    +0.000 C 
BRANCH  18  22
ATOM     19  C   UNL     1      21.355   0.264  52.380  0.00  0.00    +0.000 C 
ATOM     20  C   UNL     1      22.064  -0.606  53.382  0.00  0.00    +0.000 C 
ATOM     21  C   UNL     1      21.204  -1.432  54.299  0.00  0.00    +0.000 C 
ATOM     22  C   UNL     1      23.406  -0.675  53.481  0.00  0.00    +0.000 C 
ENDBRANCH  18  22
ENDBRANCH  17  18
BRANCH  17  23
ATOM     23  O   UNL     1      26.317   1.360  53.821  0.00  0.00    +0.000 OA
BRANCH  23  24
ATOM     24  C   UNL     1      26.737   0.524  54.799  0.00  0.00    +0.000 C 
ATOM     25  O   UNL     1      26.043  -0.062  55.609  0.00  0.00    +0.000 OA
BRANCH  24  26
ATOM     26  C   UNL     1      28.172   0.243  54.527  0.00  0.00    +0.000 C 
ATOM     27  C   UNL     1      28.617  -0.700  53.671  0.00  0.00    +0.000 C 
ATOM     28  C   UNL     1      30.086  -0.840  53.380  0.00  0.00    +0.000 C 
ATOM     29  C   UNL     1      27.726  -1.658  52.925  0.00  0.00    +0.000 C 
ENDBRANCH  24  26
ENDBRANCH  23  24
ENDBRANCH  17  23
ENDBRANCH   1  17
TORSDOF 8
ENDMDL
MODEL 8
REMARK VINA RESULT:    -7.709      2.250      3.813
REMARK INTER + INTRA:         -12.370
REMARK INTER:                 -10.295
REMARK INTRA:                  -2.075
REMARK UNBOUND:                -1.507
REMARK  Name = 
REMARK  12 active torsions:
REMARK  status: ('A' for Active; 'I' for Inactive)
REMARK    1  A    between atoms: C_1  and  C_2
REMARK    2  A    between atoms: C_2  and  C_3
REMARK    3  A    between atoms: C_4  and  C_5
REMARK    4  A    between atoms: C_5  and  C_6
REMARK    5  A    between atoms: C_6  and  O_7
REMARK    6  A    between atoms: C_6  and  C_14
REMARK    7  A    between atoms: O_7  and  C_8
REMARK    8  A    between atoms: C_8  and  C_10
REMARK    9  A    between atoms: C_11  and  C_12
REMARK   10  A    between atoms: C_11  and  C_13
REMARK   11  A    between atoms: C_19  and  O_20
REMARK   12  A    between atoms: C_23  and  O_24
REMARK                            x       y       z     vdW  Elec       q    Type
REMARK                         _______ _______ _______ _____ _____    ______ ____
ROOT
ATOM      1  C   UNL     1      23.349   1.723  51.560  0.00  0.00    +0.000 C 
ATOM      2  C   UNL     1      22.982   0.743  52.395  0.00  0.00    +0.000 C 
ATOM      3  C   UNL     1      23.868   0.138  53.377  0.00  0.00    +0.000 C 
ATOM      4  O   UNL     1      23.449  -0.722  54.147  0.00  0.00    +0.000 OA
ATOM      5  C   UNL     1      25.261   0.587  53.428  0.00  0.00    +0.000 A 
ATOM      6  C   UNL     1      26.125   0.001  54.361  0.00  0.00    +0.000 A 
ATOM      7  C   UNL     1      27.457   0.387  54.423  0.00  0.00    +0.000 A 
ATOM      8  C   UNL     1      27.931   1.360  53.547  0.00  0.00    +0.000 A 
ATOM      9  C   UNL     1      27.066   1.953  52.618  0.00  0.00    +0.000 A 
ATOM     10  C   UNL     1      25.714   1.579  52.548  0.00  0.00    +0.000 A 
ATOM     11  C   UNL     1      24.765   2.204  51.575  0.00  0.00    +0.000 C 
ATOM     12  O   UNL     1      25.100   3.088  50.797  0.00  0.00    +0.000 OA
ENDROOT
BRANCH   6  13
ATOM     13  O   UNL     1      25.738  -0.964  55.252  0.00  0.00    +0.000 OA
ATOM     14  H   UNL     1      25.935  -0.866  56.163  0.00  0.00    +0.000 HD
ENDBRANCH   6  13
BRANCH   9  15
ATOM     15  O   UNL     1      27.576   2.901  51.779  0.00  0.00    +0.000 OA
ATOM     16  H   UNL     1      27.015   3.561  51.421  0.00  0.00    +0.000 HD
ENDBRANCH   9  15
BRANCH   1  17
ATOM     17  C   UNL     1      22.400   2.423  50.593  0.00  0.00    +0.000 C 
BRANCH  17  18
ATOM     18  C   UNL     1      21.881   1.470  49.491  0.00  0.00    +0.000 C 
BRANCH  18  22
ATOM     19  C   UNL     1      21.946   3.175  46.937  0.00  0.00    +0.000 C 
ATOM     20  C   UNL     1      20.684   2.768  47.647  0.00  0.00    +0.000 C 
ATOM     21  C   UNL     1      19.384   3.245  47.057  0.00  0.00    +0.000 C 
ATOM     22  C   UNL     1      20.675   2.006  48.758  0.00  0.00    +0.000 C 
ENDBRANCH  18  22
ENDBRANCH  17  18
BRANCH  17  23
ATOM     23  O   UNL     1      21.396   3.164  51.348  0.00  0.00    +0.000 OA
BRANCH  23  24
ATOM     24  C   UNL     1      21.580   4.465  51.678  0.00  0.00    +0.000 C 
ATOM     25  O   UNL     1      22.338   4.905  52.522  0.00  0.00    +0.000 OA
BRANCH  24  26
ATOM     26  C   UNL     1      20.887   5.267  50.634  0.00  0.00    +0.000 C 
ATOM     27  C   UNL     1      21.500   5.834  49.575  0.00  0.00    +0.000 C 
ATOM     28  C   UNL     1      20.702   6.539  48.513  0.00  0.00    +0.000 C 
ATOM     29  C   UNL     1      22.987   5.802  49.337  0.00  0.00    +0.000 C 
ENDBRANCH  24  26
ENDBRANCH  23  24
ENDBRANCH  17  23
ENDBRANCH   1  17
TORSDOF 8
ENDMDL
MODEL 9
REMARK VINA RESULT:    -7.687      3.526      5.939
REMARK INTER + INTRA:         -12.339
REMARK INTER:                 -10.328
REMARK INTRA:                  -2.011
REMARK UNBOUND:                -1.507
REMARK  Name = 
REMARK  12 active torsions:
REMARK  status: ('A' for Active; 'I' for Inactive)
REMARK    1  A    between atoms: C_1  and  C_2
REMARK    2  A    between atoms: C_2  and  C_3
REMARK    3  A    between atoms: C_4  and  C_5
REMARK    4  A    between atoms: C_5  and  C_6
REMARK    5  A    between atoms: C_6  and  O_7
REMARK    6  A    between atoms: C_6  and  C_14
REMARK    7  A    between atoms: O_7  and  C_8
REMARK    8  A    between atoms: C_8  and  C_10
REMARK    9  A    between atoms: C_11  and  C_12
REMARK   10  A    between atoms: C_11  and  C_13
REMARK   11  A    between atoms: C_19  and  O_20
REMARK   12  A    between atoms: C_23  and  O_24
REMARK                            x       y       z     vdW  Elec       q    Type
REMARK                         _______ _______ _______ _____ _____    ______ ____
ROOT
ATOM      1  C   UNL     1      24.012   3.354  50.421  0.00  0.00    +0.000 C 
ATOM      2  C   UNL     1      25.216   3.289  49.838  0.00  0.00    +0.000 C 
ATOM      3  C   UNL     1      26.053   4.449  49.570  0.00  0.00    +0.000 C 
ATOM      4  O   UNL     1      27.170   4.310  49.078  0.00  0.00    +0.000 OA
ATOM      5  C   UNL     1      25.534   5.774  49.910  0.00  0.00    +0.000 A 
ATOM      6  C   UNL     1      26.327   6.898  49.645  0.00  0.00    +0.000 A 
ATOM      7  C   UNL     1      25.859   8.172  49.934  0.00  0.00    +0.000 A 
ATOM      8  C   UNL     1      24.591   8.327  50.489  0.00  0.00    +0.000 A 
ATOM      9  C   UNL     1      23.799   7.205  50.763  0.00  0.00    +0.000 A 
ATOM     10  C   UNL     1      24.262   5.909  50.482  0.00  0.00    +0.000 A 
ATOM     11  C   UNL     1      23.444   4.691  50.776  0.00  0.00    +0.000 C 
ATOM     12  O   UNL     1      22.335   4.746  51.293  0.00  0.00    +0.000 OA
ENDROOT
BRANCH   6  13
ATOM     13  O   UNL     1      27.580   6.830  49.097  0.00  0.00    +0.000 OA
ATOM     14  H   UNL     1      27.682   6.741  48.170  0.00  0.00    +0.000 HD
ENDBRANCH   6  13
BRANCH   9  15
ATOM     15  O   UNL     1      22.564   7.407  51.305  0.00  0.00    +0.000 OA
ATOM     16  H   UNL     1      22.364   8.219  51.729  0.00  0.00    +0.000 HD
ENDBRANCH   9  15
BRANCH   1  17
ATOM     17  C   UNL     1      23.172   2.135  50.786  0.00  0.00    +0.000 C 
BRANCH  17  18
ATOM     18  C   UNL     1      22.237   1.703  49.632  0.00  0.00    +0.000 C 
BRANCH  18  22
ATOM     19  C   UNL     1      19.670   2.560  51.087  0.00  0.00    +0.000 C 
ATOM     20  C   UNL     1      20.002   1.137  50.731  0.00  0.00    +0.000 C 
ATOM     21  C   UNL     1      19.006   0.082  51.130  0.00  0.00    +0.000 C 
ATOM     22  C   UNL     1      21.127   0.782  50.078  0.00  0.00    +0.000 C 
ENDBRANCH  18  22
ENDBRANCH  17  18
BRANCH  17  23
ATOM     23  O   UNL     1      24.033   1.105  51.356  0.00  0.00    +0.000 OA
BRANCH  23  24
ATOM     24  C   UNL     1      24.232   1.013  52.692  0.00  0.00    +0.000 C 
ATOM     25  O   UNL     1      25.300   1.021  53.275  0.00  0.00    +0.000 OA
BRANCH  24  26
ATOM     26  C   UNL     1      22.898   1.172  53.330  0.00  0.00    +0.000 C 
ATOM     27  C   UNL     1      22.075   0.150  53.644  0.00  0.00    +0.000 C 
ATOM     28  C   UNL     1      20.790   0.399  54.384  0.00  0.00    +0.000 C 
ATOM     29  C   UNL     1      22.354  -1.295  53.324  0.00  0.00    +0.000 C 
ENDBRANCH  24  26
ENDBRANCH  23  24
ENDBRANCH  17  23
ENDBRANCH   1  17
TORSDOF 8
ENDMDL
