MODEL 1
REMARK VINA RESULT:   -10.312      0.000      0.000
REMARK INTER + INTRA:         -12.509
REMARK INTER:                 -12.120
REMARK INTRA:                  -0.389
REMARK UNBOUND:                -0.389
REMARK  Name = 
REMARK  5 active torsions:
REMARK  status: ('A' for Active; 'I' for Inactive)
REMARK    1  A    between atoms: C_1  and  N_2
REMARK    2  A    between atoms: C_5  and  C_6
REMARK    3  A    between atoms: C_7  and  O_8
REMARK    4  A    between atoms: C_10  and  O_11
REMARK    5  A    between atoms: C_16  and  C_17
REMARK                            x       y       z     vdW  Elec       q    Type
REMARK                         _______ _______ _______ _____ _____    ______ ____
ROOT
ATOM      1  C   UNL     1      24.172  -0.325  54.049  0.00  0.00    +0.000 A 
ATOM      2  C   UNL     1      23.390  -1.084  54.941  0.00  0.00    +0.000 A 
ATOM      3  C   UNL     1      22.001  -0.990  54.941  0.00  0.00    +0.000 A 
ATOM      4  C   UNL     1      21.368  -0.124  54.049  0.00  0.00    +0.000 A 
ATOM      5  C   UNL     1      22.121   0.653  53.156  0.00  0.00    +0.000 A 
ATOM      6  C   UNL     1      21.484   1.595  52.207  0.00  0.00    +0.000 A 
ATOM      7  O   UNL     1      20.277   1.745  52.072  0.00  0.00    +0.000 OA
ATOM      8  C   UNL     1      22.388   2.398  51.373  0.00  0.00    +0.000 A 
ATOM      9  C   UNL     1      23.707   2.211  51.468  0.00  0.00    +0.000 A 
ATOM     10  O   UNL     1      24.315   1.293  52.299  0.00  0.00    +0.000 OA
ATOM     11  C   UNL     1      23.521   0.551  53.155  0.00  0.00    +0.000 A 
ENDROOT
BRANCH   1  16
ATOM     12  C   UNL     1      29.516   0.227  53.191  0.00  0.00    +0.000 C 
ATOM     13  N   UNL     1      28.577  -0.585  53.950  0.00  0.00    +0.000 N 
ATOM     14  C   UNL     1      27.881   0.181  54.980  0.00  0.00    +0.000 C 
ATOM     15  C   UNL     1      26.390   0.247  54.918  0.00  0.00    +0.000 C 
ATOM     16  C   UNL     1      25.644  -0.450  54.052  0.00  0.00    +0.000 C 
ATOM     17  C   UNL     1      26.258  -1.374  53.051  0.00  0.00    +0.000 C 
ATOM     18  C   UNL     1      27.792  -1.484  53.103  0.00  0.00    +0.000 C 
ATOM     19  H   UNL     1      29.102  -1.254  54.514  0.00  0.00    +0.000 HD
ENDBRANCH   1  16
BRANCH   9  20
ATOM     20  C   UNL     1      24.611   2.996  50.612  0.00  0.00    +0.000 A 
ATOM     21  C   UNL     1      24.076   4.080  49.898  0.00  0.00    +0.000 A 
ATOM     22  C   UNL     1      24.911   4.949  49.190  0.00  0.00    +0.000 A 
ATOM     23  C   UNL     1      26.289   4.739  49.191  0.00  0.00    +0.000 A 
ATOM     24 CL   UNL     1      27.320   5.843  48.367  0.00  0.00    +0.000 Cl
ATOM     25  C   UNL     1      26.836   3.651  49.864  0.00  0.00    +0.000 A 
ATOM     26  C   UNL     1      26.000   2.775  50.563  0.00  0.00    +0.000 A 
ATOM     27 CL   UNL     1      26.737   1.431  51.363  0.00  0.00    +0.000 Cl
ENDBRANCH   9  20
BRANCH   2  28
ATOM     28  O   UNL     1      24.003  -1.926  55.834  0.00  0.00    +0.000 OA
ATOM     29  H   UNL     1      23.488  -2.502  56.364  0.00  0.00    +0.000 HD
ENDBRANCH   2  28
BRANCH   4  30
ATOM     30  O   UNL     1      20.005  -0.044  54.068  0.00  0.00    +0.000 OA
ATOM     31  H   UNL     1      19.579   0.753  53.819  0.00  0.00    +0.000 HD
ENDBRANCH   4  30
TORSDOF 4
ENDMDL
MODEL 2
REMARK VINA RESULT:   -10.091      1.107      1.385
REMARK INTER + INTRA:         -12.249
REMARK INTER:                 -11.708
REMARK INTRA:                  -0.541
REMARK UNBOUND:                -0.389
REMARK  Name = 
REMARK  5 active torsions:
REMARK  status: ('A' for Active; 'I' for Inactive)
REMARK    1  A    between atoms: C_1  and  N_2
REMARK    2  A    between atoms: C_5  and  C_6
REMARK    3  A    between atoms: C_7  and  O_8
REMARK    4  A    between atoms: C_10  and  O_11
REMARK    5  A    between atoms: C_16  and  C_17
REMARK                            x       y       z     vdW  Elec       q    Type
REMARK                         _______ _______ _______ _____ _____    ______ ____
ROOT
ATOM      1  C   UNL     1      24.052  -0.240  54.055  0.00  0.00    +0.000 A 
ATOM      2  C   UNL     1      23.223  -1.075  54.828  0.00  0.00    +0.000 A 
ATOM      3  C   UNL     1      21.836  -0.964  54.776  0.00  0.00    +0.000 A 
ATOM      4  C   UNL     1      21.253  -0.003  53.951  0.00  0.00    +0.000 A 
ATOM      5  C   UNL     1      22.052   0.852  53.177  0.00  0.00    +0.000 A 
ATOM      6  C   UNL     1      21.467   1.896  52.303  0.00  0.00    +0.000 A 
ATOM      7  O   UNL     1      20.269   2.075  52.130  0.00  0.00    +0.000 OA
ATOM      8  C   UNL     1      22.415   2.768  51.597  0.00  0.00    +0.000 A 
ATOM      9  C   UNL     1      23.727   2.554  51.732  0.00  0.00    +0.000 A 
ATOM     10  O   UNL     1      24.289   1.548  52.489  0.00  0.00    +0.000 OA
ATOM     11  C   UNL     1      23.450   0.732  53.228  0.00  0.00    +0.000 A 
ENDROOT
BRANCH   1  16
ATOM     12  C   UNL     1      29.435   0.342  53.520  0.00  0.00    +0.000 C 
ATOM     13  N   UNL     1      28.454  -0.545  54.129  0.00  0.00    +0.000 N 
ATOM     14  C   UNL     1      27.716   0.098  55.212  0.00  0.00    +0.000 C 
ATOM     15  C   UNL     1      26.230   0.192  55.089  0.00  0.00    +0.000 C 
ATOM     16  C   UNL     1      25.521  -0.384  54.110  0.00  0.00    +0.000 C 
ATOM     17  C   UNL     1      26.174  -1.186  53.033  0.00  0.00    +0.000 C 
ATOM     18  C   UNL     1      27.703  -1.322  53.142  0.00  0.00    +0.000 C 
ATOM     19  H   UNL     1      28.946  -1.285  54.629  0.00  0.00    +0.000 HD
ENDBRANCH   1  16
BRANCH   9  20
ATOM     20  C   UNL     1      24.676   3.411  51.002  0.00  0.00    +0.000 A 
ATOM     21  C   UNL     1      25.742   2.797  50.325  0.00  0.00    +0.000 A 
ATOM     22  C   UNL     1      26.584   3.545  49.496  0.00  0.00    +0.000 A 
ATOM     23  C   UNL     1      26.364   4.911  49.338  0.00  0.00    +0.000 A 
ATOM     24 CL   UNL     1      27.366   5.817  48.272  0.00  0.00    +0.000 Cl
ATOM     25  C   UNL     1      25.335   5.546  50.027  0.00  0.00    +0.000 A 
ATOM     26  C   UNL     1      24.500   4.800  50.865  0.00  0.00    +0.000 A 
ATOM     27 CL   UNL     1      23.250   5.648  51.710  0.00  0.00    +0.000 Cl
ENDBRANCH   9  20
BRANCH   2  28
ATOM     28  O   UNL     1      23.787  -2.014  55.655  0.00  0.00    +0.000 OA
ATOM     29  H   UNL     1      24.477  -2.564  55.339  0.00  0.00    +0.000 HD
ENDBRANCH   2  28
BRANCH   4  30
ATOM     30  O   UNL     1      19.890   0.094  53.917  0.00  0.00    +0.000 OA
ATOM     31  H   UNL     1      19.450   0.229  53.102  0.00  0.00    +0.000 HD
ENDBRANCH   4  30
TORSDOF 4
ENDMDL
MODEL 3
REMARK VINA RESULT:    -9.924      2.154      2.537
REMARK INTER + INTRA:         -12.054
REMARK INTER:                 -11.129
REMARK INTRA:                  -0.925
REMARK UNBOUND:                -0.389
REMARK  Name = 
REMARK  5 active torsions:
REMARK  status: ('A' for Active; 'I' for Inactive)
REMARK    1  A    between atoms: C_1  and  N_2
REMARK    2  A    between atoms: C_5  and  C_6
REMARK    3  A    between atoms: C_7  and  O_8
REMARK    4  A    between atoms: C_10  and  O_11
REMARK    5  A    between atoms: C_16  and  C_17
REMARK                            x       y       z     vdW  Elec       q    Type
REMARK                         _______ _______ _______ _____ _____    ______ ____
ROOT
ATOM      1  C   UNL     1      24.168  -0.219  53.867  0.00  0.00    +0.000 A 
ATOM      2  C   UNL     1      23.978  -1.111  54.940  0.00  0.00    +0.000 A 
ATOM      3  C   UNL     1      22.719  -1.630  55.232  0.00  0.00    +0.000 A 
ATOM      4  C   UNL     1      21.622  -1.255  54.457  0.00  0.00    +0.000 A 
ATOM      5  C   UNL     1      21.778  -0.359  53.388  0.00  0.00    +0.000 A 
ATOM      6  C   UNL     1      20.633   0.074  52.553  0.00  0.00    +0.000 A 
ATOM      7  O   UNL     1      19.485  -0.334  52.673  0.00  0.00    +0.000 OA
ATOM      8  C   UNL     1      20.919   1.066  51.510  0.00  0.00    +0.000 A 
ATOM      9  C   UNL     1      22.176   1.484  51.330  0.00  0.00    +0.000 A 
ATOM     10  O   UNL     1      23.264   1.044  52.053  0.00  0.00    +0.000 OA
ATOM     11  C   UNL     1      23.050   0.156  53.093  0.00  0.00    +0.000 A 
ENDROOT
BRANCH   1  16
ATOM     12  C   UNL     1      29.427   1.176  53.920  0.00  0.00    +0.000 C 
ATOM     13  N   UNL     1      28.238   1.304  53.091  0.00  0.00    +0.000 N 
ATOM     14  C   UNL     1      27.788   0.022  52.557  0.00  0.00    +0.000 C 
ATOM     15  C   UNL     1      26.408  -0.436  52.899  0.00  0.00    +0.000 C 
ATOM     16  C   UNL     1      25.513   0.308  53.562  0.00  0.00    +0.000 C 
ATOM     17  C   UNL     1      25.832   1.692  54.025  0.00  0.00    +0.000 C 
ATOM     18  C   UNL     1      27.239   2.204  53.668  0.00  0.00    +0.000 C 
ATOM     19  H   UNL     1      28.484   1.805  52.237  0.00  0.00    +0.000 HD
ENDBRANCH   1  16
BRANCH   9  20
ATOM     20  C   UNL     1      22.466   2.457  50.265  0.00  0.00    +0.000 A 
ATOM     21  C   UNL     1      22.286   2.057  48.931  0.00  0.00    +0.000 A 
ATOM     22  C   UNL     1      22.402   2.982  47.888  0.00  0.00    +0.000 A 
ATOM     23  C   UNL     1      22.698   4.313  48.173  0.00  0.00    +0.000 A 
ATOM     24 CL   UNL     1      22.783   5.460  46.893  0.00  0.00    +0.000 Cl
ATOM     25  C   UNL     1      22.915   4.723  49.485  0.00  0.00    +0.000 A 
ATOM     26  C   UNL     1      22.810   3.796  50.527  0.00  0.00    +0.000 A 
ATOM     27 CL   UNL     1      23.109   4.361  52.135  0.00  0.00    +0.000 Cl
ENDBRANCH   9  20
BRANCH   2  28
ATOM     28  O   UNL     1      25.047  -1.473  55.720  0.00  0.00    +0.000 OA
ATOM     29  H   UNL     1      25.420  -2.329  55.636  0.00  0.00    +0.000 HD
ENDBRANCH   2  28
BRANCH   4  30
ATOM     30  O   UNL     1      20.395  -1.772  54.763  0.00  0.00    +0.000 OA
ATOM     31  H   UNL     1      20.287  -2.697  54.858  0.00  0.00    +0.000 HD
ENDBRANCH   4  30
TORSDOF 4
ENDMDL
MODEL 4
REMARK VINA RESULT:    -9.603      2.862      5.377
REMARK INTER + INTRA:         -11.676
REMARK INTER:                 -10.829
REMARK INTRA:                  -0.847
REMARK UNBOUND:                -0.389
REMARK  Name = 
REMARK  5 active torsions:
REMARK  status: ('A' for Active; 'I' for Inactive)
REMARK    1  A    between atoms: C_1  and  N_2
REMARK    2  A    between atoms: C_5  and  C_6
REMARK    3  A    between atoms: C_7  and  O_8
REMARK    4  A    between atoms: C_10  and  O_11
REMARK    5  A    between atoms: C_16  and  C_17
REMARK                            x       y       z     vdW  Elec       q    Type
REMARK                         _______ _______ _______ _____ _____    ______ ____
ROOT
ATOM      1  C   UNL     1      21.027   0.349  52.910  0.00  0.00    +0.000 A 
ATOM      2  C   UNL     1      20.354  -0.640  53.653  0.00  0.00    +0.000 A 
ATOM      3  C   UNL     1      21.034  -1.443  54.565  0.00  0.00    +0.000 A 
ATOM      4  C   UNL     1      22.406  -1.275  54.743  0.00  0.00    +0.000 A 
ATOM      5  C   UNL     1      23.106  -0.305  54.010  0.00  0.00    +0.000 A 
ATOM      6  C   UNL     1      24.567  -0.109  54.161  0.00  0.00    +0.000 A 
ATOM      7  O   UNL     1      25.277  -0.714  54.954  0.00  0.00    +0.000 OA
ATOM      8  C   UNL     1      25.190   0.893  53.286  0.00  0.00    +0.000 A 
ATOM      9  C   UNL     1      24.423   1.601  52.452  0.00  0.00    +0.000 A 
ATOM     10  O   UNL     1      23.053   1.478  52.343  0.00  0.00    +0.000 OA
ATOM     11  C   UNL     1      22.417   0.507  53.096  0.00  0.00    +0.000 A 
ENDROOT
BRANCH   1  16
ATOM     12  C   UNL     1      19.528   3.911  49.080  0.00  0.00    +0.000 C 
ATOM     13  N   UNL     1      18.951   2.965  50.024  0.00  0.00    +0.000 N 
ATOM     14  C   UNL     1      19.280   1.581  49.699  0.00  0.00    +0.000 C 
ATOM     15  C   UNL     1      20.017   0.776  50.719  0.00  0.00    +0.000 C 
ATOM     16  C   UNL     1      20.287   1.204  51.959  0.00  0.00    +0.000 C 
ATOM     17  C   UNL     1      19.863   2.555  52.434  0.00  0.00    +0.000 C 
ATOM     18  C   UNL     1      19.081   3.402  51.415  0.00  0.00    +0.000 C 
ATOM     19  H   UNL     1      17.937   2.965  49.912  0.00  0.00    +0.000 HD
ENDBRANCH   1  16
BRANCH   9  20
ATOM     20  C   UNL     1      25.043   2.624  51.596  0.00  0.00    +0.000 A 
ATOM     21  C   UNL     1      26.173   2.266  50.842  0.00  0.00    +0.000 A 
ATOM     22  C   UNL     1      26.712   3.149  49.902  0.00  0.00    +0.000 A 
ATOM     23  C   UNL     1      26.124   4.397  49.708  0.00  0.00    +0.000 A 
ATOM     24 CL   UNL     1      26.754   5.458  48.509  0.00  0.00    +0.000 Cl
ATOM     25  C   UNL     1      25.025   4.786  50.468  0.00  0.00    +0.000 A 
ATOM     26  C   UNL     1      24.492   3.907  51.417  0.00  0.00    +0.000 A 
ATOM     27 CL   UNL     1      23.139   4.454  52.344  0.00  0.00    +0.000 Cl
ENDBRANCH   9  20
BRANCH   2  28
ATOM     28  O   UNL     1      19.007  -0.826  53.473  0.00  0.00    +0.000 OA
ATOM     29  H   UNL     1      18.518  -0.228  52.942  0.00  0.00    +0.000 HD
ENDBRANCH   2  28
BRANCH   4  30
ATOM     30  O   UNL     1      23.055  -2.076  55.640  0.00  0.00    +0.000 OA
ATOM     31  H   UNL     1      22.580  -2.474  56.342  0.00  0.00    +0.000 HD
ENDBRANCH   4  30
TORSDOF 4
ENDMDL
MODEL 5
REMARK VINA RESULT:    -9.325      2.379      5.479
REMARK INTER + INTRA:         -11.349
REMARK INTER:                 -10.466
REMARK INTRA:                  -0.884
REMARK UNBOUND:                -0.389
REMARK  Name = 
REMARK  5 active torsions:
REMARK  status: ('A' for Active; 'I' for Inactive)
REMARK    1  A    between atoms: C_1  and  N_2
REMARK    2  A    between atoms: C_5  and  C_6
REMARK    3  A    between atoms: C_7  and  O_8
REMARK    4  A    between atoms: C_10  and  O_11
REMARK    5  A    between atoms: C_16  and  C_17
REMARK                            x       y       z     vdW  Elec       q    Type
REMARK                         _______ _______ _______ _____ _____    ______ ____
ROOT
ATOM      1  C   UNL     1      21.760   1.891  51.668  0.00  0.00    +0.000 A 
ATOM      2  C   UNL     1      20.365   1.940  51.489  0.00  0.00    +0.000 A 
ATOM      3  C   UNL     1      19.521   1.050  52.150  0.00  0.00    +0.000 A 
ATOM      4  C   UNL     1      20.065   0.086  52.998  0.00  0.00    +0.000 A 
ATOM      5  C   UNL     1      21.452   0.006  53.189  0.00  0.00    +0.000 A 
ATOM      6  C   UNL     1      22.066  -1.015  54.069  0.00  0.00    +0.000 A 
ATOM      7  O   UNL     1      21.443  -1.828  54.740  0.00  0.00    +0.000 OA
ATOM      8  C   UNL     1      23.533  -1.035  54.130  0.00  0.00    +0.000 A 
ATOM      9  C   UNL     1      24.229  -0.122  53.446  0.00  0.00    +0.000 A 
ATOM     10  O   UNL     1      23.674   0.877  52.673  0.00  0.00    +0.000 OA
ATOM     11  C   UNL     1      22.299   0.909  52.526  0.00  0.00    +0.000 A 
ENDROOT
BRANCH   1  16
ATOM     12  C   UNL     1      25.962   4.700  49.654  0.00  0.00    +0.000 C 
ATOM     13  N   UNL     1      24.507   4.697  49.651  0.00  0.00    +0.000 N 
ATOM     14  C   UNL     1      23.953   3.539  48.956  0.00  0.00    +0.000 C 
ATOM     15  C   UNL     1      23.061   2.619  49.724  0.00  0.00    +0.000 C 
ATOM     16  C   UNL     1      22.638   2.854  50.973  0.00  0.00    +0.000 C 
ATOM     17  C   UNL     1      23.036   4.086  51.718  0.00  0.00    +0.000 C 
ATOM     18  C   UNL     1      23.937   5.067  50.947  0.00  0.00    +0.000 C 
ATOM     19  H   UNL     1      24.177   5.463  49.065  0.00  0.00    +0.000 HD
ENDBRANCH   1  16
BRANCH   9  20
ATOM     20  C   UNL     1      25.698  -0.124  53.529  0.00  0.00    +0.000 A 
ATOM     21  C   UNL     1      26.377  -1.327  53.275  0.00  0.00    +0.000 A 
ATOM     22  C   UNL     1      27.772  -1.354  53.193  0.00  0.00    +0.000 A 
ATOM     23  C   UNL     1      28.499  -0.178  53.363  0.00  0.00    +0.000 A 
ATOM     24 CL   UNL     1      30.212  -0.204  53.204  0.00  0.00    +0.000 Cl
ATOM     25  C   UNL     1      27.848   1.018  53.651  0.00  0.00    +0.000 A 
ATOM     26  C   UNL     1      26.453   1.044  53.744  0.00  0.00    +0.000 A 
ATOM     27 CL   UNL     1      25.703   2.556  54.122  0.00  0.00    +0.000 Cl
ENDBRANCH   9  20
BRANCH   2  28
ATOM     28  O   UNL     1      19.820   2.873  50.644  0.00  0.00    +0.000 OA
ATOM     29  H   UNL     1      20.350   3.573  50.314  0.00  0.00    +0.000 HD
ENDBRANCH   2  28
BRANCH   4  30
ATOM     30  O   UNL     1      19.221  -0.780  53.634  0.00  0.00    +0.000 OA
ATOM     31  H   UNL     1      19.352  -0.983  54.538  0.00  0.00    +0.000 HD
ENDBRANCH   4  30
TORSDOF 4
ENDMDL
MODEL 6
REMARK VINA RESULT:    -9.173      1.511      2.237
REMARK INTER + INTRA:         -11.171
REMARK INTER:                 -10.615
REMARK INTRA:                  -0.556
REMARK UNBOUND:                -0.389
REMARK  Name = 
REMARK  5 active torsions:
REMARK  status: ('A' for Active; 'I' for Inactive)
REMARK    1  A    between atoms: C_1  and  N_2
REMARK    2  A    between atoms: C_5  and  C_6
REMARK    3  A    between atoms: C_7  and  O_8
REMARK    4  A    between atoms: C_10  and  O_11
REMARK    5  A    between atoms: C_16  and  C_17
REMARK                            x       y       z     vdW  Elec       q    Type
REMARK                         _______ _______ _______ _____ _____    ______ ____
ROOT
ATOM      1  C   UNL     1      23.840   0.960  52.501  0.00  0.00    +0.000 A 
ATOM      2  C   UNL     1      22.924   0.132  53.178  0.00  0.00    +0.000 A 
ATOM      3  C   UNL     1      21.564   0.165  52.879  0.00  0.00    +0.000 A 
ATOM      4  C   UNL     1      21.095   1.040  51.899  0.00  0.00    +0.000 A 
ATOM      5  C   UNL     1      21.981   1.885  51.215  0.00  0.00    +0.000 A 
ATOM      6  C   UNL     1      21.516   2.838  50.180  0.00  0.00    +0.000 A 
ATOM      7  O   UNL     1      20.360   2.941  49.792  0.00  0.00    +0.000 OA
ATOM      8  C   UNL     1      22.535   3.713  49.588  0.00  0.00    +0.000 A 
ATOM      9  C   UNL     1      23.812   3.579  49.961  0.00  0.00    +0.000 A 
ATOM     10  O   UNL     1      24.273   2.654  50.874  0.00  0.00    +0.000 OA
ATOM     11  C   UNL     1      23.352   1.843  51.514  0.00  0.00    +0.000 A 
ENDROOT
BRANCH   1  16
ATOM     12  C   UNL     1      28.717   0.058  54.736  0.00  0.00    +0.000 C 
ATOM     13  N   UNL     1      28.112   0.704  53.581  0.00  0.00    +0.000 N 
ATOM     14  C   UNL     1      27.498  -0.253  52.665  0.00  0.00    +0.000 C 
ATOM     15  C   UNL     1      26.037  -0.117  52.382  0.00  0.00    +0.000 C 
ATOM     16  C   UNL     1      25.281   0.899  52.818  0.00  0.00    +0.000 C 
ATOM     17  C   UNL     1      25.851   2.005  53.644  0.00  0.00    +0.000 C 
ATOM     18  C   UNL     1      27.359   1.908  53.935  0.00  0.00    +0.000 C 
ATOM     19  H   UNL     1      28.851   1.098  52.999  0.00  0.00    +0.000 HD
ENDBRANCH   1  16
BRANCH   9  20
ATOM     20  C   UNL     1      24.837   4.437  49.346  0.00  0.00    +0.000 A 
ATOM     21  C   UNL     1      24.447   5.697  48.864  0.00  0.00    +0.000 A 
ATOM     22  C   UNL     1      25.402   6.612  48.408  0.00  0.00    +0.000 A 
ATOM     23  C   UNL     1      26.753   6.273  48.433  0.00  0.00    +0.000 A 
ATOM     24 CL   UNL     1      27.929   7.421  47.926  0.00  0.00    +0.000 Cl
ATOM     25  C   UNL     1      27.157   5.016  48.874  0.00  0.00    +0.000 A 
ATOM     26  C   UNL     1      26.202   4.097  49.320  0.00  0.00    +0.000 A 
ATOM     27 CL   UNL     1      26.764   2.546  49.839  0.00  0.00    +0.000 Cl
ENDBRANCH   9  20
BRANCH   2  28
ATOM     28  O   UNL     1      23.373  -0.720  54.155  0.00  0.00    +0.000 OA
ATOM     29  H   UNL     1      22.778  -1.315  54.567  0.00  0.00    +0.000 HD
ENDBRANCH   2  28
BRANCH   4  30
ATOM     30  O   UNL     1      19.757   1.060  51.625  0.00  0.00    +0.000 OA
ATOM     31  H   UNL     1      19.203   1.690  52.041  0.00  0.00    +0.000 HD
ENDBRANCH   4  30
TORSDOF 4
ENDMDL
MODEL 7
REMARK VINA RESULT:    -9.135      3.573      7.257
REMARK INTER + INTRA:         -11.125
REMARK INTER:                 -10.441
REMARK INTRA:                  -0.684
REMARK UNBOUND:                -0.389
REMARK  Name = 
REMARK  5 active torsions:
REMARK  status: ('A' for Active; 'I' for Inactive)
REMARK    1  A    between atoms: C_1  and  N_2
REMARK    2  A    between atoms: C_5  and  C_6
REMARK    3  A    between atoms: C_7  and  O_8
REMARK    4  A    between atoms: C_10  and  O_11
REMARK    5  A    between atoms: C_16  and  C_17
REMARK                            x       y       z     vdW  Elec       q    Type
REMARK                         _______ _______ _______ _____ _____    ______ ____
ROOT
ATOM      1  C   UNL     1      24.849   2.665  51.020  0.00  0.00    +0.000 A 
ATOM      2  C   UNL     1      26.204   3.045  51.054  0.00  0.00    +0.000 A 
ATOM      3  C   UNL     1      27.135   2.330  51.803  0.00  0.00    +0.000 A 
ATOM      4  C   UNL     1      26.721   1.222  52.541  0.00  0.00    +0.000 A 
ATOM      5  C   UNL     1      25.375   0.825  52.536  0.00  0.00    +0.000 A 
ATOM      6  C   UNL     1      24.896  -0.337  53.321  0.00  0.00    +0.000 A 
ATOM      7  O   UNL     1      25.611  -1.076  53.986  0.00  0.00    +0.000 OA
ATOM      8  C   UNL     1      23.453  -0.606  53.283  0.00  0.00    +0.000 A 
ATOM      9  C   UNL     1      22.665   0.157  52.520  0.00  0.00    +0.000 A 
ATOM     10  O   UNL     1      23.101   1.202  51.732  0.00  0.00    +0.000 OA
ATOM     11  C   UNL     1      24.441   1.545  51.775  0.00  0.00    +0.000 A 
ENDROOT
BRANCH   1  16
ATOM     12  C   UNL     1      22.346   6.205  47.733  0.00  0.00    +0.000 C 
ATOM     13  N   UNL     1      22.062   5.036  48.552  0.00  0.00    +0.000 N 
ATOM     14  C   UNL     1      22.696   3.826  48.037  0.00  0.00    +0.000 C 
ATOM     15  C   UNL     1      23.655   3.104  48.926  0.00  0.00    +0.000 C 
ATOM     16  C   UNL     1      23.878   3.425  50.207  0.00  0.00    +0.000 C 
ATOM     17  C   UNL     1      23.168   4.562  50.867  0.00  0.00    +0.000 C 
ATOM     18  C   UNL     1      22.155   5.313  49.986  0.00  0.00    +0.000 C 
ATOM     19  H   UNL     1      21.073   4.802  48.460  0.00  0.00    +0.000 HD
ENDBRANCH   1  16
BRANCH   9  20
ATOM     20  C   UNL     1      21.223  -0.130  52.460  0.00  0.00    +0.000 A 
ATOM     21  C   UNL     1      20.607  -0.684  53.594  0.00  0.00    +0.000 A 
ATOM     22  C   UNL     1      19.218  -0.838  53.647  0.00  0.00    +0.000 A 
ATOM     23  C   UNL     1      18.436  -0.438  52.566  0.00  0.00    +0.000 A 
ATOM     24 CL   UNL     1      16.723  -0.575  52.657  0.00  0.00    +0.000 Cl
ATOM     25  C   UNL     1      19.029   0.080  51.419  0.00  0.00    +0.000 A 
ATOM     26  C   UNL     1      20.419   0.224  51.361  0.00  0.00    +0.000 A 
ATOM     27 CL   UNL     1      21.098   0.857  49.902  0.00  0.00    +0.000 Cl
ENDBRANCH   9  20
BRANCH   2  28
ATOM     28  O   UNL     1      26.620   4.144  50.345  0.00  0.00    +0.000 OA
ATOM     29  H   UNL     1      27.215   4.755  50.733  0.00  0.00    +0.000 HD
ENDBRANCH   2  28
BRANCH   4  30
ATOM     30  O   UNL     1      27.649   0.536  53.273  0.00  0.00    +0.000 OA
ATOM     31  H   UNL     1      27.374  -0.024  53.971  0.00  0.00    +0.000 HD
ENDBRANCH   4  30
TORSDOF 4
ENDMDL
MODEL 8
REMARK VINA RESULT:    -9.081      3.197      5.953
REMARK INTER + INTRA:         -11.062
REMARK INTER:                 -10.397
REMARK INTRA:                  -0.665
REMARK UNBOUND:                -0.389
REMARK  Name = 
REMARK  5 active torsions:
REMARK  status: ('A' for Active; 'I' for Inactive)
REMARK    1  A    between atoms: C_1  and  N_2
REMARK    2  A    between atoms: C_5  and  C_6
REMARK    3  A    between atoms: C_7  and  O_8
REMARK    4  A    between atoms: C_10  and  O_11
REMARK    5  A    between atoms: C_16  and  C_17
REMARK                            x       y       z     vdW  Elec       q    Type
REMARK                         _______ _______ _______ _____ _____    ______ ____
ROOT
ATOM      1  C   UNL     1      24.818   1.602  53.056  0.00  0.00    +0.000 A 
ATOM      2  C   UNL     1      25.974   1.485  53.850  0.00  0.00    +0.000 A 
ATOM      3  C   UNL     1      26.099   0.473  54.798  0.00  0.00    +0.000 A 
ATOM      4  C   UNL     1      25.058  -0.438  54.974  0.00  0.00    +0.000 A 
ATOM      5  C   UNL     1      23.888  -0.340  54.206  0.00  0.00    +0.000 A 
ATOM      6  C   UNL     1      22.755  -1.280  54.377  0.00  0.00    +0.000 A 
ATOM      7  O   UNL     1      22.748  -2.237  55.141  0.00  0.00    +0.000 OA
ATOM      8  C   UNL     1      21.563  -1.028  53.558  0.00  0.00    +0.000 A 
ATOM      9  C   UNL     1      21.572  -0.020  52.680  0.00  0.00    +0.000 A 
ATOM     10  O   UNL     1      22.640   0.824  52.460  0.00  0.00    +0.000 OA
ATOM     11  C   UNL     1      23.770   0.677  53.246  0.00  0.00    +0.000 A 
ENDROOT
BRANCH   1  16
ATOM     12  C   UNL     1      25.551   5.969  49.894  0.00  0.00    +0.000 C 
ATOM     13  N   UNL     1      24.624   4.864  50.088  0.00  0.00    +0.000 N 
ATOM     14  C   UNL     1      25.220   3.572  49.763  0.00  0.00    +0.000 C 
ATOM     15  C   UNL     1      25.279   2.536  50.837  0.00  0.00    +0.000 C 
ATOM     16  C   UNL     1      24.711   2.672  52.043  0.00  0.00    +0.000 C 
ATOM     17  C   UNL     1      23.953   3.903  52.420  0.00  0.00    +0.000 C 
ATOM     18  C   UNL     1      23.854   4.982  51.327  0.00  0.00    +0.000 C 
ATOM     19  H   UNL     1      23.884   4.929  49.389  0.00  0.00    +0.000 HD
ENDBRANCH   1  16
BRANCH   9  20
ATOM     20  C   UNL     1      20.387   0.214  51.840  0.00  0.00    +0.000 A 
ATOM     21  C   UNL     1      19.124  -0.089  52.372  0.00  0.00    +0.000 A 
ATOM     22  C   UNL     1      17.958   0.252  51.679  0.00  0.00    +0.000 A 
ATOM     23  C   UNL     1      18.049   0.900  50.448  0.00  0.00    +0.000 A 
ATOM     24 CL   UNL     1      16.613   1.370  49.625  0.00  0.00    +0.000 Cl
ATOM     25  C   UNL     1      19.291   1.178  49.887  0.00  0.00    +0.000 A 
ATOM     26  C   UNL     1      20.457   0.827  50.575  0.00  0.00    +0.000 A 
ATOM     27 CL   UNL     1      21.972   1.183  49.818  0.00  0.00    +0.000 Cl
ENDBRANCH   9  20
BRANCH   2  28
ATOM     28  O   UNL     1      26.998   2.386  53.697  0.00  0.00    +0.000 OA
ATOM     29  H   UNL     1      26.847   3.298  53.852  0.00  0.00    +0.000 HD
ENDBRANCH   2  28
BRANCH   4  30
ATOM     30  O   UNL     1      25.197  -1.421  55.913  0.00  0.00    +0.000 OA
ATOM     31  H   UNL     1      25.656  -2.209  55.701  0.00  0.00    +0.000 HD
ENDBRANCH   4  30
TORSDOF 4
ENDMDL
MODEL 9
REMARK VINA RESULT:    -9.004      2.920      5.901
REMARK INTER + INTRA:         -10.972
REMARK INTER:                 -10.525
REMARK INTRA:                  -0.447
REMARK UNBOUND:                -0.389
REMARK  Name = 
REMARK  5 active torsions:
REMARK  status: ('A' for Active; 'I' for Inactive)
REMARK    1  A    between atoms: C_1  and  N_2
REMARK    2  A    between atoms: C_5  and  C_6
REMARK    3  A    between atoms: C_7  and  O_8
REMARK    4  A    between atoms: C_10  and  O_11
REMARK    5  A    between atoms: C_16  and  C_17
REMARK                            x       y       z     vdW  Elec       q    Type
REMARK                         _______ _______ _______ _____ _____    ______ ____
ROOT
ATOM      1  C   UNL     1      25.113   2.547  51.309  0.00  0.00    +0.000 A 
ATOM      2  C   UNL     1      25.972   3.399  50.588  0.00  0.00    +0.000 A 
ATOM      3  C   UNL     1      25.479   4.259  49.610  0.00  0.00    +0.000 A 
ATOM      4  C   UNL     1      24.114   4.274  49.328  0.00  0.00    +0.000 A 
ATOM      5  C   UNL     1      23.235   3.428  50.021  0.00  0.00    +0.000 A 
ATOM      6  C   UNL     1      21.781   3.405  49.738  0.00  0.00    +0.000 A 
ATOM      7  O   UNL     1      21.211   4.134  48.937  0.00  0.00    +0.000 OA
ATOM      8  C   UNL     1      20.981   2.427  50.487  0.00  0.00    +0.000 A 
ATOM      9  C   UNL     1      21.576   1.658  51.404  0.00  0.00    +0.000 A 
ATOM     10  O   UNL     1      22.916   1.711  51.727  0.00  0.00    +0.000 OA
ATOM     11  C   UNL     1      23.734   2.568  51.012  0.00  0.00    +0.000 A 
ENDROOT
BRANCH   1  16
ATOM     12  C   UNL     1      28.245  -0.151  54.846  0.00  0.00    +0.000 C 
ATOM     13  N   UNL     1      26.860  -0.068  54.406  0.00  0.00    +0.000 N 
ATOM     14  C   UNL     1      26.242   1.210  54.747  0.00  0.00    +0.000 C 
ATOM     15  C   UNL     1      25.709   2.051  53.633  0.00  0.00    +0.000 C 
ATOM     16  C   UNL     1      25.650   1.654  52.355  0.00  0.00    +0.000 C 
ATOM     17  C   UNL     1      26.127   0.304  51.929  0.00  0.00    +0.000 C 
ATOM     18  C   UNL     1      26.662  -0.597  53.056  0.00  0.00    +0.000 C 
ATOM     19  H   UNL     1      26.300  -0.718  54.957  0.00  0.00    +0.000 HD
ENDBRANCH   1  16
BRANCH   9  20
ATOM     20  C   UNL     1      20.769   0.698  52.173  0.00  0.00    +0.000 A 
ATOM     21  C   UNL     1      19.403   0.585  51.872  0.00  0.00    +0.000 A 
ATOM     22  C   UNL     1      18.622  -0.412  52.464  0.00  0.00    +0.000 A 
ATOM     23  C   UNL     1      19.204  -1.304  53.362  0.00  0.00    +0.000 A 
ATOM     24 CL   UNL     1      18.254  -2.566  54.045  0.00  0.00    +0.000 Cl
ATOM     25  C   UNL     1      20.548  -1.188  53.701  0.00  0.00    +0.000 A 
ATOM     26  C   UNL     1      21.327  -0.184  53.117  0.00  0.00    +0.000 A 
ATOM     27 CL   UNL     1      22.987  -0.079  53.593  0.00  0.00    +0.000 Cl
ENDBRANCH   9  20
BRANCH   2  28
ATOM     28  O   UNL     1      27.319   3.381  50.845  0.00  0.00    +0.000 OA
ATOM     29  H   UNL     1      27.650   2.908  51.583  0.00  0.00    +0.000 HD
ENDBRANCH   2  28
BRANCH   4  30
ATOM     30  O   UNL     1      23.652   5.121  48.361  0.00  0.00    +0.000 OA
ATOM     31  H   UNL     1      22.730   5.224  48.230  0.00  0.00    +0.000 HD
ENDBRANCH   4  30
TORSDOF 4
ENDMDL
