MODEL 1
REMARK VINA RESULT:    -7.372      0.000      0.000
REMARK INTER + INTRA:          -9.364
REMARK INTER:                  -8.449
REMARK INTRA:                  -0.914
REMARK UNBOUND:                -0.914
REMARK  Name = 
REMARK  4 active torsions:
REMARK  status: ('A' for Active; 'I' for Inactive)
REMARK    1  A    between atoms: C_1  and  C_2
REMARK    2  A    between atoms: C_10  and  C_11
REMARK    3  A    between atoms: C_14  and  N_15
REMARK    4  A    between atoms: C_20  and  C_22
REMARK                            x       y       z     vdW  Elec       q    Type
REMARK                         _______ _______ _______ _____ _____    ______ ____
ROOT
ATOM      1  C   UNL     1      19.256   2.530  47.340  0.00  0.00    +0.000 C 
ATOM      2  C   UNL     1      20.687   3.074  47.264  0.00  0.00    +0.000 C 
ATOM      3  C   UNL     1      21.668   1.927  47.618  0.00  0.00    +0.000 C 
ATOM      4  C   UNL     1      21.889   1.849  49.113  0.00  0.00    +0.000 A 
ATOM      5  C   UNL     1      21.322   0.841  49.898  0.00  0.00    +0.000 A 
ATOM      6  C   UNL     1      21.493   0.930  51.267  0.00  0.00    +0.000 A 
ATOM      7  C   UNL     1      22.220   1.940  51.856  0.00  0.00    +0.000 A 
ATOM      8  C   UNL     1      22.812   2.939  51.120  0.00  0.00    +0.000 A 
ATOM      9  C   UNL     1      22.617   2.890  49.736  0.00  0.00    +0.000 A 
ATOM     10  C   UNL     1      23.114   4.006  48.890  0.00  0.00    +0.000 C 
ATOM     11  N   UNL     1      22.339   4.678  48.085  0.00  0.00    +0.000 NA
ATOM     12  N   UNL     1      20.993   4.318  48.038  0.00  0.00    +0.000 N 
ATOM     13  C   UNL     1      20.012   5.263  48.437  0.00  0.00    +0.000 C 
ATOM     14  O   UNL     1      18.805   5.046  48.426  0.00  0.00    +0.000 OA
ATOM     15  O   UNL     1      22.241   1.846  53.213  0.00  0.00    +0.000 OA
ATOM     16  C   UNL     1      21.328   0.748  53.414  0.00  0.00    +0.000 C 
ATOM     17  O   UNL     1      20.957   0.083  52.187  0.00  0.00    +0.000 OA
ENDROOT
BRANCH  10  18
ATOM     18  C   UNL     1      24.562   4.358  48.990  0.00  0.00    +0.000 A 
ATOM     19  C   UNL     1      24.988   5.663  48.726  0.00  0.00    +0.000 A 
ATOM     20  C   UNL     1      26.351   5.968  48.737  0.00  0.00    +0.000 A 
ATOM     21  C   UNL     1      27.301   4.972  48.976  0.00  0.00    +0.000 A 
ATOM     22  C   UNL     1      26.860   3.701  49.350  0.00  0.00    +0.000 A 
ATOM     23  C   UNL     1      25.497   3.386  49.342  0.00  0.00    +0.000 A 
BRANCH  21  24
ATOM     24  N   UNL     1      28.657   5.304  49.058  0.00  0.00    +0.000 N 
ATOM     25  H   UNL     1      29.278   4.719  49.550  0.00  0.00    +0.000 HD
ATOM     26  H   UNL     1      28.991   6.122  48.625  0.00  0.00    +0.000 HD
ENDBRANCH  21  24
ENDBRANCH  10  18
BRANCH  13  27
ATOM     27  C   UNL     1      20.457   6.592  48.988  0.00  0.00    +0.000 A 
ATOM     28  C   UNL     1      20.245   7.788  48.295  0.00  0.00    +0.000 A 
ATOM     29  C   UNL     1      20.790   8.992  48.750  0.00  0.00    +0.000 A 
ATOM     30  C   UNL     1      21.476   9.030  49.958  0.00  0.00    +0.000 A 
ATOM     31  C   UNL     1      21.589   7.870  50.725  0.00  0.00    +0.000 A 
ATOM     32  C   UNL     1      21.087   6.651  50.241  0.00  0.00    +0.000 A 
ENDBRANCH  13  27
TORSDOF 3
ENDMDL
MODEL 2
REMARK VINA RESULT:    -7.324      3.204      6.418
REMARK INTER + INTRA:          -9.309
REMARK INTER:                  -8.117
REMARK INTRA:                  -1.192
REMARK UNBOUND:                -0.914
REMARK  Name = 
REMARK  4 active torsions:
REMARK  status: ('A' for Active; 'I' for Inactive)
REMARK    1  A    between atoms: C_1  and  C_2
REMARK    2  A    between atoms: C_10  and  C_11
REMARK    3  A    between atoms: C_14  and  N_15
REMARK    4  A    between atoms: C_20  and  C_22
REMARK                            x       y       z     vdW  Elec       q    Type
REMARK                         _______ _______ _______ _____ _____    ______ ____
ROOT
ATOM      1  C   UNL     1      24.593   6.103  52.079  0.00  0.00    +0.000 C 
ATOM      2  C   UNL     1      23.354   5.242  52.348  0.00  0.00    +0.000 C 
ATOM      3  C   UNL     1      23.611   4.396  53.621  0.00  0.00    +0.000 C 
ATOM      4  C   UNL     1      24.310   3.099  53.275  0.00  0.00    +0.000 A 
ATOM      5  C   UNL     1      25.663   2.885  53.550  0.00  0.00    +0.000 A 
ATOM      6  C   UNL     1      26.228   1.711  53.089  0.00  0.00    +0.000 A 
ATOM      7  C   UNL     1      25.499   0.756  52.415  0.00  0.00    +0.000 A 
ATOM      8  C   UNL     1      24.161   0.916  52.143  0.00  0.00    +0.000 A 
ATOM      9  C   UNL     1      23.579   2.116  52.566  0.00  0.00    +0.000 A 
ATOM     10  C   UNL     1      22.173   2.416  52.191  0.00  0.00    +0.000 C 
ATOM     11  N   UNL     1      21.831   3.502  51.556  0.00  0.00    +0.000 NA
ATOM     12  N   UNL     1      22.844   4.398  51.221  0.00  0.00    +0.000 N 
ATOM     13  C   UNL     1      23.103   4.667  49.852  0.00  0.00    +0.000 C 
ATOM     14  O   UNL     1      23.967   5.443  49.455  0.00  0.00    +0.000 OA
ATOM     15  O   UNL     1      26.257  -0.307  52.034  0.00  0.00    +0.000 OA
ATOM     16  C   UNL     1      27.568   0.154  52.418  0.00  0.00    +0.000 C 
ATOM     17  O   UNL     1      27.539   1.367  53.201  0.00  0.00    +0.000 OA
ENDROOT
BRANCH  10  18
ATOM     18  C   UNL     1      21.129   1.414  52.563  0.00  0.00    +0.000 A 
ATOM     19  C   UNL     1      21.165   0.795  53.815  0.00  0.00    +0.000 A 
ATOM     20  C   UNL     1      20.237  -0.204  54.126  0.00  0.00    +0.000 A 
ATOM     21  C   UNL     1      19.292  -0.615  53.184  0.00  0.00    +0.000 A 
ATOM     22  C   UNL     1      19.194   0.088  51.981  0.00  0.00    +0.000 A 
ATOM     23  C   UNL     1      20.117   1.089  51.660  0.00  0.00    +0.000 A 
BRANCH  21  24
ATOM     24  N   UNL     1      18.323  -1.562  53.531  0.00  0.00    +0.000 N 
ATOM     25  H   UNL     1      18.545  -2.521  53.517  0.00  0.00    +0.000 HD
ATOM     26  H   UNL     1      17.419  -1.270  53.788  0.00  0.00    +0.000 HD
ENDBRANCH  21  24
ENDBRANCH  10  18
BRANCH  13  27
ATOM     27  C   UNL     1      22.340   3.906  48.799  0.00  0.00    +0.000 A 
ATOM     28  C   UNL     1      21.276   4.480  48.098  0.00  0.00    +0.000 A 
ATOM     29  C   UNL     1      20.488   3.718  47.231  0.00  0.00    +0.000 A 
ATOM     30  C   UNL     1      20.816   2.391  46.982  0.00  0.00    +0.000 A 
ATOM     31  C   UNL     1      21.950   1.837  47.577  0.00  0.00    +0.000 A 
ATOM     32  C   UNL     1      22.708   2.587  48.488  0.00  0.00    +0.000 A 
ENDBRANCH  13  27
TORSDOF 3
ENDMDL
MODEL 3
REMARK VINA RESULT:    -6.844      1.008      1.700
REMARK INTER + INTRA:          -8.759
REMARK INTER:                  -7.745
REMARK INTRA:                  -1.014
REMARK UNBOUND:                -0.914
REMARK  Name = 
REMARK  4 active torsions:
REMARK  status: ('A' for Active; 'I' for Inactive)
REMARK    1  A    between atoms: C_1  and  C_2
REMARK    2  A    between atoms: C_10  and  C_11
REMARK    3  A    between atoms: C_14  and  N_15
REMARK    4  A    between atoms: C_20  and  C_22
REMARK                            x       y       z     vdW  Elec       q    Type
REMARK                         _______ _______ _______ _____ _____    ______ ____
ROOT
ATOM      1  C   UNL     1      19.852   2.723  47.152  0.00  0.00    +0.000 C 
ATOM      2  C   UNL     1      21.147   3.530  47.012  0.00  0.00    +0.000 C 
ATOM      3  C   UNL     1      22.344   2.599  47.333  0.00  0.00    +0.000 C 
ATOM      4  C   UNL     1      22.635   2.588  48.818  0.00  0.00    +0.000 A 
ATOM      5  C   UNL     1      22.305   1.502  49.633  0.00  0.00    +0.000 A 
ATOM      6  C   UNL     1      22.510   1.643  50.993  0.00  0.00    +0.000 A 
ATOM      7  C   UNL     1      23.052   2.784  51.544  0.00  0.00    +0.000 A 
ATOM      8  C   UNL     1      23.410   3.867  50.776  0.00  0.00    +0.000 A 
ATOM      9  C   UNL     1      23.173   3.759  49.401  0.00  0.00    +0.000 A 
ATOM     10  C   UNL     1      23.412   4.937  48.527  0.00  0.00    +0.000 C 
ATOM     11  N   UNL     1      22.490   5.434  47.750  0.00  0.00    +0.000 NA
ATOM     12  N   UNL     1      21.238   4.822  47.763  0.00  0.00    +0.000 N 
ATOM     13  C   UNL     1      20.111   5.567  48.196  0.00  0.00    +0.000 C 
ATOM     14  O   UNL     1      18.968   5.121  48.237  0.00  0.00    +0.000 OA
ATOM     15  O   UNL     1      23.144   2.716  52.899  0.00  0.00    +0.000 OA
ATOM     16  C   UNL     1      22.468   1.467  53.147  0.00  0.00    +0.000 C 
ATOM     17  O   UNL     1      22.184   0.724  51.941  0.00  0.00    +0.000 OA
ENDROOT
BRANCH  10  18
ATOM     18  C   UNL     1      24.768   5.562  48.563  0.00  0.00    +0.000 A 
ATOM     19  C   UNL     1      25.895   4.779  48.825  0.00  0.00    +0.000 A 
ATOM     20  C   UNL     1      27.151   5.382  48.943  0.00  0.00    +0.000 A 
ATOM     21  C   UNL     1      27.288   6.767  48.835  0.00  0.00    +0.000 A 
ATOM     22  C   UNL     1      26.176   7.524  48.462  0.00  0.00    +0.000 A 
ATOM     23  C   UNL     1      24.915   6.931  48.341  0.00  0.00    +0.000 A 
BRANCH  21  24
ATOM     24  N   UNL     1      28.559   7.351  48.881  0.00  0.00    +0.000 N 
ATOM     25  H   UNL     1      28.658   8.292  49.153  0.00  0.00    +0.000 HD
ATOM     26  H   UNL     1      29.353   6.821  48.640  0.00  0.00    +0.000 HD
ENDBRANCH  21  24
ENDBRANCH  10  18
BRANCH  13  27
ATOM     27  C   UNL     1      20.313   6.965  48.717  0.00  0.00    +0.000 A 
ATOM     28  C   UNL     1      20.786   7.211  50.010  0.00  0.00    +0.000 A 
ATOM     29  C   UNL     1      20.831   8.508  50.528  0.00  0.00    +0.000 A 
ATOM     30  C   UNL     1      20.492   9.588  49.722  0.00  0.00    +0.000 A 
ATOM     31  C   UNL     1      20.137   9.372  48.391  0.00  0.00    +0.000 A 
ATOM     32  C   UNL     1      20.042   8.065  47.888  0.00  0.00    +0.000 A 
ENDBRANCH  13  27
TORSDOF 3
ENDMDL
MODEL 4
REMARK VINA RESULT:    -6.764      5.352      8.392
REMARK INTER + INTRA:          -8.667
REMARK INTER:                  -7.376
REMARK INTRA:                  -1.290
REMARK UNBOUND:                -0.914
REMARK  Name = 
REMARK  4 active torsions:
REMARK  status: ('A' for Active; 'I' for Inactive)
REMARK    1  A    between atoms: C_1  and  C_2
REMARK    2  A    between atoms: C_10  and  C_11
REMARK    3  A    between atoms: C_14  and  N_15
REMARK    4  A    between atoms: C_20  and  C_22
REMARK                            x       y       z     vdW  Elec       q    Type
REMARK                         _______ _______ _______ _____ _____    ______ ____
ROOT
ATOM      1  C   UNL     1      16.038   3.381  47.408  0.00  0.00    +0.000 C 
ATOM      2  C   UNL     1      16.349   2.051  48.103  0.00  0.00    +0.000 C 
ATOM      3  C   UNL     1      15.018   1.437  48.607  0.00  0.00    +0.000 C 
ATOM      4  C   UNL     1      14.673   1.957  49.986  0.00  0.00    +0.000 A 
ATOM      5  C   UNL     1      13.659   2.897  50.194  0.00  0.00    +0.000 A 
ATOM      6  C   UNL     1      13.504   3.389  51.477  0.00  0.00    +0.000 A 
ATOM      7  C   UNL     1      14.278   2.960  52.532  0.00  0.00    +0.000 A 
ATOM      8  C   UNL     1      15.272   2.023  52.374  0.00  0.00    +0.000 A 
ATOM      9  C   UNL     1      15.472   1.541  51.076  0.00  0.00    +0.000 A 
ATOM     10  C   UNL     1      16.612   0.626  50.806  0.00  0.00    +0.000 C 
ATOM     11  N   UNL     1      17.517   0.879  49.903  0.00  0.00    +0.000 NA
ATOM     12  N   UNL     1      17.392   2.062  49.178  0.00  0.00    +0.000 N 
ATOM     13  C   UNL     1      18.408   3.047  49.284  0.00  0.00    +0.000 C 
ATOM     14  O   UNL     1      18.393   4.117  48.684  0.00  0.00    +0.000 OA
ATOM     15  O   UNL     1      13.971   3.592  53.696  0.00  0.00    +0.000 OA
ATOM     16  C   UNL     1      13.018   4.564  53.224  0.00  0.00    +0.000 C 
ATOM     17  O   UNL     1      12.621   4.355  51.851  0.00  0.00    +0.000 OA
ENDROOT
BRANCH  10  18
ATOM     18  C   UNL     1      16.705  -0.622  51.621  0.00  0.00    +0.000 A 
ATOM     19  C   UNL     1      15.701  -1.591  51.539  0.00  0.00    +0.000 A 
ATOM     20  C   UNL     1      15.749  -2.717  52.366  0.00  0.00    +0.000 A 
ATOM     21  C   UNL     1      16.775  -2.869  53.302  0.00  0.00    +0.000 A 
ATOM     22  C   UNL     1      17.830  -1.954  53.296  0.00  0.00    +0.000 A 
ATOM     23  C   UNL     1      17.792  -0.824  52.472  0.00  0.00    +0.000 A 
BRANCH  21  24
ATOM     24  N   UNL     1      16.853  -4.034  54.072  0.00  0.00    +0.000 N 
ATOM     25  H   UNL     1      16.531  -4.889  53.704  0.00  0.00    +0.000 HD
ATOM     26  H   UNL     1      17.227  -3.999  54.981  0.00  0.00    +0.000 HD
ENDBRANCH  21  24
ENDBRANCH  10  18
BRANCH  13  27
ATOM     27  C   UNL     1      19.545   2.825  50.247  0.00  0.00    +0.000 A 
ATOM     28  C   UNL     1      20.718   2.167  49.866  0.00  0.00    +0.000 A 
ATOM     29  C   UNL     1      21.701   1.842  50.805  0.00  0.00    +0.000 A 
ATOM     30  C   UNL     1      21.564   2.258  52.124  0.00  0.00    +0.000 A 
ATOM     31  C   UNL     1      20.459   3.025  52.494  0.00  0.00    +0.000 A 
ATOM     32  C   UNL     1      19.448   3.304  51.562  0.00  0.00    +0.000 A 
ENDBRANCH  13  27
TORSDOF 3
ENDMDL
MODEL 5
REMARK VINA RESULT:    -6.717      4.817      7.202
REMARK INTER + INTRA:          -8.613
REMARK INTER:                  -7.293
REMARK INTRA:                  -1.320
REMARK UNBOUND:                -0.914
REMARK  Name = 
REMARK  4 active torsions:
REMARK  status: ('A' for Active; 'I' for Inactive)
REMARK    1  A    between atoms: C_1  and  C_2
REMARK    2  A    between atoms: C_10  and  C_11
REMARK    3  A    between atoms: C_14  and  N_15
REMARK    4  A    between atoms: C_20  and  C_22
REMARK                            x       y       z     vdW  Elec       q    Type
REMARK                         _______ _______ _______ _____ _____    ______ ____
ROOT
ATOM      1  C   UNL     1      14.523   2.176  47.399  0.00  0.00    +0.000 C 
ATOM      2  C   UNL     1      15.580   1.383  48.176  0.00  0.00    +0.000 C 
ATOM      3  C   UNL     1      14.878   0.639  49.341  0.00  0.00    +0.000 C 
ATOM      4  C   UNL     1      14.788   1.520  50.567  0.00  0.00    +0.000 A 
ATOM      5  C   UNL     1      13.588   2.109  50.975  0.00  0.00    +0.000 A 
ATOM      6  C   UNL     1      13.641   2.987  52.041  0.00  0.00    +0.000 A 
ATOM      7  C   UNL     1      14.810   3.259  52.717  0.00  0.00    +0.000 A 
ATOM      8  C   UNL     1      16.008   2.686  52.363  0.00  0.00    +0.000 A 
ATOM      9  C   UNL     1      15.983   1.824  51.261  0.00  0.00    +0.000 A 
ATOM     10  C   UNL     1      17.261   1.272  50.739  0.00  0.00    +0.000 C 
ATOM     11  N   UNL     1      17.636   1.417  49.499  0.00  0.00    +0.000 NA
ATOM     12  N   UNL     1      16.790   2.128  48.650  0.00  0.00    +0.000 N 
ATOM     13  C   UNL     1      17.254   3.336  48.066  0.00  0.00    +0.000 C 
ATOM     14  O   UNL     1      16.590   4.029  47.302  0.00  0.00    +0.000 OA
ATOM     15  O   UNL     1      14.637   4.166  53.715  0.00  0.00    +0.000 OA
ATOM     16  C   UNL     1      13.261   4.538  53.497  0.00  0.00    +0.000 C 
ATOM     17  O   UNL     1      12.591   3.703  52.528  0.00  0.00    +0.000 OA
ENDROOT
BRANCH  10  18
ATOM     18  C   UNL     1      18.136   0.531  51.697  0.00  0.00    +0.000 A 
ATOM     19  C   UNL     1      17.662  -0.618  52.336  0.00  0.00    +0.000 A 
ATOM     20  C   UNL     1      18.452  -1.259  53.294  0.00  0.00    +0.000 A 
ATOM     21  C   UNL     1      19.701  -0.744  53.647  0.00  0.00    +0.000 A 
ATOM     22  C   UNL     1      20.210   0.335  52.922  0.00  0.00    +0.000 A 
ATOM     23  C   UNL     1      19.428   0.984  51.960  0.00  0.00    +0.000 A 
BRANCH  21  24
ATOM     24  N   UNL     1      20.513  -1.435  54.552  0.00  0.00    +0.000 N 
ATOM     25  H   UNL     1      21.491  -1.331  54.514  0.00  0.00    +0.000 HD
ATOM     26  H   UNL     1      20.106  -2.026  55.226  0.00  0.00    +0.000 HD
ENDBRANCH  21  24
ENDBRANCH  10  18
BRANCH  13  27
ATOM     27  C   UNL     1      18.610   3.863  48.455  0.00  0.00    +0.000 A 
ATOM     28  C   UNL     1      19.743   3.643  47.664  0.00  0.00    +0.000 A 
ATOM     29  C   UNL     1      21.015   4.013  48.108  0.00  0.00    +0.000 A 
ATOM     30  C   UNL     1      21.159   4.695  49.310  0.00  0.00    +0.000 A 
ATOM     31  C   UNL     1      20.027   5.033  50.052  0.00  0.00    +0.000 A 
ATOM     32  C   UNL     1      18.755   4.614  49.631  0.00  0.00    +0.000 A 
ENDBRANCH  13  27
TORSDOF 3
ENDMDL
MODEL 6
REMARK VINA RESULT:    -6.522      2.610      6.038
REMARK INTER + INTRA:          -8.389
REMARK INTER:                  -7.550
REMARK INTRA:                  -0.840
REMARK UNBOUND:                -0.914
REMARK  Name = 
REMARK  4 active torsions:
REMARK  status: ('A' for Active; 'I' for Inactive)
REMARK    1  A    between atoms: C_1  and  C_2
REMARK    2  A    between atoms: C_10  and  C_11
REMARK    3  A    between atoms: C_14  and  N_15
REMARK    4  A    between atoms: C_20  and  C_22
REMARK                            x       y       z     vdW  Elec       q    Type
REMARK                         _______ _______ _______ _____ _____    ______ ____
ROOT
ATOM      1  C   UNL     1      23.922   3.758  52.169  0.00  0.00    +0.000 C 
ATOM      2  C   UNL     1      23.471   5.207  51.953  0.00  0.00    +0.000 C 
ATOM      3  C   UNL     1      21.931   5.271  52.118  0.00  0.00    +0.000 C 
ATOM      4  C   UNL     1      21.236   4.969  50.808  0.00  0.00    +0.000 A 
ATOM      5  C   UNL     1      20.589   3.753  50.572  0.00  0.00    +0.000 A 
ATOM      6  C   UNL     1      20.086   3.537  49.302  0.00  0.00    +0.000 A 
ATOM      7  C   UNL     1      20.173   4.482  48.303  0.00  0.00    +0.000 A 
ATOM      8  C   UNL     1      20.782   5.699  48.499  0.00  0.00    +0.000 A 
ATOM      9  C   UNL     1      21.332   5.921  49.766  0.00  0.00    +0.000 A 
ATOM     10  C   UNL     1      22.120   7.157  50.011  0.00  0.00    +0.000 C 
ATOM     11  N   UNL     1      23.346   7.134  50.455  0.00  0.00    +0.000 NA
ATOM     12  N   UNL     1      23.919   5.888  50.697  0.00  0.00    +0.000 N 
ATOM     13  C   UNL     1      25.059   5.496  49.948  0.00  0.00    +0.000 C 
ATOM     14  O   UNL     1      25.639   4.424  50.091  0.00  0.00    +0.000 OA
ATOM     15  O   UNL     1      19.634   4.052  47.131  0.00  0.00    +0.000 OA
ATOM     16  C   UNL     1      19.331   2.684  47.466  0.00  0.00    +0.000 C 
ATOM     17  O   UNL     1      19.492   2.392  48.872  0.00  0.00    +0.000 OA
ENDROOT
BRANCH  10  18
ATOM     18  C   UNL     1      21.461   8.466  49.722  0.00  0.00    +0.000 A 
ATOM     19  C   UNL     1      20.214   8.763  50.279  0.00  0.00    +0.000 A 
ATOM     20  C   UNL     1      19.563   9.951  49.938  0.00  0.00    +0.000 A 
ATOM     21  C   UNL     1      20.129  10.835  49.017  0.00  0.00    +0.000 A 
ATOM     22  C   UNL     1      21.423  10.583  48.555  0.00  0.00    +0.000 A 
ATOM     23  C   UNL     1      22.084   9.396  48.890  0.00  0.00    +0.000 A 
BRANCH  21  24
ATOM     24  N   UNL     1      19.503  12.054  48.740  0.00  0.00    +0.000 N 
ATOM     25  H   UNL     1      19.511  12.775  49.410  0.00  0.00    +0.000 HD
ATOM     26  H   UNL     1      19.053  12.191  47.875  0.00  0.00    +0.000 HD
ENDBRANCH  21  24
ENDBRANCH  10  18
BRANCH  13  27
ATOM     27  C   UNL     1      25.559   6.397  48.850  0.00  0.00    +0.000 A 
ATOM     28  C   UNL     1      26.901   6.780  48.761  0.00  0.00    +0.000 A 
ATOM     29  C   UNL     1      27.320   7.729  47.825  0.00  0.00    +0.000 A 
ATOM     30  C   UNL     1      26.416   8.236  46.900  0.00  0.00    +0.000 A 
ATOM     31  C   UNL     1      25.101   7.771  46.893  0.00  0.00    +0.000 A 
ATOM     32  C   UNL     1      24.669   6.858  47.868  0.00  0.00    +0.000 A 
ENDBRANCH  13  27
TORSDOF 3
ENDMDL
MODEL 7
REMARK VINA RESULT:    -6.261      2.727      4.901
REMARK INTER + INTRA:          -8.091
REMARK INTER:                  -6.932
REMARK INTRA:                  -1.159
REMARK UNBOUND:                -0.914
REMARK  Name = 
REMARK  4 active torsions:
REMARK  status: ('A' for Active; 'I' for Inactive)
REMARK    1  A    between atoms: C_1  and  C_2
REMARK    2  A    between atoms: C_10  and  C_11
REMARK    3  A    between atoms: C_14  and  N_15
REMARK    4  A    between atoms: C_20  and  C_22
REMARK                            x       y       z     vdW  Elec       q    Type
REMARK                         _______ _______ _______ _____ _____    ______ ____
ROOT
ATOM      1  C   UNL     1      21.856   1.242  47.975  0.00  0.00    +0.000 C 
ATOM      2  C   UNL     1      21.528   2.734  47.845  0.00  0.00    +0.000 C 
ATOM      3  C   UNL     1      22.845   3.540  47.984  0.00  0.00    +0.000 C 
ATOM      4  C   UNL     1      23.143   3.839  49.437  0.00  0.00    +0.000 A 
ATOM      5  C   UNL     1      24.146   3.170  50.144  0.00  0.00    +0.000 A 
ATOM      6  C   UNL     1      24.258   3.438  51.495  0.00  0.00    +0.000 A 
ATOM      7  C   UNL     1      23.451   4.352  52.136  0.00  0.00    +0.000 A 
ATOM      8  C   UNL     1      22.467   5.048  51.474  0.00  0.00    +0.000 A 
ATOM      9  C   UNL     1      22.311   4.761  50.113  0.00  0.00    +0.000 A 
ATOM     10  C   UNL     1      21.184   5.375  49.364  0.00  0.00    +0.000 C 
ATOM     11  N   UNL     1      20.307   4.668  48.708  0.00  0.00    +0.000 NA
ATOM     12  N   UNL     1      20.452   3.282  48.730  0.00  0.00    +0.000 N 
ATOM     13  C   UNL     1      19.429   2.491  49.314  0.00  0.00    +0.000 C 
ATOM     14  O   UNL     1      19.459   1.266  49.377  0.00  0.00    +0.000 OA
ATOM     15  O   UNL     1      23.719   4.443  53.466  0.00  0.00    +0.000 OA
ATOM     16  C   UNL     1      24.683   3.382  53.613  0.00  0.00    +0.000 C 
ATOM     17  O   UNL     1      25.125   2.833  52.352  0.00  0.00    +0.000 OA
ENDROOT
BRANCH  10  18
ATOM     18  C   UNL     1      21.070   6.865  49.385  0.00  0.00    +0.000 A 
ATOM     19  C   UNL     1      19.840   7.470  49.658  0.00  0.00    +0.000 A 
ATOM     20  C   UNL     1      19.718   8.861  49.592  0.00  0.00    +0.000 A 
ATOM     21  C   UNL     1      20.806   9.654  49.223  0.00  0.00    +0.000 A 
ATOM     22  C   UNL     1      22.054   9.049  49.065  0.00  0.00    +0.000 A 
ATOM     23  C   UNL     1      22.187   7.658  49.128  0.00  0.00    +0.000 A 
BRANCH  21  24
ATOM     24  N   UNL     1      20.692  11.048  49.233  0.00  0.00    +0.000 N 
ATOM     25  H   UNL     1      20.799  11.545  50.076  0.00  0.00    +0.000 HD
ATOM     26  H   UNL     1      20.502  11.533  48.397  0.00  0.00    +0.000 HD
ENDBRANCH  21  24
ENDBRANCH  10  18
BRANCH  13  27
ATOM     27  C   UNL     1      18.262   3.176  49.977  0.00  0.00    +0.000 A 
ATOM     28  C   UNL     1      18.275   3.511  51.334  0.00  0.00    +0.000 A 
ATOM     29  C   UNL     1      17.133   4.013  51.965  0.00  0.00    +0.000 A 
ATOM     30  C   UNL     1      15.990   4.276  51.220  0.00  0.00    +0.000 A 
ATOM     31  C   UNL     1      16.000   4.066  49.841  0.00  0.00    +0.000 A 
ATOM     32  C   UNL     1      17.129   3.512  49.219  0.00  0.00    +0.000 A 
ENDBRANCH  13  27
TORSDOF 3
ENDMDL
MODEL 8
REMARK VINA RESULT:    -5.841      3.125      7.480
REMARK INTER + INTRA:          -7.609
REMARK INTER:                  -6.745
REMARK INTRA:                  -0.864
REMARK UNBOUND:                -0.914
REMARK  Name = 
REMARK  4 active torsions:
REMARK  status: ('A' for Active; 'I' for Inactive)
REMARK    1  A    between atoms: C_1  and  C_2
REMARK    2  A    between atoms: C_10  and  C_11
REMARK    3  A    between atoms: C_14  and  N_15
REMARK    4  A    between atoms: C_20  and  C_22
REMARK                            x       y       z     vdW  Elec       q    Type
REMARK                         _______ _______ _______ _____ _____    ______ ____
ROOT
ATOM      1  C   UNL     1      22.397   2.252  47.270  0.00  0.00    +0.000 C 
ATOM      2  C   UNL     1      20.924   2.299  47.690  0.00  0.00    +0.000 C 
ATOM      3  C   UNL     1      20.305   3.619  47.165  0.00  0.00    +0.000 C 
ATOM      4  C   UNL     1      20.515   4.744  48.155  0.00  0.00    +0.000 A 
ATOM      5  C   UNL     1      21.449   5.761  47.939  0.00  0.00    +0.000 A 
ATOM      6  C   UNL     1      21.641   6.675  48.959  0.00  0.00    +0.000 A 
ATOM      7  C   UNL     1      20.926   6.629  50.135  0.00  0.00    +0.000 A 
ATOM      8  C   UNL     1      19.984   5.658  50.380  0.00  0.00    +0.000 A 
ATOM      9  C   UNL     1      19.802   4.701  49.376  0.00  0.00    +0.000 A 
ATOM     10  C   UNL     1      18.898   3.548  49.624  0.00  0.00    +0.000 C 
ATOM     11  N   UNL     1      19.289   2.309  49.508  0.00  0.00    +0.000 NA
ATOM     12  N   UNL     1      20.614   2.084  49.140  0.00  0.00    +0.000 N 
ATOM     13  C   UNL     1      21.474   1.404  50.040  0.00  0.00    +0.000 C 
ATOM     14  O   UNL     1      22.652   1.152  49.807  0.00  0.00    +0.000 OA
ATOM     15  O   UNL     1      21.291   7.608  51.006  0.00  0.00    +0.000 OA
ATOM     16  C   UNL     1      22.411   8.182  50.303  0.00  0.00    +0.000 C 
ATOM     17  O   UNL     1      22.553   7.684  48.954  0.00  0.00    +0.000 OA
ENDROOT
BRANCH  10  18
ATOM     18  C   UNL     1      17.492   3.847  50.029  0.00  0.00    +0.000 A 
ATOM     19  C   UNL     1      17.105   3.727  51.367  0.00  0.00    +0.000 A 
ATOM     20  C   UNL     1      15.770   3.924  51.728  0.00  0.00    +0.000 A 
ATOM     21  C   UNL     1      14.805   4.208  50.759  0.00  0.00    +0.000 A 
ATOM     22  C   UNL     1      15.221   4.437  49.445  0.00  0.00    +0.000 A 
ATOM     23  C   UNL     1      16.556   4.242  49.074  0.00  0.00    +0.000 A 
BRANCH  21  24
ATOM     24  N   UNL     1      13.487   4.476  51.141  0.00  0.00    +0.000 N 
ATOM     25  H   UNL     1      13.307   5.029  51.935  0.00  0.00    +0.000 HD
ATOM     26  H   UNL     1      12.738   4.109  50.616  0.00  0.00    +0.000 HD
ENDBRANCH  21  24
ENDBRANCH  10  18
BRANCH  13  27
ATOM     27  C   UNL     1      20.956   1.028  51.404  0.00  0.00    +0.000 A 
ATOM     28  C   UNL     1      21.478   1.591  52.573  0.00  0.00    +0.000 A 
ATOM     29  C   UNL     1      21.089   1.128  53.833  0.00  0.00    +0.000 A 
ATOM     30  C   UNL     1      20.099   0.158  53.939  0.00  0.00    +0.000 A 
ATOM     31  C   UNL     1      19.479  -0.325  52.787  0.00  0.00    +0.000 A 
ATOM     32  C   UNL     1      19.908   0.102  51.521  0.00  0.00    +0.000 A 
ENDBRANCH  13  27
TORSDOF 3
ENDMDL
