MODEL 1
REMARK VINA RESULT:    -8.296      0.000      0.000
REMARK INTER + INTRA:         -11.617
REMARK INTER:                 -10.963
REMARK INTRA:                  -0.654
REMARK UNBOUND:                -0.654
REMARK  Name = 
REMARK  8 active torsions:
REMARK  status: ('A' for Active; 'I' for Inactive)
REMARK    1  A    between atoms: C_1  and  O_2
REMARK    2  A    between atoms: O_2  and  C_3
REMARK    3  A    between atoms: C_7  and  N_8
REMARK    4  A    between atoms: N_11  and  C_12
REMARK    5  A    between atoms: C_12  and  C_13
REMARK    6  A    between atoms: C_22  and  N_23
REMARK    7  A    between atoms: C_26  and  O_27
REMARK    8  A    between atoms: O_27  and  C_28
REMARK                            x       y       z     vdW  Elec       q    Type
REMARK                         _______ _______ _______ _____ _____    ______ ____
ROOT
ATOM      1  C   UNL     1      17.101   1.082  49.676  0.00  0.00    +0.000 A 
ATOM      2  C   UNL     1      18.466   1.125  49.992  0.00  0.00    +0.000 A 
ATOM      3  C   UNL     1      18.986   0.528  51.141  0.00  0.00    +0.000 A 
ATOM      4  N   UNL     1      20.301   0.661  51.425  0.00  0.00    +0.000 NA
ATOM      5  C   UNL     1      20.773   0.137  52.575  0.00  0.00    +0.000 A 
ATOM      6  C   UNL     1      19.955  -0.622  53.405  0.00  0.00    +0.000 A 
ATOM      7  C   UNL     1      18.618  -0.832  53.099  0.00  0.00    +0.000 A 
ATOM      8  C   UNL     1      18.090  -0.175  51.976  0.00  0.00    +0.000 A 
ATOM      9  C   UNL     1      16.714  -0.192  51.677  0.00  0.00    +0.000 A 
ATOM     10  C   UNL     1      16.209   0.458  50.551  0.00  0.00    +0.000 A 
ENDROOT
BRANCH   5  11
ATOM     11  N   UNL     1      22.097   0.315  52.985  0.00  0.00    +0.000 N 
ATOM     12  C   UNL     1      22.891  -0.876  53.291  0.00  0.00    +0.000 C 
ATOM     13  C   UNL     1      24.150  -0.417  54.074  0.00  0.00    +0.000 C 
ATOM     14  N   UNL     1      24.981   0.638  53.433  0.00  0.00    +0.000 N 
ATOM     15  C   UNL     1      24.119   1.731  52.941  0.00  0.00    +0.000 C 
ATOM     16  C   UNL     1      22.844   1.300  52.182  0.00  0.00    +0.000 C 
ATOM     17  H   UNL     1      25.604   1.012  54.150  0.00  0.00    +0.000 HD
BRANCH  14  18
ATOM     18  C   UNL     1      25.880   0.124  52.390  0.00  0.00    +0.000 C 
BRANCH  18  19
ATOM     19  C   UNL     1      27.248  -0.207  52.954  0.00  0.00    +0.000 A 
ATOM     20  C   UNL     1      28.092   0.813  53.411  0.00  0.00    +0.000 A 
ATOM     21  C   UNL     1      29.420   0.532  53.733  0.00  0.00    +0.000 A 
ATOM     22  C   UNL     1      29.908  -0.770  53.622  0.00  0.00    +0.000 A 
ATOM     23  C   UNL     1      29.057  -1.804  53.237  0.00  0.00    +0.000 A 
ATOM     24  C   UNL     1      27.728  -1.527  52.918  0.00  0.00    +0.000 A 
ENDBRANCH  18  19
ENDBRANCH  14  18
ENDBRANCH   5  11
BRANCH   7  25
ATOM     25  N   UNL     1      17.816  -1.502  54.049  0.00  0.00    +0.000 N 
ATOM     26  H   UNL     1      17.070  -2.070  53.750  0.00  0.00    +0.000 HD
ATOM     27  H   UNL     1      18.002  -1.400  55.010  0.00  0.00    +0.000 HD
ENDBRANCH   7  25
BRANCH   1  29
ATOM     28  C   UNL     1      16.695   3.110  48.515  0.00  0.00    +0.000 C 
ATOM     29  O   UNL     1      16.559   1.694  48.568  0.00  0.00    +0.000 OA
ENDBRANCH   1  29
BRANCH  10  30
ATOM     30  O   UNL     1      14.871   0.486  50.238  0.00  0.00    +0.000 OA
ATOM     31  C   UNL     1      14.077   1.416  50.973  0.00  0.00    +0.000 C 
ENDBRANCH  10  30
TORSDOF 6
ENDMDL
MODEL 2
REMARK VINA RESULT:    -8.266      3.855      5.060
REMARK INTER + INTRA:         -11.578
REMARK INTER:                 -11.271
REMARK INTRA:                  -0.307
REMARK UNBOUND:                -0.654
REMARK  Name = 
REMARK  8 active torsions:
REMARK  status: ('A' for Active; 'I' for Inactive)
REMARK    1  A    between atoms: C_1  and  O_2
REMARK    2  A    between atoms: O_2  and  C_3
REMARK    3  A    between atoms: C_7  and  N_8
REMARK    4  A    between atoms: N_11  and  C_12
REMARK    5  A    between atoms: C_12  and  C_13
REMARK    6  A    between atoms: C_22  and  N_23
REMARK    7  A    between atoms: C_26  and  O_27
REMARK    8  A    between atoms: O_27  and  C_28
REMARK                            x       y       z     vdW  Elec       q    Type
REMARK                         _______ _______ _______ _____ _____    ______ ____
ROOT
ATOM      1  C   UNL     1      18.492  -0.326  51.804  0.00  0.00    +0.000 A 
ATOM      2  C   UNL     1      19.617   0.385  51.364  0.00  0.00    +0.000 A 
ATOM      3  C   UNL     1      20.823   0.383  52.065  0.00  0.00    +0.000 A 
ATOM      4  N   UNL     1      21.852   1.142  51.624  0.00  0.00    +0.000 NA
ATOM      5  C   UNL     1      22.987   1.183  52.352  0.00  0.00    +0.000 A 
ATOM      6  C   UNL     1      23.147   0.379  53.476  0.00  0.00    +0.000 A 
ATOM      7  C   UNL     1      22.131  -0.463  53.908  0.00  0.00    +0.000 A 
ATOM      8  C   UNL     1      20.900  -0.406  53.234  0.00  0.00    +0.000 A 
ATOM      9  C   UNL     1      19.761  -1.094  53.695  0.00  0.00    +0.000 A 
ATOM     10  C   UNL     1      18.550  -1.034  53.007  0.00  0.00    +0.000 A 
ENDROOT
BRANCH   5  11
ATOM     11  N   UNL     1      24.057   2.016  52.015  0.00  0.00    +0.000 N 
ATOM     12  C   UNL     1      25.342   1.393  51.692  0.00  0.00    +0.000 C 
ATOM     13  C   UNL     1      26.429   2.501  51.740  0.00  0.00    +0.000 C 
ATOM     14  N   UNL     1      26.185   3.704  50.899  0.00  0.00    +0.000 N 
ATOM     15  C   UNL     1      24.801   4.181  51.090  0.00  0.00    +0.000 C 
ATOM     16  C   UNL     1      23.702   3.095  51.075  0.00  0.00    +0.000 C 
ATOM     17  H   UNL     1      26.826   4.431  51.217  0.00  0.00    +0.000 HD
BRANCH  14  18
ATOM     18  C   UNL     1      26.518   3.508  49.481  0.00  0.00    +0.000 C 
BRANCH  18  19
ATOM     19  C   UNL     1      27.018   4.793  48.849  0.00  0.00    +0.000 A 
ATOM     20  C   UNL     1      28.356   4.915  48.454  0.00  0.00    +0.000 A 
ATOM     21  C   UNL     1      28.862   6.157  48.069  0.00  0.00    +0.000 A 
ATOM     22  C   UNL     1      28.033   7.278  48.055  0.00  0.00    +0.000 A 
ATOM     23  C   UNL     1      26.683   7.153  48.378  0.00  0.00    +0.000 A 
ATOM     24  C   UNL     1      26.174   5.912  48.759  0.00  0.00    +0.000 A 
ENDBRANCH  18  19
ENDBRANCH  14  18
ENDBRANCH   5  11
BRANCH   7  25
ATOM     25  N   UNL     1      22.313  -1.153  55.126  0.00  0.00    +0.000 N 
ATOM     26  H   UNL     1      21.548  -1.297  55.728  0.00  0.00    +0.000 HD
ATOM     27  H   UNL     1      23.204  -1.488  55.374  0.00  0.00    +0.000 HD
ENDBRANCH   7  25
BRANCH   1  29
ATOM     28  C   UNL     1      16.570   0.923  51.193  0.00  0.00    +0.000 C 
ATOM     29  O   UNL     1      17.281  -0.310  51.150  0.00  0.00    +0.000 OA
ENDBRANCH   1  29
BRANCH  10  30
ATOM     30  O   UNL     1      17.411  -1.671  53.437  0.00  0.00    +0.000 OA
ATOM     31  C   UNL     1      17.531  -3.071  53.684  0.00  0.00    +0.000 C 
ENDBRANCH  10  30
TORSDOF 6
ENDMDL
MODEL 3
REMARK VINA RESULT:    -8.123      1.439      2.692
REMARK INTER + INTRA:         -11.389
REMARK INTER:                 -10.748
REMARK INTRA:                  -0.640
REMARK UNBOUND:                -0.654
REMARK  Name = 
REMARK  8 active torsions:
REMARK  status: ('A' for Active; 'I' for Inactive)
REMARK    1  A    between atoms: C_1  and  O_2
REMARK    2  A    between atoms: O_2  and  C_3
REMARK    3  A    between atoms: C_7  and  N_8
REMARK    4  A    between atoms: N_11  and  C_12
REMARK    5  A    between atoms: C_12  and  C_13
REMARK    6  A    between atoms: C_22  and  N_23
REMARK    7  A    between atoms: C_26  and  O_27
REMARK    8  A    between atoms: O_27  and  C_28
REMARK                            x       y       z     vdW  Elec       q    Type
REMARK                         _______ _______ _______ _____ _____    ______ ____
ROOT
ATOM      1  C   UNL     1      16.331  -1.222  52.072  0.00  0.00    +0.000 A 
ATOM      2  C   UNL     1      17.566  -1.082  52.722  0.00  0.00    +0.000 A 
ATOM      3  C   UNL     1      18.628  -0.373  52.162  0.00  0.00    +0.000 A 
ATOM      4  N   UNL     1      19.816  -0.329  52.809  0.00  0.00    +0.000 NA
ATOM      5  C   UNL     1      20.853   0.301  52.220  0.00  0.00    +0.000 A 
ATOM      6  C   UNL     1      20.685   0.991  51.024  0.00  0.00    +0.000 A 
ATOM      7  C   UNL     1      19.458   1.022  50.377  0.00  0.00    +0.000 A 
ATOM      8  C   UNL     1      18.414   0.253  50.914  0.00  0.00    +0.000 A 
ATOM      9  C   UNL     1      17.185   0.086  50.246  0.00  0.00    +0.000 A 
ATOM     10  C   UNL     1      16.155  -0.672  50.800  0.00  0.00    +0.000 A 
ENDROOT
BRANCH   5  11
ATOM     11  N   UNL     1      22.134   0.307  52.778  0.00  0.00    +0.000 N 
ATOM     12  C   UNL     1      22.689  -0.964  53.247  0.00  0.00    +0.000 C 
ATOM     13  C   UNL     1      23.908  -0.642  54.153  0.00  0.00    +0.000 C 
ATOM     14  N   UNL     1      24.963   0.223  53.559  0.00  0.00    +0.000 N 
ATOM     15  C   UNL     1      24.347   1.394  52.904  0.00  0.00    +0.000 C 
ATOM     16  C   UNL     1      23.114   1.104  52.019  0.00  0.00    +0.000 C 
ATOM     17  H   UNL     1      25.552   0.551  54.325  0.00  0.00    +0.000 HD
BRANCH  14  18
ATOM     18  C   UNL     1      25.880  -0.498  52.666  0.00  0.00    +0.000 C 
BRANCH  18  19
ATOM     19  C   UNL     1      27.288  -0.529  53.229  0.00  0.00    +0.000 A 
ATOM     20  C   UNL     1      27.833   0.608  53.840  0.00  0.00    +0.000 A 
ATOM     21  C   UNL     1      29.188   0.646  54.168  0.00  0.00    +0.000 A 
ATOM     22  C   UNL     1      30.004  -0.455  53.907  0.00  0.00    +0.000 A 
ATOM     23  C   UNL     1      29.456  -1.617  53.365  0.00  0.00    +0.000 A 
ATOM     24  C   UNL     1      28.102  -1.659  53.041  0.00  0.00    +0.000 A 
ENDBRANCH  18  19
ENDBRANCH  14  18
ENDBRANCH   5  11
BRANCH   7  25
ATOM     25  N   UNL     1      19.392   1.631  49.105  0.00  0.00    +0.000 N 
ATOM     26  H   UNL     1      18.988   2.523  49.008  0.00  0.00    +0.000 HD
ATOM     27  H   UNL     1      19.749   1.165  48.316  0.00  0.00    +0.000 HD
ENDBRANCH   7  25
BRANCH   1  29
ATOM     28  C   UNL     1      15.477  -3.355  52.660  0.00  0.00    +0.000 C 
ATOM     29  O   UNL     1      15.280  -1.947  52.587  0.00  0.00    +0.000 OA
ENDBRANCH   1  29
BRANCH  10  30
ATOM     30  O   UNL     1      14.952  -0.880  50.169  0.00  0.00    +0.000 OA
ATOM     31  C   UNL     1      14.957  -1.840  49.114  0.00  0.00    +0.000 C 
ENDBRANCH  10  30
TORSDOF 6
ENDMDL
MODEL 4
REMARK VINA RESULT:    -7.860      6.888     10.552
REMARK INTER + INTRA:         -11.041
REMARK INTER:                 -10.389
REMARK INTRA:                  -0.652
REMARK UNBOUND:                -0.654
REMARK  Name = 
REMARK  8 active torsions:
REMARK  status: ('A' for Active; 'I' for Inactive)
REMARK    1  A    between atoms: C_1  and  O_2
REMARK    2  A    between atoms: O_2  and  C_3
REMARK    3  A    between atoms: C_7  and  N_8
REMARK    4  A    between atoms: N_11  and  C_12
REMARK    5  A    between atoms: C_12  and  C_13
REMARK    6  A    between atoms: C_22  and  N_23
REMARK    7  A    between atoms: C_26  and  O_27
REMARK    8  A    between atoms: O_27  and  C_28
REMARK                            x       y       z     vdW  Elec       q    Type
REMARK                         _______ _______ _______ _____ _____    ______ ____
ROOT
ATOM      1  C   UNL     1      29.421   6.787  47.772  0.00  0.00    +0.000 A 
ATOM      2  C   UNL     1      28.414   5.859  48.075  0.00  0.00    +0.000 A 
ATOM      3  C   UNL     1      27.287   6.199  48.822  0.00  0.00    +0.000 A 
ATOM      4  N   UNL     1      26.383   5.244  49.138  0.00  0.00    +0.000 NA
ATOM      5  C   UNL     1      25.334   5.575  49.920  0.00  0.00    +0.000 A 
ATOM      6  C   UNL     1      25.118   6.893  50.306  0.00  0.00    +0.000 A 
ATOM      7  C   UNL     1      25.993   7.905  49.935  0.00  0.00    +0.000 A 
ATOM      8  C   UNL     1      27.157   7.543  49.239  0.00  0.00    +0.000 A 
ATOM      9  C   UNL     1      28.183   8.467  48.963  0.00  0.00    +0.000 A 
ATOM     10  C   UNL     1      29.328   8.092  48.260  0.00  0.00    +0.000 A 
ENDROOT
BRANCH   5  11
ATOM     11  N   UNL     1      24.412   4.626  50.368  0.00  0.00    +0.000 N 
ATOM     12  C   UNL     1      24.737   3.210  50.191  0.00  0.00    +0.000 C 
ATOM     13  C   UNL     1      23.432   2.395  50.397  0.00  0.00    +0.000 C 
ATOM     14  N   UNL     1      22.700   2.628  51.672  0.00  0.00    +0.000 N 
ATOM     15  C   UNL     1      22.578   4.077  51.927  0.00  0.00    +0.000 C 
ATOM     16  C   UNL     1      23.857   4.915  51.702  0.00  0.00    +0.000 C 
ATOM     17  H   UNL     1      21.765   2.237  51.560  0.00  0.00    +0.000 HD
BRANCH  14  18
ATOM     18  C   UNL     1      23.272   1.906  52.817  0.00  0.00    +0.000 C 
BRANCH  18  19
ATOM     19  C   UNL     1      22.430   0.699  53.184  0.00  0.00    +0.000 A 
ATOM     20  C   UNL     1      21.040   0.724  53.009  0.00  0.00    +0.000 A 
ATOM     21  C   UNL     1      20.250  -0.298  53.537  0.00  0.00    +0.000 A 
ATOM     22  C   UNL     1      20.840  -1.359  54.222  0.00  0.00    +0.000 A 
ATOM     23  C   UNL     1      22.227  -1.429  54.339  0.00  0.00    +0.000 A 
ATOM     24  C   UNL     1      23.020  -0.413  53.809  0.00  0.00    +0.000 A 
ENDBRANCH  18  19
ENDBRANCH  14  18
ENDBRANCH   5  11
BRANCH   7  25
ATOM     25  N   UNL     1      25.782   9.195  50.469  0.00  0.00    +0.000 N 
ATOM     26  H   UNL     1      24.890   9.607  50.422  0.00  0.00    +0.000 HD
ATOM     27  H   UNL     1      26.528   9.683  50.886  0.00  0.00    +0.000 HD
ENDBRANCH   7  25
BRANCH   1  29
ATOM     28  C   UNL     1      31.308   5.364  47.570  0.00  0.00    +0.000 C 
ATOM     29  O   UNL     1      30.561   6.467  47.068  0.00  0.00    +0.000 OA
ENDBRANCH   1  29
BRANCH  10  30
ATOM     30  O   UNL     1      30.361   8.957  47.993  0.00  0.00    +0.000 OA
ATOM     31  C   UNL     1      30.982   9.559  49.128  0.00  0.00    +0.000 C 
ENDBRANCH  10  30
TORSDOF 6
ENDMDL
MODEL 5
REMARK VINA RESULT:    -7.554      1.934      3.108
REMARK INTER + INTRA:         -10.638
REMARK INTER:                 -10.094
REMARK INTRA:                  -0.544
REMARK UNBOUND:                -0.654
REMARK  Name = 
REMARK  8 active torsions:
REMARK  status: ('A' for Active; 'I' for Inactive)
REMARK    1  A    between atoms: C_1  and  O_2
REMARK    2  A    between atoms: O_2  and  C_3
REMARK    3  A    between atoms: C_7  and  N_8
REMARK    4  A    between atoms: N_11  and  C_12
REMARK    5  A    between atoms: C_12  and  C_13
REMARK    6  A    between atoms: C_22  and  N_23
REMARK    7  A    between atoms: C_26  and  O_27
REMARK    8  A    between atoms: O_27  and  C_28
REMARK                            x       y       z     vdW  Elec       q    Type
REMARK                         _______ _______ _______ _____ _____    ______ ____
ROOT
ATOM      1  C   UNL     1      17.673  -0.662  52.320  0.00  0.00    +0.000 A 
ATOM      2  C   UNL     1      18.995  -0.306  52.617  0.00  0.00    +0.000 A 
ATOM      3  C   UNL     1      19.547   0.913  52.224  0.00  0.00    +0.000 A 
ATOM      4  N   UNL     1      20.849   1.172  52.484  0.00  0.00    +0.000 NA
ATOM      5  C   UNL     1      21.384   2.326  52.034  0.00  0.00    +0.000 A 
ATOM      6  C   UNL     1      20.593   3.287  51.413  0.00  0.00    +0.000 A 
ATOM      7  C   UNL     1      19.239   3.076  51.198  0.00  0.00    +0.000 A 
ATOM      8  C   UNL     1      18.708   1.822  51.540  0.00  0.00    +0.000 A 
ATOM      9  C   UNL     1      17.390   1.451  51.212  0.00  0.00    +0.000 A 
ATOM     10  C   UNL     1      16.876   0.205  51.568  0.00  0.00    +0.000 A 
ENDROOT
BRANCH   5  11
ATOM     11  N   UNL     1      22.741   2.622  52.179  0.00  0.00    +0.000 N 
ATOM     12  C   UNL     1      23.562   1.721  52.990  0.00  0.00    +0.000 C 
ATOM     13  C   UNL     1      24.892   2.454  53.312  0.00  0.00    +0.000 C 
ATOM     14  N   UNL     1      25.656   2.982  52.149  0.00  0.00    +0.000 N 
ATOM     15  C   UNL     1      24.749   3.706  51.236  0.00  0.00    +0.000 C 
ATOM     16  C   UNL     1      23.406   3.011  50.921  0.00  0.00    +0.000 C 
ATOM     17  H   UNL     1      26.346   3.639  52.512  0.00  0.00    +0.000 HD
BRANCH  14  18
ATOM     18  C   UNL     1      26.447   1.957  51.452  0.00  0.00    +0.000 C 
BRANCH  18  19
ATOM     19  C   UNL     1      27.276   1.144  52.427  0.00  0.00    +0.000 A 
ATOM     20  C   UNL     1      28.257   1.764  53.213  0.00  0.00    +0.000 A 
ATOM     21  C   UNL     1      29.155   0.991  53.950  0.00  0.00    +0.000 A 
ATOM     22  C   UNL     1      29.068  -0.400  53.925  0.00  0.00    +0.000 A 
ATOM     23  C   UNL     1      28.051  -1.024  53.204  0.00  0.00    +0.000 A 
ATOM     24  C   UNL     1      27.150  -0.255  52.470  0.00  0.00    +0.000 A 
ENDBRANCH  18  19
ENDBRANCH  14  18
ENDBRANCH   5  11
BRANCH   7  25
ATOM     25  N   UNL     1      18.526   4.037  50.449  0.00  0.00    +0.000 N 
ATOM     26  H   UNL     1      18.142   3.794  49.576  0.00  0.00    +0.000 HD
ATOM     27  H   UNL     1      18.415   4.950  50.798  0.00  0.00    +0.000 HD
ENDBRANCH   7  25
BRANCH   1  29
ATOM     28  C   UNL     1      17.840  -2.635  53.627  0.00  0.00    +0.000 C 
ATOM     29  O   UNL     1      17.117  -1.874  52.665  0.00  0.00    +0.000 OA
ENDBRANCH   1  29
BRANCH  10  30
ATOM     30  O   UNL     1      15.604  -0.203  51.245  0.00  0.00    +0.000 OA
ATOM     31  C   UNL     1      14.540   0.503  51.881  0.00  0.00    +0.000 C 
ENDBRANCH  10  30
TORSDOF 6
ENDMDL
MODEL 6
REMARK VINA RESULT:    -7.395      3.578      9.780
REMARK INTER + INTRA:         -10.427
REMARK INTER:                  -9.852
REMARK INTRA:                  -0.574
REMARK UNBOUND:                -0.654
REMARK  Name = 
REMARK  8 active torsions:
REMARK  status: ('A' for Active; 'I' for Inactive)
REMARK    1  A    between atoms: C_1  and  O_2
REMARK    2  A    between atoms: O_2  and  C_3
REMARK    3  A    between atoms: C_7  and  N_8
REMARK    4  A    between atoms: N_11  and  C_12
REMARK    5  A    between atoms: C_12  and  C_13
REMARK    6  A    between atoms: C_22  and  N_23
REMARK    7  A    between atoms: C_26  and  O_27
REMARK    8  A    between atoms: O_27  and  C_28
REMARK                            x       y       z     vdW  Elec       q    Type
REMARK                         _______ _______ _______ _____ _____    ______ ____
ROOT
ATOM      1  C   UNL     1      25.882   1.089  52.601  0.00  0.00    +0.000 A 
ATOM      2  C   UNL     1      24.545   1.131  52.180  0.00  0.00    +0.000 A 
ATOM      3  C   UNL     1      23.536   0.418  52.825  0.00  0.00    +0.000 A 
ATOM      4  N   UNL     1      22.277   0.447  52.331  0.00  0.00    +0.000 NA
ATOM      5  C   UNL     1      21.328  -0.304  52.926  0.00  0.00    +0.000 A 
ATOM      6  C   UNL     1      21.602  -1.011  54.092  0.00  0.00    +0.000 A 
ATOM      7  C   UNL     1      22.868  -1.000  54.660  0.00  0.00    +0.000 A 
ATOM      8  C   UNL     1      23.891  -0.333  53.968  0.00  0.00    +0.000 A 
ATOM      9  C   UNL     1      25.238  -0.402  54.373  0.00  0.00    +0.000 A 
ATOM     10  C   UNL     1      26.240   0.277  53.680  0.00  0.00    +0.000 A 
ENDROOT
BRANCH   5  11
ATOM     11  N   UNL     1      20.030  -0.401  52.418  0.00  0.00    +0.000 N 
ATOM     12  C   UNL     1      18.948  -0.738  53.346  0.00  0.00    +0.000 C 
ATOM     13  C   UNL     1      17.716  -1.161  52.502  0.00  0.00    +0.000 C 
ATOM     14  N   UNL     1      17.260  -0.196  51.465  0.00  0.00    +0.000 N 
ATOM     15  C   UNL     1      18.414   0.289  50.683  0.00  0.00    +0.000 C 
ATOM     16  C   UNL     1      19.664   0.691  51.498  0.00  0.00    +0.000 C 
ATOM     17  H   UNL     1      16.630  -0.698  50.840  0.00  0.00    +0.000 HD
BRANCH  14  18
ATOM     18  C   UNL     1      16.449   0.905  52.005  0.00  0.00    +0.000 C 
BRANCH  18  19
ATOM     19  C   UNL     1      14.993   0.503  52.139  0.00  0.00    +0.000 A 
ATOM     20  C   UNL     1      14.241   0.920  53.244  0.00  0.00    +0.000 A 
ATOM     21  C   UNL     1      12.973   0.383  53.472  0.00  0.00    +0.000 A 
ATOM     22  C   UNL     1      12.441  -0.556  52.590  0.00  0.00    +0.000 A 
ATOM     23  C   UNL     1      13.151  -0.924  51.449  0.00  0.00    +0.000 A 
ATOM     24  C   UNL     1      14.416  -0.386  51.216  0.00  0.00    +0.000 A 
ENDBRANCH  18  19
ENDBRANCH  14  18
ENDBRANCH   5  11
BRANCH   7  25
ATOM     25  N   UNL     1      23.107  -1.842  55.768  0.00  0.00    +0.000 N 
ATOM     26  H   UNL     1      23.935  -2.372  55.813  0.00  0.00    +0.000 HD
ATOM     27  H   UNL     1      22.446  -1.900  56.494  0.00  0.00    +0.000 HD
ENDBRANCH   7  25
BRANCH   1  29
ATOM     28  C   UNL     1      26.499   2.703  50.977  0.00  0.00    +0.000 C 
ATOM     29  O   UNL     1      26.902   1.754  51.959  0.00  0.00    +0.000 OA
ENDBRANCH   1  29
BRANCH  10  30
ATOM     30  O   UNL     1      27.568   0.214  54.028  0.00  0.00    +0.000 OA
ATOM     31  C   UNL     1      28.301  -0.889  53.500  0.00  0.00    +0.000 C 
ENDBRANCH  10  30
TORSDOF 6
ENDMDL
MODEL 7
REMARK VINA RESULT:    -7.319      3.504      9.850
REMARK INTER + INTRA:         -10.326
REMARK INTER:                  -9.736
REMARK INTRA:                  -0.590
REMARK UNBOUND:                -0.654
REMARK  Name = 
REMARK  8 active torsions:
REMARK  status: ('A' for Active; 'I' for Inactive)
REMARK    1  A    between atoms: C_1  and  O_2
REMARK    2  A    between atoms: O_2  and  C_3
REMARK    3  A    between atoms: C_7  and  N_8
REMARK    4  A    between atoms: N_11  and  C_12
REMARK    5  A    between atoms: C_12  and  C_13
REMARK    6  A    between atoms: C_22  and  N_23
REMARK    7  A    between atoms: C_26  and  O_27
REMARK    8  A    between atoms: O_27  and  C_28
REMARK                            x       y       z     vdW  Elec       q    Type
REMARK                         _______ _______ _______ _____ _____    ______ ____
ROOT
ATOM      1  C   UNL     1      25.351   0.853  52.214  0.00  0.00    +0.000 A 
ATOM      2  C   UNL     1      24.075   1.223  51.767  0.00  0.00    +0.000 A 
ATOM      3  C   UNL     1      22.908   0.720  52.341  0.00  0.00    +0.000 A 
ATOM      4  N   UNL     1      21.707   1.064  51.822  0.00  0.00    +0.000 NA
ATOM      5  C   UNL     1      20.592   0.513  52.345  0.00  0.00    +0.000 A 
ATOM      6  C   UNL     1      20.657  -0.307  53.467  0.00  0.00    +0.000 A 
ATOM      7  C   UNL     1      21.871  -0.617  54.061  0.00  0.00    +0.000 A 
ATOM      8  C   UNL     1      23.043  -0.159  53.439  0.00  0.00    +0.000 A 
ATOM      9  C   UNL     1      24.324  -0.557  53.867  0.00  0.00    +0.000 A 
ATOM     10  C   UNL     1      25.478  -0.082  53.243  0.00  0.00    +0.000 A 
ENDROOT
BRANCH   5  11
ATOM     11  N   UNL     1      19.325   0.744  51.803  0.00  0.00    +0.000 N 
ATOM     12  C   UNL     1      18.332  -0.329  51.885  0.00  0.00    +0.000 C 
ATOM     13  C   UNL     1      17.183   0.012  50.900  0.00  0.00    +0.000 C 
ATOM     14  N   UNL     1      16.549   1.349  51.059  0.00  0.00    +0.000 N 
ATOM     15  C   UNL     1      17.589   2.389  51.190  0.00  0.00    +0.000 C 
ATOM     16  C   UNL     1      18.759   2.062  52.144  0.00  0.00    +0.000 C 
ATOM     17  H   UNL     1      16.010   1.532  50.213  0.00  0.00    +0.000 HD
BRANCH  14  18
ATOM     18  C   UNL     1      15.564   1.405  52.149  0.00  0.00    +0.000 C 
BRANCH  18  19
ATOM     19  C   UNL     1      14.624   2.583  51.981  0.00  0.00    +0.000 A 
ATOM     20  C   UNL     1      14.292   3.387  53.079  0.00  0.00    +0.000 A 
ATOM     21  C   UNL     1      13.273   4.335  52.971  0.00  0.00    +0.000 A 
ATOM     22  C   UNL     1      12.595   4.500  51.764  0.00  0.00    +0.000 A 
ATOM     23  C   UNL     1      12.966   3.755  50.646  0.00  0.00    +0.000 A 
ATOM     24  C   UNL     1      13.986   2.811  50.750  0.00  0.00    +0.000 A 
ENDBRANCH  18  19
ENDBRANCH  14  18
ENDBRANCH   5  11
BRANCH   7  25
ATOM     25  N   UNL     1      21.874  -1.556  55.116  0.00  0.00    +0.000 N 
ATOM     26  H   UNL     1      21.039  -1.761  55.594  0.00  0.00    +0.000 HD
ATOM     27  H   UNL     1      22.712  -2.005  55.374  0.00  0.00    +0.000 HD
ENDBRANCH   7  25
BRANCH   1  29
ATOM     28  C   UNL     1      26.465   2.618  51.086  0.00  0.00    +0.000 C 
ATOM     29  O   UNL     1      26.518   1.307  51.640  0.00  0.00    +0.000 OA
ENDBRANCH   1  29
BRANCH  10  30
ATOM     30  O   UNL     1      26.744  -0.466  53.616  0.00  0.00    +0.000 OA
ATOM     31  C   UNL     1      27.280   0.182  54.768  0.00  0.00    +0.000 C 
ENDBRANCH  10  30
TORSDOF 6
ENDMDL
MODEL 8
REMARK VINA RESULT:    -7.269      6.622      9.849
REMARK INTER + INTRA:         -10.261
REMARK INTER:                  -9.715
REMARK INTRA:                  -0.545
REMARK UNBOUND:                -0.654
REMARK  Name = 
REMARK  8 active torsions:
REMARK  status: ('A' for Active; 'I' for Inactive)
REMARK    1  A    between atoms: C_1  and  O_2
REMARK    2  A    between atoms: O_2  and  C_3
REMARK    3  A    between atoms: C_7  and  N_8
REMARK    4  A    between atoms: N_11  and  C_12
REMARK    5  A    between atoms: C_12  and  C_13
REMARK    6  A    between atoms: C_22  and  N_23
REMARK    7  A    between atoms: C_26  and  O_27
REMARK    8  A    between atoms: O_27  and  C_28
REMARK                            x       y       z     vdW  Elec       q    Type
REMARK                         _______ _______ _______ _____ _____    ______ ____
ROOT
ATOM      1  C   UNL     1      28.428   7.528  47.827  0.00  0.00    +0.000 A 
ATOM      2  C   UNL     1      28.078   6.280  48.363  0.00  0.00    +0.000 A 
ATOM      3  C   UNL     1      26.754   5.925  48.624  0.00  0.00    +0.000 A 
ATOM      4  N   UNL     1      26.485   4.733  49.203  0.00  0.00    +0.000 NA
ATOM      5  C   UNL     1      25.206   4.435  49.512  0.00  0.00    +0.000 A 
ATOM      6  C   UNL     1      24.165   5.281  49.146  0.00  0.00    +0.000 A 
ATOM      7  C   UNL     1      24.410   6.478  48.486  0.00  0.00    +0.000 A 
ATOM      8  C   UNL     1      25.747   6.856  48.286  0.00  0.00    +0.000 A 
ATOM      9  C   UNL     1      26.100   8.121  47.778  0.00  0.00    +0.000 A 
ATOM     10  C   UNL     1      27.434   8.476  47.576  0.00  0.00    +0.000 A 
ENDROOT
BRANCH   5  11
ATOM     11  N   UNL     1      24.860   3.267  50.197  0.00  0.00    +0.000 N 
ATOM     12  C   UNL     1      25.606   2.931  51.411  0.00  0.00    +0.000 C 
ATOM     13  C   UNL     1      25.312   1.445  51.750  0.00  0.00    +0.000 C 
ATOM     14  N   UNL     1      23.878   1.065  51.873  0.00  0.00    +0.000 N 
ATOM     15  C   UNL     1      23.112   1.607  50.734  0.00  0.00    +0.000 C 
ATOM     16  C   UNL     1      23.407   3.077  50.357  0.00  0.00    +0.000 C 
ATOM     17  H   UNL     1      23.831   0.046  51.842  0.00  0.00    +0.000 HD
BRANCH  14  18
ATOM     18  C   UNL     1      23.284   1.426  53.168  0.00  0.00    +0.000 C 
BRANCH  18  19
ATOM     19  C   UNL     1      22.222   0.427  53.585  0.00  0.00    +0.000 A 
ATOM     20  C   UNL     1      22.582  -0.766  54.225  0.00  0.00    +0.000 A 
ATOM     21  C   UNL     1      21.633  -1.770  54.419  0.00  0.00    +0.000 A 
ATOM     22  C   UNL     1      20.318  -1.585  53.994  0.00  0.00    +0.000 A 
ATOM     23  C   UNL     1      19.934  -0.374  53.421  0.00  0.00    +0.000 A 
ATOM     24  C   UNL     1      20.878   0.634  53.230  0.00  0.00    +0.000 A 
ENDBRANCH  18  19
ENDBRANCH  14  18
ENDBRANCH   5  11
BRANCH   7  25
ATOM     25  N   UNL     1      23.320   7.346  48.260  0.00  0.00    +0.000 N 
ATOM     26  H   UNL     1      22.814   7.292  47.418  0.00  0.00    +0.000 HD
ATOM     27  H   UNL     1      23.067   8.008  48.944  0.00  0.00    +0.000 HD
ENDBRANCH   7  25
BRANCH   1  29
ATOM     28  C   UNL     1      30.537   8.092  48.754  0.00  0.00    +0.000 C 
ATOM     29  O   UNL     1      29.729   7.916  47.596  0.00  0.00    +0.000 OA
ENDBRANCH   1  29
BRANCH  10  30
ATOM     30  O   UNL     1      27.819   9.708  47.107  0.00  0.00    +0.000 OA
ATOM     31  C   UNL     1      27.157  10.832  47.683  0.00  0.00    +0.000 C 
ENDBRANCH  10  30
TORSDOF 6
ENDMDL
MODEL 9
REMARK VINA RESULT:    -7.256      3.632      5.342
REMARK INTER + INTRA:         -10.243
REMARK INTER:                  -9.732
REMARK INTRA:                  -0.512
REMARK UNBOUND:                -0.654
REMARK  Name = 
REMARK  8 active torsions:
REMARK  status: ('A' for Active; 'I' for Inactive)
REMARK    1  A    between atoms: C_1  and  O_2
REMARK    2  A    between atoms: O_2  and  C_3
REMARK    3  A    between atoms: C_7  and  N_8
REMARK    4  A    between atoms: N_11  and  C_12
REMARK    5  A    between atoms: C_12  and  C_13
REMARK    6  A    between atoms: C_22  and  N_23
REMARK    7  A    between atoms: C_26  and  O_27
REMARK    8  A    between atoms: O_27  and  C_28
REMARK                            x       y       z     vdW  Elec       q    Type
REMARK                         _______ _______ _______ _____ _____    ______ ____
ROOT
ATOM      1  C   UNL     1      19.766   5.825  49.691  0.00  0.00    +0.000 A 
ATOM      2  C   UNL     1      20.310   4.606  50.120  0.00  0.00    +0.000 A 
ATOM      3  C   UNL     1      21.532   4.529  50.787  0.00  0.00    +0.000 A 
ATOM      4  N   UNL     1      22.036   3.318  51.118  0.00  0.00    +0.000 NA
ATOM      5  C   UNL     1      23.252   3.257  51.699  0.00  0.00    +0.000 A 
ATOM      6  C   UNL     1      23.933   4.416  52.057  0.00  0.00    +0.000 A 
ATOM      7  C   UNL     1      23.405   5.672  51.792  0.00  0.00    +0.000 A 
ATOM      8  C   UNL     1      22.206   5.739  51.065  0.00  0.00    +0.000 A 
ATOM      9  C   UNL     1      21.676   6.960  50.605  0.00  0.00    +0.000 A 
ATOM     10  C   UNL     1      20.478   7.009  49.893  0.00  0.00    +0.000 A 
ENDROOT
BRANCH   5  11
ATOM     11  N   UNL     1      23.881   2.042  51.983  0.00  0.00    +0.000 N 
ATOM     12  C   UNL     1      25.335   1.966  51.836  0.00  0.00    +0.000 C 
ATOM     13  C   UNL     1      25.731   0.465  51.823  0.00  0.00    +0.000 C 
ATOM     14  N   UNL     1      25.260  -0.354  52.973  0.00  0.00    +0.000 N 
ATOM     15  C   UNL     1      23.830  -0.088  53.230  0.00  0.00    +0.000 C 
ATOM     16  C   UNL     1      23.405   1.397  53.220  0.00  0.00    +0.000 C 
ATOM     17  H   UNL     1      25.367  -1.334  52.711  0.00  0.00    +0.000 HD
BRANCH  14  18
ATOM     18  C   UNL     1      26.082  -0.199  54.181  0.00  0.00    +0.000 C 
BRANCH  18  19
ATOM     19  C   UNL     1      27.559  -0.319  53.861  0.00  0.00    +0.000 A 
ATOM     20  C   UNL     1      28.085  -1.524  53.377  0.00  0.00    +0.000 A 
ATOM     21  C   UNL     1      29.466  -1.698  53.282  0.00  0.00    +0.000 A 
ATOM     22  C   UNL     1      30.330  -0.666  53.649  0.00  0.00    +0.000 A 
ATOM     23  C   UNL     1      29.815   0.561  54.064  0.00  0.00    +0.000 A 
ATOM     24  C   UNL     1      28.436   0.739  54.156  0.00  0.00    +0.000 A 
ENDBRANCH  18  19
ENDBRANCH  14  18
ENDBRANCH   5  11
BRANCH   7  25
ATOM     25  N   UNL     1      24.206   6.801  52.065  0.00  0.00    +0.000 N 
ATOM     26  H   UNL     1      24.232   7.552  51.429  0.00  0.00    +0.000 HD
ATOM     27  H   UNL     1      24.741   6.838  52.891  0.00  0.00    +0.000 HD
ENDBRANCH   7  25
BRANCH   1  29
ATOM     28  C   UNL     1      17.684   4.827  49.145  0.00  0.00    +0.000 C 
ATOM     29  O   UNL     1      18.579   5.924  48.999  0.00  0.00    +0.000 OA
ENDBRANCH   1  29
BRANCH  10  30
ATOM     30  O   UNL     1      19.942   8.177  49.406  0.00  0.00    +0.000 OA
ATOM     31  C   UNL     1      20.869   9.228  49.142  0.00  0.00    +0.000 C 
ENDBRANCH  10  30
TORSDOF 6
ENDMDL
