MODEL 1
REMARK VINA RESULT:    -9.204      0.000      0.000
REMARK INTER + INTRA:         -11.476
REMARK INTER:                 -10.819
REMARK INTRA:                  -0.658
REMARK UNBOUND:                -0.658
REMARK  Name = 
REMARK  5 active torsions:
REMARK  status: ('A' for Active; 'I' for Inactive)
REMARK    1  A    between atoms: C_1  and  N_2
REMARK    2  A    between atoms: C_5  and  C_6
REMARK    3  A    between atoms: C_7  and  O_8
REMARK    4  A    between atoms: C_10  and  O_11
REMARK    5  A    between atoms: C_16  and  C_17
REMARK                            x       y       z     vdW  Elec       q    Type
REMARK                         _______ _______ _______ _____ _____    ______ ____
ROOT
ATOM      1  C   UNL     1      24.230  -0.323  54.088  0.00  0.00    +0.000 A 
ATOM      2  C   UNL     1      23.504  -1.099  55.004  0.00  0.00    +0.000 A 
ATOM      3  C   UNL     1      22.110  -1.062  55.038  0.00  0.00    +0.000 A 
ATOM      4  C   UNL     1      21.421  -0.241  54.143  0.00  0.00    +0.000 A 
ATOM      5  C   UNL     1      22.122   0.548  53.219  0.00  0.00    +0.000 A 
ATOM      6  C   UNL     1      21.430   1.434  52.254  0.00  0.00    +0.000 A 
ATOM      7  O   UNL     1      20.216   1.511  52.119  0.00  0.00    +0.000 OA
ATOM      8  C   UNL     1      22.286   2.273  51.398  0.00  0.00    +0.000 A 
ATOM      9  C   UNL     1      23.618   2.178  51.497  0.00  0.00    +0.000 A 
ATOM     10  O   UNL     1      24.267   1.289  52.336  0.00  0.00    +0.000 OA
ATOM     11  C   UNL     1      23.523   0.512  53.199  0.00  0.00    +0.000 A 
ENDROOT
BRANCH   1  16
ATOM     12  C   UNL     1      29.483   0.572  53.236  0.00  0.00    +0.000 C 
ATOM     13  N   UNL     1      28.632  -0.386  53.921  0.00  0.00    +0.000 N 
ATOM     14  C   UNL     1      27.937   0.165  55.077  0.00  0.00    +0.000 C 
ATOM     15  C   UNL     1      26.438   0.189  55.033  0.00  0.00    +0.000 C 
ATOM     16  C   UNL     1      25.705  -0.381  54.064  0.00  0.00    +0.000 C 
ATOM     17  C   UNL     1      26.351  -1.096  52.919  0.00  0.00    +0.000 C 
ATOM     18  C   UNL     1      27.875  -1.278  53.047  0.00  0.00    +0.000 C 
ATOM     19  H   UNL     1      29.273  -1.052  54.352  0.00  0.00    +0.000 HD
ENDBRANCH   1  16
BRANCH   9  20
ATOM     20  C   UNL     1      24.517   3.021  50.678  0.00  0.00    +0.000 A 
ATOM     21  C   UNL     1      24.036   4.110  49.940  0.00  0.00    +0.000 A 
ATOM     22  C   UNL     1      24.929   4.871  49.203  0.00  0.00    +0.000 A 
ATOM     23  N   UNL     1      26.255   4.633  49.155  0.00  0.00    +0.000 NA
ATOM     24  C   UNL     1      26.707   3.591  49.883  0.00  0.00    +0.000 A 
ATOM     25  C   UNL     1      25.893   2.771  50.649  0.00  0.00    +0.000 A 
ENDBRANCH   9  20
BRANCH   2  26
ATOM     26  O   UNL     1      24.175  -1.901  55.890  0.00  0.00    +0.000 OA
ATOM     27  H   UNL     1      24.390  -2.782  55.655  0.00  0.00    +0.000 HD
ENDBRANCH   2  26
BRANCH   4  28
ATOM     28  O   UNL     1      20.058  -0.211  54.195  0.00  0.00    +0.000 OA
ATOM     29  H   UNL     1      19.565  -0.986  54.006  0.00  0.00    +0.000 HD
ENDBRANCH   4  28
TORSDOF 4
ENDMDL
MODEL 2
REMARK VINA RESULT:    -9.180      1.404      1.887
REMARK INTER + INTRA:         -11.448
REMARK INTER:                 -10.777
REMARK INTRA:                  -0.671
REMARK UNBOUND:                -0.658
REMARK  Name = 
REMARK  5 active torsions:
REMARK  status: ('A' for Active; 'I' for Inactive)
REMARK    1  A    between atoms: C_1  and  N_2
REMARK    2  A    between atoms: C_5  and  C_6
REMARK    3  A    between atoms: C_7  and  O_8
REMARK    4  A    between atoms: C_10  and  O_11
REMARK    5  A    between atoms: C_16  and  C_17
REMARK                            x       y       z     vdW  Elec       q    Type
REMARK                         _______ _______ _______ _____ _____    ______ ____
ROOT
ATOM      1  C   UNL     1      24.251  -0.313  53.982  0.00  0.00    +0.000 A 
ATOM      2  C   UNL     1      24.000  -1.148  55.081  0.00  0.00    +0.000 A 
ATOM      3  C   UNL     1      22.714  -1.612  55.358  0.00  0.00    +0.000 A 
ATOM      4  C   UNL     1      21.655  -1.243  54.527  0.00  0.00    +0.000 A 
ATOM      5  C   UNL     1      21.877  -0.406  53.423  0.00  0.00    +0.000 A 
ATOM      6  C   UNL     1      20.780   0.010  52.518  0.00  0.00    +0.000 A 
ATOM      7  O   UNL     1      19.623  -0.378  52.594  0.00  0.00    +0.000 OA
ATOM      8  C   UNL     1      21.133   0.958  51.447  0.00  0.00    +0.000 A 
ATOM      9  C   UNL     1      22.402   1.368  51.316  0.00  0.00    +0.000 A 
ATOM     10  O   UNL     1      23.444   0.913  52.107  0.00  0.00    +0.000 OA
ATOM     11  C   UNL     1      23.170   0.063  53.158  0.00  0.00    +0.000 A 
ENDROOT
BRANCH   1  16
ATOM     12  C   UNL     1      29.461   1.064  54.249  0.00  0.00    +0.000 C 
ATOM     13  N   UNL     1      28.372   1.083  53.289  0.00  0.00    +0.000 N 
ATOM     14  C   UNL     1      27.948  -0.242  52.852  0.00  0.00    +0.000 C 
ATOM     15  C   UNL     1      26.542  -0.655  53.168  0.00  0.00    +0.000 C 
ATOM     16  C   UNL     1      25.620   0.162  53.701  0.00  0.00    +0.000 C 
ATOM     17  C   UNL     1      25.943   1.583  54.038  0.00  0.00    +0.000 C 
ATOM     18  C   UNL     1      27.324   2.065  53.558  0.00  0.00    +0.000 C 
ATOM     19  H   UNL     1      28.774   1.473  52.436  0.00  0.00    +0.000 HD
ENDBRANCH   1  16
BRANCH   9  20
ATOM     20  C   UNL     1      22.798   2.341  50.275  0.00  0.00    +0.000 A 
ATOM     21  C   UNL     1      22.057   2.502  49.097  0.00  0.00    +0.000 A 
ATOM     22  C   UNL     1      22.471   3.440  48.165  0.00  0.00    +0.000 A 
ATOM     23  N   UNL     1      23.553   4.227  48.323  0.00  0.00    +0.000 NA
ATOM     24  C   UNL     1      24.248   4.073  49.468  0.00  0.00    +0.000 A 
ATOM     25  C   UNL     1      23.916   3.161  50.459  0.00  0.00    +0.000 A 
ENDBRANCH   9  20
BRANCH   2  26
ATOM     26  O   UNL     1      25.035  -1.507  55.906  0.00  0.00    +0.000 OA
ATOM     27  H   UNL     1      25.186  -1.034  56.701  0.00  0.00    +0.000 HD
ENDBRANCH   2  26
BRANCH   4  28
ATOM     28  O   UNL     1      20.403  -1.700  54.817  0.00  0.00    +0.000 OA
ATOM     29  H   UNL     1      19.650  -1.206  54.555  0.00  0.00    +0.000 HD
ENDBRANCH   4  28
TORSDOF 4
ENDMDL
MODEL 3
REMARK VINA RESULT:    -8.860      1.314      5.200
REMARK INTER + INTRA:         -11.072
REMARK INTER:                 -10.266
REMARK INTRA:                  -0.806
REMARK UNBOUND:                -0.658
REMARK  Name = 
REMARK  5 active torsions:
REMARK  status: ('A' for Active; 'I' for Inactive)
REMARK    1  A    between atoms: C_1  and  N_2
REMARK    2  A    between atoms: C_5  and  C_6
REMARK    3  A    between atoms: C_7  and  O_8
REMARK    4  A    between atoms: C_10  and  O_11
REMARK    5  A    between atoms: C_16  and  C_17
REMARK                            x       y       z     vdW  Elec       q    Type
REMARK                         _______ _______ _______ _____ _____    ______ ____
ROOT
ATOM      1  C   UNL     1      22.268   1.421  52.371  0.00  0.00    +0.000 A 
ATOM      2  C   UNL     1      20.900   1.108  52.320  0.00  0.00    +0.000 A 
ATOM      3  C   UNL     1      20.366   0.077  53.094  0.00  0.00    +0.000 A 
ATOM      4  C   UNL     1      21.203  -0.655  53.939  0.00  0.00    +0.000 A 
ATOM      5  C   UNL     1      22.574  -0.364  54.006  0.00  0.00    +0.000 A 
ATOM      6  C   UNL     1      23.495  -1.118  54.888  0.00  0.00    +0.000 A 
ATOM      7  O   UNL     1      23.156  -1.992  55.673  0.00  0.00    +0.000 OA
ATOM      8  C   UNL     1      24.924  -0.770  54.800  0.00  0.00    +0.000 A 
ATOM      9  C   UNL     1      25.317   0.212  53.977  0.00  0.00    +0.000 A 
ATOM     10  O   UNL     1      24.447   0.975  53.218  0.00  0.00    +0.000 OA
ATOM     11  C   UNL     1      23.104   0.666  53.218  0.00  0.00    +0.000 A 
ENDROOT
BRANCH   1  16
ATOM     12  C   UNL     1      25.425   5.064  49.947  0.00  0.00    +0.000 C 
ATOM     13  N   UNL     1      24.025   4.680  49.984  0.00  0.00    +0.000 N 
ATOM     14  C   UNL     1      23.754   3.379  49.386  0.00  0.00    +0.000 C 
ATOM     15  C   UNL     1      23.198   2.312  50.281  0.00  0.00    +0.000 C 
ATOM     16  C   UNL     1      22.812   2.520  51.549  0.00  0.00    +0.000 C 
ATOM     17  C   UNL     1      22.922   3.870  52.184  0.00  0.00    +0.000 C 
ATOM     18  C   UNL     1      23.325   5.005  51.224  0.00  0.00    +0.000 C 
ATOM     19  H   UNL     1      23.557   5.316  49.337  0.00  0.00    +0.000 HD
ENDBRANCH   1  16
BRANCH   9  20
ATOM     20  C   UNL     1      26.743   0.577  53.835  0.00  0.00    +0.000 A 
ATOM     21  C   UNL     1      27.145   1.901  53.611  0.00  0.00    +0.000 A 
ATOM     22  C   UNL     1      28.498   2.183  53.500  0.00  0.00    +0.000 A 
ATOM     23  N   UNL     1      29.468   1.254  53.603  0.00  0.00    +0.000 NA
ATOM     24  C   UNL     1      29.068  -0.012  53.833  0.00  0.00    +0.000 A 
ATOM     25  C   UNL     1      27.741  -0.395  53.957  0.00  0.00    +0.000 A 
ENDBRANCH   9  20
BRANCH   2  26
ATOM     26  O   UNL     1      20.076   1.818  51.487  0.00  0.00    +0.000 OA
ATOM     27  H   UNL     1      19.925   1.520  50.611  0.00  0.00    +0.000 HD
ENDBRANCH   2  26
BRANCH   4  28
ATOM     28  O   UNL     1      20.664  -1.663  54.683  0.00  0.00    +0.000 OA
ATOM     29  H   UNL     1      21.220  -2.211  55.202  0.00  0.00    +0.000 HD
ENDBRANCH   4  28
TORSDOF 4
ENDMDL
MODEL 4
REMARK VINA RESULT:    -8.757      1.687      2.676
REMARK INTER + INTRA:         -10.950
REMARK INTER:                 -10.220
REMARK INTRA:                  -0.730
REMARK UNBOUND:                -0.658
REMARK  Name = 
REMARK  5 active torsions:
REMARK  status: ('A' for Active; 'I' for Inactive)
REMARK    1  A    between atoms: C_1  and  N_2
REMARK    2  A    between atoms: C_5  and  C_6
REMARK    3  A    between atoms: C_7  and  O_8
REMARK    4  A    between atoms: C_10  and  O_11
REMARK    5  A    between atoms: C_16  and  C_17
REMARK                            x       y       z     vdW  Elec       q    Type
REMARK                         _______ _______ _______ _____ _____    ______ ____
ROOT
ATOM      1  C   UNL     1      24.063   0.919  52.264  0.00  0.00    +0.000 A 
ATOM      2  C   UNL     1      23.105   0.087  52.864  0.00  0.00    +0.000 A 
ATOM      3  C   UNL     1      21.774   0.098  52.445  0.00  0.00    +0.000 A 
ATOM      4  C   UNL     1      21.386   0.948  51.408  0.00  0.00    +0.000 A 
ATOM      5  C   UNL     1      22.322   1.793  50.793  0.00  0.00    +0.000 A 
ATOM      6  C   UNL     1      21.951   2.710  49.691  0.00  0.00    +0.000 A 
ATOM      7  O   UNL     1      20.844   2.772  49.173  0.00  0.00    +0.000 OA
ATOM      8  C   UNL     1      23.010   3.604  49.192  0.00  0.00    +0.000 A 
ATOM      9  C   UNL     1      24.241   3.529  49.715  0.00  0.00    +0.000 A 
ATOM     10  O   UNL     1      24.612   2.613  50.684  0.00  0.00    +0.000 OA
ATOM     11  C   UNL     1      23.655   1.782  51.227  0.00  0.00    +0.000 A 
ENDROOT
BRANCH   1  16
ATOM     12  C   UNL     1      28.667   0.111  54.959  0.00  0.00    +0.000 C 
ATOM     13  N   UNL     1      28.210   0.762  53.744  0.00  0.00    +0.000 N 
ATOM     14  C   UNL     1      27.747  -0.164  52.718  0.00  0.00    +0.000 C 
ATOM     15  C   UNL     1      26.309  -0.071  52.303  0.00  0.00    +0.000 C 
ATOM     16  C   UNL     1      25.467   0.888  52.718  0.00  0.00    +0.000 C 
ATOM     17  C   UNL     1      25.915   1.962  53.658  0.00  0.00    +0.000 C 
ATOM     18  C   UNL     1      27.427   1.979  53.949  0.00  0.00    +0.000 C 
ATOM     19  H   UNL     1      29.050   1.154  53.318  0.00  0.00    +0.000 HD
ENDBRANCH   1  16
BRANCH   9  20
ATOM     20  C   UNL     1      25.329   4.425  49.266  0.00  0.00    +0.000 A 
ATOM     21  C   UNL     1      26.662   3.997  49.214  0.00  0.00    +0.000 A 
ATOM     22  C   UNL     1      27.635   4.879  48.772  0.00  0.00    +0.000 A 
ATOM     23  N   UNL     1      27.378   6.140  48.372  0.00  0.00    +0.000 NA
ATOM     24  C   UNL     1      26.089   6.534  48.412  0.00  0.00    +0.000 A 
ATOM     25  C   UNL     1      25.046   5.727  48.841  0.00  0.00    +0.000 A 
ENDBRANCH   9  20
BRANCH   2  26
ATOM     26  O   UNL     1      23.479  -0.744  53.888  0.00  0.00    +0.000 OA
ATOM     27  H   UNL     1      23.758  -1.619  53.703  0.00  0.00    +0.000 HD
ENDBRANCH   2  26
BRANCH   4  28
ATOM     28  O   UNL     1      20.079   0.951  51.016  0.00  0.00    +0.000 OA
ATOM     29  H   UNL     1      19.750   0.258  50.477  0.00  0.00    +0.000 HD
ENDBRANCH   4  28
TORSDOF 4
ENDMDL
MODEL 5
REMARK VINA RESULT:    -8.692      2.182      5.160
REMARK INTER + INTRA:         -10.874
REMARK INTER:                 -10.068
REMARK INTRA:                  -0.807
REMARK UNBOUND:                -0.658
REMARK  Name = 
REMARK  5 active torsions:
REMARK  status: ('A' for Active; 'I' for Inactive)
REMARK    1  A    between atoms: C_1  and  N_2
REMARK    2  A    between atoms: C_5  and  C_6
REMARK    3  A    between atoms: C_7  and  O_8
REMARK    4  A    between atoms: C_10  and  O_11
REMARK    5  A    between atoms: C_16  and  C_17
REMARK                            x       y       z     vdW  Elec       q    Type
REMARK                         _______ _______ _______ _____ _____    ______ ____
ROOT
ATOM      1  C   UNL     1      22.131   0.126  53.396  0.00  0.00    +0.000 A 
ATOM      2  C   UNL     1      21.774  -0.883  54.304  0.00  0.00    +0.000 A 
ATOM      3  C   UNL     1      22.726  -1.481  55.131  0.00  0.00    +0.000 A 
ATOM      4  C   UNL     1      24.057  -1.068  55.058  0.00  0.00    +0.000 A 
ATOM      5  C   UNL     1      24.442  -0.065  54.157  0.00  0.00    +0.000 A 
ATOM      6  C   UNL     1      25.844   0.400  54.048  0.00  0.00    +0.000 A 
ATOM      7  O   UNL     1      26.766   0.021  54.758  0.00  0.00    +0.000 OA
ATOM      8  C   UNL     1      26.129   1.398  53.002  0.00  0.00    +0.000 A 
ATOM      9  C   UNL     1      25.131   1.859  52.237  0.00  0.00    +0.000 A 
ATOM     10  O   UNL     1      23.805   1.491  52.396  0.00  0.00    +0.000 OA
ATOM     11  C   UNL     1      23.482   0.523  53.323  0.00  0.00    +0.000 A 
ENDROOT
BRANCH   1  16
ATOM     12  C   UNL     1      17.577   1.515  50.857  0.00  0.00    +0.000 C 
ATOM     13  N   UNL     1      18.980   1.889  50.872  0.00  0.00    +0.000 N 
ATOM     14  C   UNL     1      19.403   2.542  52.104  0.00  0.00    +0.000 C 
ATOM     15  C   UNL     1      20.449   1.852  52.926  0.00  0.00    +0.000 C 
ATOM     16  C   UNL     1      21.108   0.750  52.534  0.00  0.00    +0.000 C 
ATOM     17  C   UNL     1      20.831   0.108  51.212  0.00  0.00    +0.000 C 
ATOM     18  C   UNL     1      19.890   0.906  50.289  0.00  0.00    +0.000 C 
ATOM     19  H   UNL     1      19.063   2.642  50.189  0.00  0.00    +0.000 HD
ENDBRANCH   1  16
BRANCH   9  20
ATOM     20  C   UNL     1      25.373   2.840  51.157  0.00  0.00    +0.000 A 
ATOM     21  C   UNL     1      24.409   3.790  50.795  0.00  0.00    +0.000 A 
ATOM     22  C   UNL     1      24.699   4.692  49.783  0.00  0.00    +0.000 A 
ATOM     23  N   UNL     1      25.872   4.720  49.119  0.00  0.00    +0.000 NA
ATOM     24  C   UNL     1      26.795   3.810  49.487  0.00  0.00    +0.000 A 
ATOM     25  C   UNL     1      26.599   2.866  50.484  0.00  0.00    +0.000 A 
ENDBRANCH   9  20
BRANCH   2  26
ATOM     26  O   UNL     1      20.469  -1.297  54.374  0.00  0.00    +0.000 OA
ATOM     27  H   UNL     1      20.210  -1.922  55.023  0.00  0.00    +0.000 HD
ENDBRANCH   2  26
BRANCH   4  28
ATOM     28  O   UNL     1      24.975  -1.669  55.870  0.00  0.00    +0.000 OA
ATOM     29  H   UNL     1      25.866  -1.377  55.867  0.00  0.00    +0.000 HD
ENDBRANCH   4  28
TORSDOF 4
ENDMDL
MODEL 6
REMARK VINA RESULT:    -8.641      2.660      5.457
REMARK INTER + INTRA:         -10.814
REMARK INTER:                 -10.026
REMARK INTRA:                  -0.788
REMARK UNBOUND:                -0.658
REMARK  Name = 
REMARK  5 active torsions:
REMARK  status: ('A' for Active; 'I' for Inactive)
REMARK    1  A    between atoms: C_1  and  N_2
REMARK    2  A    between atoms: C_5  and  C_6
REMARK    3  A    between atoms: C_7  and  O_8
REMARK    4  A    between atoms: C_10  and  O_11
REMARK    5  A    between atoms: C_16  and  C_17
REMARK                            x       y       z     vdW  Elec       q    Type
REMARK                         _______ _______ _______ _____ _____    ______ ____
ROOT
ATOM      1  C   UNL     1      25.164   2.393  51.337  0.00  0.00    +0.000 A 
ATOM      2  C   UNL     1      25.931   3.271  50.554  0.00  0.00    +0.000 A 
ATOM      3  C   UNL     1      25.338   4.076  49.581  0.00  0.00    +0.000 A 
ATOM      4  C   UNL     1      23.958   4.013  49.381  0.00  0.00    +0.000 A 
ATOM      5  C   UNL     1      23.169   3.143  50.147  0.00  0.00    +0.000 A 
ATOM      6  C   UNL     1      21.702   3.044  49.965  0.00  0.00    +0.000 A 
ATOM      7  O   UNL     1      21.041   3.740  49.206  0.00  0.00    +0.000 OA
ATOM      8  C   UNL     1      21.004   2.029  50.773  0.00  0.00    +0.000 A 
ATOM      9  C   UNL     1      21.698   1.282  51.642  0.00  0.00    +0.000 A 
ATOM     10  O   UNL     1      23.054   1.432  51.875  0.00  0.00    +0.000 OA
ATOM     11  C   UNL     1      23.773   2.330  51.115  0.00  0.00    +0.000 A 
ENDROOT
BRANCH   1  16
ATOM     12  C   UNL     1      28.624   0.023  54.731  0.00  0.00    +0.000 C 
ATOM     13  N   UNL     1      27.219  -0.054  54.369  0.00  0.00    +0.000 N 
ATOM     14  C   UNL     1      26.446   1.120  54.755  0.00  0.00    +0.000 C 
ATOM     15  C   UNL     1      25.816   1.923  53.656  0.00  0.00    +0.000 C 
ATOM     16  C   UNL     1      25.808   1.555  52.366  0.00  0.00    +0.000 C 
ATOM     17  C   UNL     1      26.455   0.282  51.916  0.00  0.00    +0.000 C 
ATOM     18  C   UNL     1      26.948  -0.630  53.054  0.00  0.00    +0.000 C 
ATOM     19  H   UNL     1      26.827  -0.778  54.971  0.00  0.00    +0.000 HD
ENDBRANCH   1  16
BRANCH   9  20
ATOM     20  C   UNL     1      21.045   0.231  52.453  0.00  0.00    +0.000 A 
ATOM     21  C   UNL     1      21.782  -0.619  53.288  0.00  0.00    +0.000 A 
ATOM     22  C   UNL     1      21.113  -1.575  54.035  0.00  0.00    +0.000 A 
ATOM     23  N   UNL     1      19.775  -1.739  54.016  0.00  0.00    +0.000 NA
ATOM     24  C   UNL     1      19.077  -0.905  53.220  0.00  0.00    +0.000 A 
ATOM     25  C   UNL     1      19.655   0.081  52.434  0.00  0.00    +0.000 A 
ENDBRANCH   9  20
BRANCH   2  26
ATOM     26  O   UNL     1      27.287   3.332  50.740  0.00  0.00    +0.000 OA
ATOM     27  H   UNL     1      27.827   2.607  50.492  0.00  0.00    +0.000 HD
ENDBRANCH   2  26
BRANCH   4  28
ATOM     28  O   UNL     1      23.397   4.803  48.421  0.00  0.00    +0.000 OA
ATOM     29  H   UNL     1      22.653   5.335  48.626  0.00  0.00    +0.000 HD
ENDBRANCH   4  28
TORSDOF 4
ENDMDL
MODEL 7
REMARK VINA RESULT:    -8.383      2.920      6.905
REMARK INTER + INTRA:         -10.511
REMARK INTER:                  -9.704
REMARK INTRA:                  -0.808
REMARK UNBOUND:                -0.658
REMARK  Name = 
REMARK  5 active torsions:
REMARK  status: ('A' for Active; 'I' for Inactive)
REMARK    1  A    between atoms: C_1  and  N_2
REMARK    2  A    between atoms: C_5  and  C_6
REMARK    3  A    between atoms: C_7  and  O_8
REMARK    4  A    between atoms: C_10  and  O_11
REMARK    5  A    between atoms: C_16  and  C_17
REMARK                            x       y       z     vdW  Elec       q    Type
REMARK                         _______ _______ _______ _____ _____    ______ ____
ROOT
ATOM      1  C   UNL     1      24.708   2.660  51.020  0.00  0.00    +0.000 A 
ATOM      2  C   UNL     1      26.057   3.044  51.077  0.00  0.00    +0.000 A 
ATOM      3  C   UNL     1      26.971   2.354  51.875  0.00  0.00    +0.000 A 
ATOM      4  C   UNL     1      26.540   1.260  52.627  0.00  0.00    +0.000 A 
ATOM      5  C   UNL     1      25.197   0.857  52.591  0.00  0.00    +0.000 A 
ATOM      6  C   UNL     1      24.700  -0.297  53.375  0.00  0.00    +0.000 A 
ATOM      7  O   UNL     1      25.398  -1.036  54.055  0.00  0.00    +0.000 OA
ATOM      8  C   UNL     1      23.252  -0.561  53.314  0.00  0.00    +0.000 A 
ATOM      9  C   UNL     1      22.470   0.209  52.545  0.00  0.00    +0.000 A 
ATOM     10  O   UNL     1      22.946   1.232  51.744  0.00  0.00    +0.000 OA
ATOM     11  C   UNL     1      24.284   1.561  51.795  0.00  0.00    +0.000 A 
ENDROOT
BRANCH   1  16
ATOM     12  C   UNL     1      22.337   6.089  47.595  0.00  0.00    +0.000 C 
ATOM     13  N   UNL     1      21.980   4.961  48.437  0.00  0.00    +0.000 N 
ATOM     14  C   UNL     1      22.538   3.692  47.990  0.00  0.00    +0.000 C 
ATOM     15  C   UNL     1      23.494   2.995  48.913  0.00  0.00    +0.000 C 
ATOM     16  C   UNL     1      23.758   3.398  50.165  0.00  0.00    +0.000 C 
ATOM     17  C   UNL     1      23.104   4.613  50.745  0.00  0.00    +0.000 C 
ATOM     18  C   UNL     1      21.995   5.230  49.873  0.00  0.00    +0.000 C 
ATOM     19  H   UNL     1      20.980   4.822  48.288  0.00  0.00    +0.000 HD
ENDBRANCH   1  16
BRANCH   9  20
ATOM     20  C   UNL     1      21.007  -0.001  52.474  0.00  0.00    +0.000 A 
ATOM     21  C   UNL     1      20.258   0.408  51.363  0.00  0.00    +0.000 A 
ATOM     22  C   UNL     1      18.892   0.172  51.349  0.00  0.00    +0.000 A 
ATOM     23  N   UNL     1      18.228  -0.443  52.347  0.00  0.00    +0.000 NA
ATOM     24  C   UNL     1      18.963  -0.844  53.403  0.00  0.00    +0.000 A 
ATOM     25  C   UNL     1      20.332  -0.652  53.511  0.00  0.00    +0.000 A 
ENDBRANCH   9  20
BRANCH   2  26
ATOM     26  O   UNL     1      26.483   4.122  50.347  0.00  0.00    +0.000 OA
ATOM     27  H   UNL     1      26.201   4.228  49.459  0.00  0.00    +0.000 HD
ENDBRANCH   2  26
BRANCH   4  28
ATOM     28  O   UNL     1      27.446   0.602  53.406  0.00  0.00    +0.000 OA
ATOM     29  H   UNL     1      27.309   0.536  54.331  0.00  0.00    +0.000 HD
ENDBRANCH   4  28
TORSDOF 4
ENDMDL
MODEL 8
REMARK VINA RESULT:    -8.213      2.600      5.776
REMARK INTER + INTRA:         -10.311
REMARK INTER:                  -9.524
REMARK INTRA:                  -0.787
REMARK UNBOUND:                -0.658
REMARK  Name = 
REMARK  5 active torsions:
REMARK  status: ('A' for Active; 'I' for Inactive)
REMARK    1  A    between atoms: C_1  and  N_2
REMARK    2  A    between atoms: C_5  and  C_6
REMARK    3  A    between atoms: C_7  and  O_8
REMARK    4  A    between atoms: C_10  and  O_11
REMARK    5  A    between atoms: C_16  and  C_17
REMARK                            x       y       z     vdW  Elec       q    Type
REMARK                         _______ _______ _______ _____ _____    ______ ____
ROOT
ATOM      1  C   UNL     1      24.632   1.710  52.928  0.00  0.00    +0.000 A 
ATOM      2  C   UNL     1      25.886   1.483  53.517  0.00  0.00    +0.000 A 
ATOM      3  C   UNL     1      26.089   0.419  54.396  0.00  0.00    +0.000 A 
ATOM      4  C   UNL     1      25.029  -0.439  54.696  0.00  0.00    +0.000 A 
ATOM      5  C   UNL     1      23.765  -0.233  54.124  0.00  0.00    +0.000 A 
ATOM      6  C   UNL     1      22.614  -1.119  54.417  0.00  0.00    +0.000 A 
ATOM      7  O   UNL     1      22.664  -2.129  55.107  0.00  0.00    +0.000 OA
ATOM      8  C   UNL     1      21.322  -0.741  53.819  0.00  0.00    +0.000 A 
ATOM      9  C   UNL     1      21.248   0.337  53.028  0.00  0.00    +0.000 A 
ATOM     10  O   UNL     1      22.339   1.116  52.683  0.00  0.00    +0.000 OA
ATOM     11  C   UNL     1      23.567   0.844  53.250  0.00  0.00    +0.000 A 
ENDROOT
BRANCH   1  16
ATOM     12  C   UNL     1      25.155   6.188  49.965  0.00  0.00    +0.000 C 
ATOM     13  N   UNL     1      24.182   5.134  50.193  0.00  0.00    +0.000 N 
ATOM     14  C   UNL     1      24.600   3.830  49.695  0.00  0.00    +0.000 C 
ATOM     15  C   UNL     1      24.772   2.730  50.700  0.00  0.00    +0.000 C 
ATOM     16  C   UNL     1      24.439   2.837  51.995  0.00  0.00    +0.000 C 
ATOM     17  C   UNL     1      23.863   4.103  52.548  0.00  0.00    +0.000 C 
ATOM     18  C   UNL     1      23.520   5.172  51.495  0.00  0.00    +0.000 C 
ATOM     19  H   UNL     1      23.397   5.358  49.581  0.00  0.00    +0.000 HD
ENDBRANCH   1  16
BRANCH   9  20
ATOM     20  C   UNL     1      19.967   0.771  52.429  0.00  0.00    +0.000 A 
ATOM     21  C   UNL     1      18.922  -0.131  52.192  0.00  0.00    +0.000 A 
ATOM     22  C   UNL     1      17.740   0.338  51.641  0.00  0.00    +0.000 A 
ATOM     23  N   UNL     1      17.524   1.629  51.320  0.00  0.00    +0.000 NA
ATOM     24  C   UNL     1      18.532   2.489  51.567  0.00  0.00    +0.000 A 
ATOM     25  C   UNL     1      19.751   2.116  52.113  0.00  0.00    +0.000 A 
ENDBRANCH   9  20
BRANCH   2  26
ATOM     26  O   UNL     1      26.927   2.326  53.233  0.00  0.00    +0.000 OA
ATOM     27  H   UNL     1      27.019   2.685  52.372  0.00  0.00    +0.000 HD
ENDBRANCH   2  26
BRANCH   4  28
ATOM     28  O   UNL     1      25.244  -1.470  55.563  0.00  0.00    +0.000 OA
ATOM     29  H   UNL     1      25.584  -2.285  55.248  0.00  0.00    +0.000 HD
ENDBRANCH   4  28
TORSDOF 4
ENDMDL
MODEL 9
REMARK VINA RESULT:    -8.030      3.216      7.721
REMARK INTER + INTRA:         -10.096
REMARK INTER:                  -9.244
REMARK INTRA:                  -0.852
REMARK UNBOUND:                -0.658
REMARK  Name = 
REMARK  5 active torsions:
REMARK  status: ('A' for Active; 'I' for Inactive)
REMARK    1  A    between atoms: C_1  and  N_2
REMARK    2  A    between atoms: C_5  and  C_6
REMARK    3  A    between atoms: C_7  and  O_8
REMARK    4  A    between atoms: C_10  and  O_11
REMARK    5  A    between atoms: C_16  and  C_17
REMARK                            x       y       z     vdW  Elec       q    Type
REMARK                         _______ _______ _______ _____ _____    ______ ____
ROOT
ATOM      1  C   UNL     1      23.276   3.565  49.720  0.00  0.00    +0.000 A 
ATOM      2  C   UNL     1      24.056   4.507  49.031  0.00  0.00    +0.000 A 
ATOM      3  C   UNL     1      25.433   4.593  49.235  0.00  0.00    +0.000 A 
ATOM      4  C   UNL     1      26.052   3.725  50.136  0.00  0.00    +0.000 A 
ATOM      5  C   UNL     1      25.296   2.775  50.840  0.00  0.00    +0.000 A 
ATOM      6  C   UNL     1      25.914   1.838  51.807  0.00  0.00    +0.000 A 
ATOM      7  O   UNL     1      27.113   1.748  52.029  0.00  0.00    +0.000 OA
ATOM      8  C   UNL     1      24.996   0.950  52.542  0.00  0.00    +0.000 A 
ATOM      9  C   UNL     1      23.682   0.999  52.289  0.00  0.00    +0.000 A 
ATOM     10  O   UNL     1      23.113   1.813  51.325  0.00  0.00    +0.000 OA
ATOM     11  C   UNL     1      23.912   2.703  50.638  0.00  0.00    +0.000 A 
ENDROOT
BRANCH   1  16
ATOM     12  C   UNL     1      18.056   2.199  49.683  0.00  0.00    +0.000 C 
ATOM     13  N   UNL     1      18.931   3.201  49.097  0.00  0.00    +0.000 N 
ATOM     14  C   UNL     1      19.470   4.149  50.063  0.00  0.00    +0.000 C 
ATOM     15  C   UNL     1      20.958   4.177  50.246  0.00  0.00    +0.000 C 
ATOM     16  C   UNL     1      21.821   3.485  49.486  0.00  0.00    +0.000 C 
ATOM     17  C   UNL     1      21.346   2.604  48.375  0.00  0.00    +0.000 C 
ATOM     18  C   UNL     1      19.840   2.705  48.067  0.00  0.00    +0.000 C 
ATOM     19  H   UNL     1      18.320   3.792  48.533  0.00  0.00    +0.000 HD
ENDBRANCH   1  16
BRANCH   9  20
ATOM     20  C   UNL     1      22.720   0.148  53.022  0.00  0.00    +0.000 A 
ATOM     21  C   UNL     1      23.136  -0.739  54.025  0.00  0.00    +0.000 A 
ATOM     22  C   UNL     1      22.186  -1.500  54.686  0.00  0.00    +0.000 A 
ATOM     23  N   UNL     1      20.864  -1.437  54.430  0.00  0.00    +0.000 NA
ATOM     24  C   UNL     1      20.476  -0.569  53.475  0.00  0.00    +0.000 A 
ATOM     25  C   UNL     1      21.350   0.234  52.756  0.00  0.00    +0.000 A 
ENDBRANCH   9  20
BRANCH   2  26
ATOM     26  O   UNL     1      23.453   5.367  48.151  0.00  0.00    +0.000 OA
ATOM     27  H   UNL     1      22.992   6.118  48.471  0.00  0.00    +0.000 HD
ENDBRANCH   2  26
BRANCH   4  28
ATOM     28  O   UNL     1      27.399   3.827  50.327  0.00  0.00    +0.000 OA
ATOM     29  H   UNL     1      27.771   4.636  50.622  0.00  0.00    +0.000 HD
ENDBRANCH   4  28
TORSDOF 4
ENDMDL
