MODEL 1
REMARK VINA RESULT:    -8.879      0.000      0.000
REMARK INTER + INTRA:         -14.651
REMARK INTER:                 -13.291
REMARK INTRA:                  -1.360
REMARK UNBOUND:                -1.360
REMARK  Name = 
REMARK  11 active torsions:
REMARK  status: ('A' for Active; 'I' for Inactive)
REMARK    1  A    between atoms: C_2  and  C_3
REMARK    2  A    between atoms: C_3  and  N_4
REMARK    3  A    between atoms: N_4  and  C_5
REMARK    4  A    between atoms: N_4  and  C_18
REMARK    5  A    between atoms: C_5  and  C_6
REMARK    6  A    between atoms: C_11  and  C_12
REMARK    7  A    between atoms: C_14  and  O_15
REMARK    8  A    between atoms: C_21  and  C_22
REMARK    9  A    between atoms: N_24  and  C_25
REMARK   10  A    between atoms: C_25  and  C_26
REMARK   11  A    between atoms: C_26  and  C_27
REMARK                            x       y       z     vdW  Elec       q    Type
REMARK                         _______ _______ _______ _____ _____    ______ ____
ROOT
ATOM      1  N   UNL     1      23.757   3.443  51.262  0.00  0.00    +0.000 N 
ENDROOT
BRANCH   1   2
ATOM      2  C   UNL     1      24.753   4.019  50.482  0.00  0.00    +0.000 A 
ATOM      3  C   UNL     1      25.806   3.293  49.904  0.00  0.00    +0.000 A 
ATOM      4  C   UNL     1      26.862   3.918  49.209  0.00  0.00    +0.000 A 
ATOM      5  C   UNL     1      26.901   5.304  49.058  0.00  0.00    +0.000 A 
ATOM      6  C   UNL     1      25.819   6.037  49.533  0.00  0.00    +0.000 A 
ATOM      7  C   UNL     1      24.776   5.402  50.225  0.00  0.00    +0.000 A 
BRANCH   5   8
ATOM      8  C   UNL     1      28.113   5.941  48.450  0.00  0.00    +0.000 C 
ATOM      9  O   UNL     1      27.990   6.857  47.642  0.00  0.00    +0.000 OA
ATOM     10  N   UNL     1      29.341   5.412  48.799  0.00  0.00    +0.000 N 
ATOM     11  H   UNL     1      29.369   4.715  49.494  0.00  0.00    +0.000 HD
BRANCH  10  12
ATOM     12  C   UNL     1      30.586   5.832  48.192  0.00  0.00    +0.000 C 
BRANCH  12  13
ATOM     13  C   UNL     1      31.658   6.203  49.213  0.00  0.00    +0.000 C 
ATOM     14  C   UNL     1      31.673   7.685  49.559  0.00  0.00    +0.000 C 
ENDBRANCH  12  13
ENDBRANCH  10  12
ENDBRANCH   5   8
ENDBRANCH   1   2
BRANCH   1  15
ATOM     15  C   UNL     1      22.411   3.112  50.774  0.00  0.00    +0.000 C 
BRANCH  15  17
ATOM     16  C   UNL     1      22.588   2.255  48.089  0.00  0.00    +0.000 C 
ATOM     17  C   UNL     1      22.506   2.651  49.329  0.00  0.00    +0.000 C 
ENDBRANCH  15  17
ENDBRANCH   1  15
BRANCH   1  18
ATOM     18  C   UNL     1      23.995   3.110  52.678  0.00  0.00    +0.000 C 
BRANCH  18  19
ATOM     19  C   UNL     1      24.997   1.992  52.866  0.00  0.00    +0.000 A 
ATOM     20  C   UNL     1      24.732   0.660  52.530  0.00  0.00    +0.000 A 
ATOM     21  C   UNL     1      25.728  -0.313  52.629  0.00  0.00    +0.000 A 
ATOM     22  C   UNL     1      26.995  -0.003  53.096  0.00  0.00    +0.000 A 
ATOM     23  N   UNL     1      27.916  -0.973  53.174  0.00  0.00    +0.000 NA
ATOM     24  C   UNL     1      29.122  -0.645  53.668  0.00  0.00    +0.000 A 
ATOM     25  C   UNL     1      30.119  -1.753  53.777  0.00  0.00    +0.000 C 
ATOM     26  N   UNL     1      29.485   0.580  54.077  0.00  0.00    +0.000 NA
ATOM     27  C   UNL     1      28.536   1.515  53.965  0.00  0.00    +0.000 A 
ATOM     28  C   UNL     1      27.254   1.311  53.478  0.00  0.00    +0.000 A 
ATOM     29  C   UNL     1      26.267   2.309  53.358  0.00  0.00    +0.000 A 
BRANCH  27  30
ATOM     30  O   UNL     1      28.932   2.737  54.411  0.00  0.00    +0.000 OA
ATOM     31  H   UNL     1      28.301   3.334  54.762  0.00  0.00    +0.000 HD
ENDBRANCH  27  30
ENDBRANCH  18  19
ENDBRANCH   1  18
TORSDOF 9
ENDMDL
MODEL 2
REMARK VINA RESULT:    -8.250      1.758      6.873
REMARK INTER + INTRA:         -13.710
REMARK INTER:                 -12.372
REMARK INTRA:                  -1.338
REMARK UNBOUND:                -1.360
REMARK  Name = 
REMARK  11 active torsions:
REMARK  status: ('A' for Active; 'I' for Inactive)
REMARK    1  A    between atoms: C_2  and  C_3
REMARK    2  A    between atoms: C_3  and  N_4
REMARK    3  A    between atoms: N_4  and  C_5
REMARK    4  A    between atoms: N_4  and  C_18
REMARK    5  A    between atoms: C_5  and  C_6
REMARK    6  A    between atoms: C_11  and  C_12
REMARK    7  A    between atoms: C_14  and  O_15
REMARK    8  A    between atoms: C_21  and  C_22
REMARK    9  A    between atoms: N_24  and  C_25
REMARK   10  A    between atoms: C_25  and  C_26
REMARK   11  A    between atoms: C_26  and  C_27
REMARK                            x       y       z     vdW  Elec       q    Type
REMARK                         _______ _______ _______ _____ _____    ______ ____
ROOT
ATOM      1  N   UNL     1      22.665   3.720  51.054  0.00  0.00    +0.000 N 
ENDROOT
BRANCH   1   2
ATOM      2  C   UNL     1      23.440   2.943  51.907  0.00  0.00    +0.000 A 
ATOM      3  C   UNL     1      24.277   3.477  52.899  0.00  0.00    +0.000 A 
ATOM      4  C   UNL     1      25.134   2.671  53.678  0.00  0.00    +0.000 A 
ATOM      5  C   UNL     1      25.180   1.289  53.497  0.00  0.00    +0.000 A 
ATOM      6  C   UNL     1      24.288   0.725  52.592  0.00  0.00    +0.000 A 
ATOM      7  C   UNL     1      23.443   1.539  51.823  0.00  0.00    +0.000 A 
BRANCH   5   8
ATOM      8  C   UNL     1      26.211   0.489  54.233  0.00  0.00    +0.000 C 
ATOM      9  O   UNL     1      25.868  -0.329  55.081  0.00  0.00    +0.000 OA
ATOM     10  N   UNL     1      27.536   0.760  53.948  0.00  0.00    +0.000 N 
ATOM     11  H   UNL     1      27.738   1.388  53.218  0.00  0.00    +0.000 HD
BRANCH  10  12
ATOM     12  C   UNL     1      28.639   0.166  54.672  0.00  0.00    +0.000 C 
BRANCH  12  13
ATOM     13  C   UNL     1      29.727  -0.394  53.760  0.00  0.00    +0.000 C 
ATOM     14  C   UNL     1      29.458  -1.824  53.311  0.00  0.00    +0.000 C 
ENDBRANCH  12  13
ENDBRANCH  10  12
ENDBRANCH   5   8
ENDBRANCH   1   2
BRANCH   1  15
ATOM     15  C   UNL     1      21.467   4.463  51.469  0.00  0.00    +0.000 C 
BRANCH  15  17
ATOM     16  C   UNL     1      21.775   7.179  50.764  0.00  0.00    +0.000 C 
ATOM     17  C   UNL     1      21.633   5.925  51.089  0.00  0.00    +0.000 C 
ENDBRANCH  15  17
ENDBRANCH   1  15
BRANCH   1  18
ATOM     18  C   UNL     1      23.008   3.858  49.627  0.00  0.00    +0.000 C 
BRANCH  18  19
ATOM     19  C   UNL     1      24.450   4.256  49.398  0.00  0.00    +0.000 A 
ATOM     20  C   UNL     1      25.521   3.367  49.527  0.00  0.00    +0.000 A 
ATOM     21  C   UNL     1      26.821   3.761  49.204  0.00  0.00    +0.000 A 
ATOM     22  C   UNL     1      27.098   5.051  48.783  0.00  0.00    +0.000 A 
ATOM     23  N   UNL     1      28.362   5.383  48.486  0.00  0.00    +0.000 NA
ATOM     24  C   UNL     1      28.601   6.653  48.118  0.00  0.00    +0.000 A 
ATOM     25  C   UNL     1      30.024   7.004  47.827  0.00  0.00    +0.000 C 
ATOM     26  N   UNL     1      27.673   7.616  48.008  0.00  0.00    +0.000 NA
ATOM     27  C   UNL     1      26.426   7.232  48.300  0.00  0.00    +0.000 A 
ATOM     28  C   UNL     1      26.045   5.958  48.696  0.00  0.00    +0.000 A 
ATOM     29  C   UNL     1      24.724   5.566  48.993  0.00  0.00    +0.000 A 
BRANCH  27  30
ATOM     30  O   UNL     1      25.518   8.239  48.202  0.00  0.00    +0.000 OA
ATOM     31  H   UNL     1      25.640   9.029  48.692  0.00  0.00    +0.000 HD
ENDBRANCH  27  30
ENDBRANCH  18  19
ENDBRANCH   1  18
TORSDOF 9
ENDMDL
MODEL 3
REMARK VINA RESULT:    -7.841      3.883      7.456
REMARK INTER + INTRA:         -13.098
REMARK INTER:                 -12.229
REMARK INTRA:                  -0.869
REMARK UNBOUND:                -1.360
REMARK  Name = 
REMARK  11 active torsions:
REMARK  status: ('A' for Active; 'I' for Inactive)
REMARK    1  A    between atoms: C_2  and  C_3
REMARK    2  A    between atoms: C_3  and  N_4
REMARK    3  A    between atoms: N_4  and  C_5
REMARK    4  A    between atoms: N_4  and  C_18
REMARK    5  A    between atoms: C_5  and  C_6
REMARK    6  A    between atoms: C_11  and  C_12
REMARK    7  A    between atoms: C_14  and  O_15
REMARK    8  A    between atoms: C_21  and  C_22
REMARK    9  A    between atoms: N_24  and  C_25
REMARK   10  A    between atoms: C_25  and  C_26
REMARK   11  A    between atoms: C_26  and  C_27
REMARK                            x       y       z     vdW  Elec       q    Type
REMARK                         _______ _______ _______ _____ _____    ______ ____
ROOT
ATOM      1  N   UNL     1      23.521   3.034  51.014  0.00  0.00    +0.000 N 
ENDROOT
BRANCH   1   2
ATOM      2  C   UNL     1      22.382   2.244  51.106  0.00  0.00    +0.000 A 
ATOM      3  C   UNL     1      21.983   1.335  50.113  0.00  0.00    +0.000 A 
ATOM      4  C   UNL     1      20.765   0.626  50.184  0.00  0.00    +0.000 A 
ATOM      5  C   UNL     1      19.898   0.795  51.262  0.00  0.00    +0.000 A 
ATOM      6  C   UNL     1      20.316   1.612  52.307  0.00  0.00    +0.000 A 
ATOM      7  C   UNL     1      21.528   2.313  52.222  0.00  0.00    +0.000 A 
BRANCH   5   8
ATOM      8  C   UNL     1      18.549   0.144  51.226  0.00  0.00    +0.000 C 
ATOM      9  O   UNL     1      17.878   0.170  50.198  0.00  0.00    +0.000 OA
ATOM     10  N   UNL     1      18.094  -0.422  52.401  0.00  0.00    +0.000 N 
ATOM     11  H   UNL     1      18.707  -0.455  53.171  0.00  0.00    +0.000 HD
BRANCH  10  12
ATOM     12  C   UNL     1      16.761  -0.966  52.555  0.00  0.00    +0.000 C 
BRANCH  12  13
ATOM     13  C   UNL     1      16.754  -2.438  52.955  0.00  0.00    +0.000 C 
ATOM     14  C   UNL     1      17.961  -2.840  53.792  0.00  0.00    +0.000 C 
ENDBRANCH  12  13
ENDBRANCH  10  12
ENDBRANCH   5   8
ENDBRANCH   1   2
BRANCH   1  15
ATOM     15  C   UNL     1      23.964   3.709  49.786  0.00  0.00    +0.000 C 
BRANCH  15  17
ATOM     16  C   UNL     1      26.752   3.368  49.501  0.00  0.00    +0.000 C 
ATOM     17  C   UNL     1      25.465   3.526  49.632  0.00  0.00    +0.000 C 
ENDBRANCH  15  17
ENDBRANCH   1  15
BRANCH   1  18
ATOM     18  C   UNL     1      24.388   3.260  52.184  0.00  0.00    +0.000 C 
BRANCH  18  19
ATOM     19  C   UNL     1      25.309   2.095  52.476  0.00  0.00    +0.000 A 
ATOM     20  C   UNL     1      24.977   0.766  52.194  0.00  0.00    +0.000 A 
ATOM     21  C   UNL     1      25.904  -0.260  52.388  0.00  0.00    +0.000 A 
ATOM     22  C   UNL     1      27.165  -0.003  52.900  0.00  0.00    +0.000 A 
ATOM     23  N   UNL     1      28.019  -1.021  53.071  0.00  0.00    +0.000 NA
ATOM     24  C   UNL     1      29.220  -0.741  53.606  0.00  0.00    +0.000 A 
ATOM     25  C   UNL     1      30.140  -1.900  53.817  0.00  0.00    +0.000 C 
ATOM     26  N   UNL     1      29.640   0.480  53.970  0.00  0.00    +0.000 NA
ATOM     27  C   UNL     1      28.758   1.463  53.767  0.00  0.00    +0.000 A 
ATOM     28  C   UNL     1      27.489   1.312  53.229  0.00  0.00    +0.000 A 
ATOM     29  C   UNL     1      26.572   2.360  53.012  0.00  0.00    +0.000 A 
BRANCH  27  30
ATOM     30  O   UNL     1      29.209   2.681  54.171  0.00  0.00    +0.000 OA
ATOM     31  H   UNL     1      29.716   3.210  53.587  0.00  0.00    +0.000 HD
ENDBRANCH  27  30
ENDBRANCH  18  19
ENDBRANCH   1  18
TORSDOF 9
ENDMDL
MODEL 4
REMARK VINA RESULT:    -7.827      3.435      6.286
REMARK INTER + INTRA:         -13.076
REMARK INTER:                 -12.000
REMARK INTRA:                  -1.075
REMARK UNBOUND:                -1.360
REMARK  Name = 
REMARK  11 active torsions:
REMARK  status: ('A' for Active; 'I' for Inactive)
REMARK    1  A    between atoms: C_2  and  C_3
REMARK    2  A    between atoms: C_3  and  N_4
REMARK    3  A    between atoms: N_4  and  C_5
REMARK    4  A    between atoms: N_4  and  C_18
REMARK    5  A    between atoms: C_5  and  C_6
REMARK    6  A    between atoms: C_11  and  C_12
REMARK    7  A    between atoms: C_14  and  O_15
REMARK    8  A    between atoms: C_21  and  C_22
REMARK    9  A    between atoms: N_24  and  C_25
REMARK   10  A    between atoms: C_25  and  C_26
REMARK   11  A    between atoms: C_26  and  C_27
REMARK                            x       y       z     vdW  Elec       q    Type
REMARK                         _______ _______ _______ _____ _____    ______ ____
ROOT
ATOM      1  N   UNL     1      25.614   0.614  53.727  0.00  0.00    +0.000 N 
ENDROOT
BRANCH   1   2
ATOM      2  C   UNL     1      25.395   1.641  52.816  0.00  0.00    +0.000 A 
ATOM      3  C   UNL     1      26.047   1.734  51.577  0.00  0.00    +0.000 A 
ATOM      4  C   UNL     1      25.887   2.844  50.721  0.00  0.00    +0.000 A 
ATOM      5  C   UNL     1      25.056   3.907  51.072  0.00  0.00    +0.000 A 
ATOM      6  C   UNL     1      24.320   3.793  52.246  0.00  0.00    +0.000 A 
ATOM      7  C   UNL     1      24.491   2.685  53.089  0.00  0.00    +0.000 A 
BRANCH   5   8
ATOM      8  C   UNL     1      25.032   5.133  50.210  0.00  0.00    +0.000 C 
ATOM      9  O   UNL     1      24.063   5.365  49.493  0.00  0.00    +0.000 OA
ATOM     10  N   UNL     1      26.158   5.933  50.228  0.00  0.00    +0.000 N 
ATOM     11  H   UNL     1      26.874   5.717  50.867  0.00  0.00    +0.000 HD
BRANCH  10  12
ATOM     12  C   UNL     1      26.334   7.072  49.351  0.00  0.00    +0.000 C 
BRANCH  12  13
ATOM     13  C   UNL     1      27.258   6.786  48.171  0.00  0.00    +0.000 C 
ATOM     14  C   UNL     1      28.112   5.540  48.364  0.00  0.00    +0.000 C 
ENDBRANCH  12  13
ENDBRANCH  10  12
ENDBRANCH   5   8
ENDBRANCH   1   2
BRANCH   1  15
ATOM     15  C   UNL     1      26.431   0.744  54.941  0.00  0.00    +0.000 C 
BRANCH  15  17
ATOM     16  C   UNL     1      29.031  -0.221  54.412  0.00  0.00    +0.000 C 
ATOM     17  C   UNL     1      27.830   0.225  54.656  0.00  0.00    +0.000 C 
ENDBRANCH  15  17
ENDBRANCH   1  15
BRANCH   1  18
ATOM     18  C   UNL     1      25.016  -0.719  53.530  0.00  0.00    +0.000 C 
BRANCH  18  19
ATOM     19  C   UNL     1      23.504  -0.689  53.462  0.00  0.00    +0.000 A 
ATOM     20  C   UNL     1      22.681  -1.049  54.533  0.00  0.00    +0.000 A 
ATOM     21  C   UNL     1      21.295  -0.905  54.451  0.00  0.00    +0.000 A 
ATOM     22  C   UNL     1      20.687  -0.437  53.296  0.00  0.00    +0.000 A 
ATOM     23  N   UNL     1      19.353  -0.318  53.264  0.00  0.00    +0.000 NA
ATOM     24  C   UNL     1      18.795   0.102  52.116  0.00  0.00    +0.000 A 
ATOM     25  C   UNL     1      17.303   0.192  52.097  0.00  0.00    +0.000 C 
ATOM     26  N   UNL     1      19.466   0.426  51.001  0.00  0.00    +0.000 NA
ATOM     27  C   UNL     1      20.794   0.304  51.088  0.00  0.00    +0.000 A 
ATOM     28  C   UNL     1      21.495  -0.120  52.207  0.00  0.00    +0.000 A 
ATOM     29  C   UNL     1      22.898  -0.236  52.286  0.00  0.00    +0.000 A 
BRANCH  27  30
ATOM     30  O   UNL     1      21.439   0.617  49.932  0.00  0.00    +0.000 OA
ATOM     31  H   UNL     1      22.290   1.009  49.962  0.00  0.00    +0.000 HD
ENDBRANCH  27  30
ENDBRANCH  18  19
ENDBRANCH   1  18
TORSDOF 9
ENDMDL
MODEL 5
REMARK VINA RESULT:    -7.742      1.925      2.620
REMARK INTER + INTRA:         -12.949
REMARK INTER:                 -11.798
REMARK INTRA:                  -1.151
REMARK UNBOUND:                -1.360
REMARK  Name = 
REMARK  11 active torsions:
REMARK  status: ('A' for Active; 'I' for Inactive)
REMARK    1  A    between atoms: C_2  and  C_3
REMARK    2  A    between atoms: C_3  and  N_4
REMARK    3  A    between atoms: N_4  and  C_5
REMARK    4  A    between atoms: N_4  and  C_18
REMARK    5  A    between atoms: C_5  and  C_6
REMARK    6  A    between atoms: C_11  and  C_12
REMARK    7  A    between atoms: C_14  and  O_15
REMARK    8  A    between atoms: C_21  and  C_22
REMARK    9  A    between atoms: N_24  and  C_25
REMARK   10  A    between atoms: C_25  and  C_26
REMARK   11  A    between atoms: C_26  and  C_27
REMARK                            x       y       z     vdW  Elec       q    Type
REMARK                         _______ _______ _______ _____ _____    ______ ____
ROOT
ATOM      1  N   UNL     1      22.022   3.308  51.343  0.00  0.00    +0.000 N 
ENDROOT
BRANCH   1   2
ATOM      2  C   UNL     1      22.802   4.261  50.699  0.00  0.00    +0.000 A 
ATOM      3  C   UNL     1      23.118   4.214  49.332  0.00  0.00    +0.000 A 
ATOM      4  C   UNL     1      24.001   5.134  48.729  0.00  0.00    +0.000 A 
ATOM      5  C   UNL     1      24.600   6.148  49.475  0.00  0.00    +0.000 A 
ATOM      6  C   UNL     1      24.226   6.279  50.808  0.00  0.00    +0.000 A 
ATOM      7  C   UNL     1      23.348   5.355  51.395  0.00  0.00    +0.000 A 
BRANCH   5   8
ATOM      8  C   UNL     1      25.647   7.008  48.834  0.00  0.00    +0.000 C 
ATOM      9  O   UNL     1      25.394   7.623  47.803  0.00  0.00    +0.000 OA
ATOM     10  N   UNL     1      26.896   7.019  49.426  0.00  0.00    +0.000 N 
ATOM     11  H   UNL     1      27.013   6.546  50.281  0.00  0.00    +0.000 HD
BRANCH  10  12
ATOM     12  C   UNL     1      28.040   7.692  48.847  0.00  0.00    +0.000 C 
BRANCH  12  13
ATOM     13  C   UNL     1      29.042   6.734  48.208  0.00  0.00    +0.000 C 
ATOM     14  C   UNL     1      28.630   5.272  48.317  0.00  0.00    +0.000 C 
ENDBRANCH  12  13
ENDBRANCH  10  12
ENDBRANCH   5   8
ENDBRANCH   1   2
BRANCH   1  15
ATOM     15  C   UNL     1      20.936   3.623  52.282  0.00  0.00    +0.000 C 
BRANCH  15  17
ATOM     16  C   UNL     1      18.703   1.999  51.693  0.00  0.00    +0.000 C 
ATOM     17  C   UNL     1      19.735   2.749  51.964  0.00  0.00    +0.000 C 
ENDBRANCH  15  17
ENDBRANCH   1  15
BRANCH   1  18
ATOM     18  C   UNL     1      22.235   1.867  51.114  0.00  0.00    +0.000 C 
BRANCH  18  19
ATOM     19  C   UNL     1      23.396   1.305  51.905  0.00  0.00    +0.000 A 
ATOM     20  C   UNL     1      23.277   0.213  52.770  0.00  0.00    +0.000 A 
ATOM     21  C   UNL     1      24.401  -0.330  53.396  0.00  0.00    +0.000 A 
ATOM     22  C   UNL     1      25.661   0.217  53.213  0.00  0.00    +0.000 A 
ATOM     23  N   UNL     1      26.709  -0.337  53.837  0.00  0.00    +0.000 NA
ATOM     24  C   UNL     1      27.910   0.241  53.667  0.00  0.00    +0.000 A 
ATOM     25  C   UNL     1      29.055  -0.377  54.403  0.00  0.00    +0.000 C 
ATOM     26  N   UNL     1      28.149   1.323  52.910  0.00  0.00    +0.000 NA
ATOM     27  C   UNL     1      27.075   1.829  52.297  0.00  0.00    +0.000 A 
ATOM     28  C   UNL     1      25.783   1.334  52.390  0.00  0.00    +0.000 A 
ATOM     29  C   UNL     1      24.661   1.875  51.730  0.00  0.00    +0.000 A 
BRANCH  27  30
ATOM     30  O   UNL     1      27.351   2.938  51.560  0.00  0.00    +0.000 OA
ATOM     31  H   UNL     1      26.910   3.744  51.743  0.00  0.00    +0.000 HD
ENDBRANCH  27  30
ENDBRANCH  18  19
ENDBRANCH   1  18
TORSDOF 9
ENDMDL
MODEL 6
REMARK VINA RESULT:    -7.690      2.736      3.767
REMARK INTER + INTRA:         -12.871
REMARK INTER:                 -11.611
REMARK INTRA:                  -1.260
REMARK UNBOUND:                -1.360
REMARK  Name = 
REMARK  11 active torsions:
REMARK  status: ('A' for Active; 'I' for Inactive)
REMARK    1  A    between atoms: C_2  and  C_3
REMARK    2  A    between atoms: C_3  and  N_4
REMARK    3  A    between atoms: N_4  and  C_5
REMARK    4  A    between atoms: N_4  and  C_18
REMARK    5  A    between atoms: C_5  and  C_6
REMARK    6  A    between atoms: C_11  and  C_12
REMARK    7  A    between atoms: C_14  and  O_15
REMARK    8  A    between atoms: C_21  and  C_22
REMARK    9  A    between atoms: N_24  and  C_25
REMARK   10  A    between atoms: C_25  and  C_26
REMARK   11  A    between atoms: C_26  and  C_27
REMARK                            x       y       z     vdW  Elec       q    Type
REMARK                         _______ _______ _______ _____ _____    ______ ____
ROOT
ATOM      1  N   UNL     1      23.422   4.248  49.266  0.00  0.00    +0.000 N 
ENDROOT
BRANCH   1   2
ATOM      2  C   UNL     1      24.715   4.740  49.133  0.00  0.00    +0.000 A 
ATOM      3  C   UNL     1      25.010   6.066  48.777  0.00  0.00    +0.000 A 
ATOM      4  C   UNL     1      26.329   6.509  48.543  0.00  0.00    +0.000 A 
ATOM      5  C   UNL     1      27.411   5.637  48.665  0.00  0.00    +0.000 A 
ATOM      6  C   UNL     1      27.156   4.347  49.115  0.00  0.00    +0.000 A 
ATOM      7  C   UNL     1      25.838   3.919  49.342  0.00  0.00    +0.000 A 
BRANCH   5   8
ATOM      8  C   UNL     1      28.777   6.104  48.260  0.00  0.00    +0.000 C 
ATOM      9  O   UNL     1      28.920   6.790  47.252  0.00  0.00    +0.000 OA
ATOM     10  N   UNL     1      29.839   5.679  49.034  0.00  0.00    +0.000 N 
ATOM     11  H   UNL     1      29.646   5.177  49.858  0.00  0.00    +0.000 HD
BRANCH  10  12
ATOM     12  C   UNL     1      31.222   5.937  48.690  0.00  0.00    +0.000 C 
BRANCH  12  13
ATOM     13  C   UNL     1      31.823   7.114  49.453  0.00  0.00    +0.000 C 
ATOM     14  C   UNL     1      31.721   8.433  48.700  0.00  0.00    +0.000 C 
ENDBRANCH  12  13
ENDBRANCH  10  12
ENDBRANCH   5   8
ENDBRANCH   1   2
BRANCH   1  15
ATOM     15  C   UNL     1      22.298   5.014  49.823  0.00  0.00    +0.000 C 
BRANCH  15  17
ATOM     16  C   UNL     1      20.309   5.305  47.840  0.00  0.00    +0.000 C 
ATOM     17  C   UNL     1      21.228   5.171  48.756  0.00  0.00    +0.000 C 
ENDBRANCH  15  17
ENDBRANCH   1  15
BRANCH   1  18
ATOM     18  C   UNL     1      23.080   2.880  48.839  0.00  0.00    +0.000 C 
BRANCH  18  19
ATOM     19  C   UNL     1      22.661   1.985  49.986  0.00  0.00    +0.000 A 
ATOM     20  C   UNL     1      21.413   1.357  50.053  0.00  0.00    +0.000 A 
ATOM     21  C   UNL     1      21.118   0.461  51.082  0.00  0.00    +0.000 A 
ATOM     22  C   UNL     1      22.032   0.194  52.088  0.00  0.00    +0.000 A 
ATOM     23  N   UNL     1      21.701  -0.671  53.056  0.00  0.00    +0.000 NA
ATOM     24  C   UNL     1      22.597  -0.878  54.037  0.00  0.00    +0.000 A 
ATOM     25  C   UNL     1      22.188  -1.822  55.121  0.00  0.00    +0.000 C 
ATOM     26  N   UNL     1      23.804  -0.298  54.119  0.00  0.00    +0.000 NA
ATOM     27  C   UNL     1      24.092   0.546  53.123  0.00  0.00    +0.000 A 
ATOM     28  C   UNL     1      23.260   0.851  52.056  0.00  0.00    +0.000 A 
ATOM     29  C   UNL     1      23.582   1.737  51.009  0.00  0.00    +0.000 A 
BRANCH  27  30
ATOM     30  O   UNL     1      25.311   1.133  53.254  0.00  0.00    +0.000 OA
ATOM     31  H   UNL     1      26.032   0.643  53.597  0.00  0.00    +0.000 HD
ENDBRANCH  27  30
ENDBRANCH  18  19
ENDBRANCH   1  18
TORSDOF 9
ENDMDL
MODEL 7
REMARK VINA RESULT:    -7.626      1.970      2.783
REMARK INTER + INTRA:         -12.776
REMARK INTER:                 -11.579
REMARK INTRA:                  -1.196
REMARK UNBOUND:                -1.360
REMARK  Name = 
REMARK  11 active torsions:
REMARK  status: ('A' for Active; 'I' for Inactive)
REMARK    1  A    between atoms: C_2  and  C_3
REMARK    2  A    between atoms: C_3  and  N_4
REMARK    3  A    between atoms: N_4  and  C_5
REMARK    4  A    between atoms: N_4  and  C_18
REMARK    5  A    between atoms: C_5  and  C_6
REMARK    6  A    between atoms: C_11  and  C_12
REMARK    7  A    between atoms: C_14  and  O_15
REMARK    8  A    between atoms: C_21  and  C_22
REMARK    9  A    between atoms: N_24  and  C_25
REMARK   10  A    between atoms: C_25  and  C_26
REMARK   11  A    between atoms: C_26  and  C_27
REMARK                            x       y       z     vdW  Elec       q    Type
REMARK                         _______ _______ _______ _____ _____    ______ ____
ROOT
ATOM      1  N   UNL     1      23.056   2.032  51.269  0.00  0.00    +0.000 N 
ENDROOT
BRANCH   1   2
ATOM      2  C   UNL     1      23.792   3.144  50.876  0.00  0.00    +0.000 A 
ATOM      3  C   UNL     1      23.517   4.451  51.307  0.00  0.00    +0.000 A 
ATOM      4  C   UNL     1      24.211   5.573  50.808  0.00  0.00    +0.000 A 
ATOM      5  C   UNL     1      25.220   5.427  49.856  0.00  0.00    +0.000 A 
ATOM      6  C   UNL     1      25.581   4.136  49.488  0.00  0.00    +0.000 A 
ATOM      7  C   UNL     1      24.880   3.029  49.991  0.00  0.00    +0.000 A 
BRANCH   5   8
ATOM      8  C   UNL     1      25.826   6.651  49.238  0.00  0.00    +0.000 C 
ATOM      9  O   UNL     1      25.124   7.436  48.608  0.00  0.00    +0.000 OA
ATOM     10  N   UNL     1      27.193   6.807  49.369  0.00  0.00    +0.000 N 
ATOM     11  H   UNL     1      27.684   6.168  49.934  0.00  0.00    +0.000 HD
BRANCH  10  12
ATOM     12  C   UNL     1      27.935   7.863  48.714  0.00  0.00    +0.000 C 
BRANCH  12  13
ATOM     13  C   UNL     1      28.922   7.347  47.670  0.00  0.00    +0.000 C 
ATOM     14  C   UNL     1      29.424   5.940  47.961  0.00  0.00    +0.000 C 
ENDBRANCH  12  13
ENDBRANCH  10  12
ENDBRANCH   5   8
ENDBRANCH   1   2
BRANCH   1  15
ATOM     15  C   UNL     1      22.064   1.355  50.423  0.00  0.00    +0.000 C 
BRANCH  15  17
ATOM     16  C   UNL     1      20.105   0.164  52.071  0.00  0.00    +0.000 C 
ATOM     17  C   UNL     1      21.010   0.714  51.311  0.00  0.00    +0.000 C 
ENDBRANCH  15  17
ENDBRANCH   1  15
BRANCH   1  18
ATOM     18  C   UNL     1      23.232   1.436  52.606  0.00  0.00    +0.000 C 
BRANCH  18  19
ATOM     19  C   UNL     1      24.681   1.170  52.952  0.00  0.00    +0.000 A 
ATOM     20  C   UNL     1      25.482   2.079  53.651  0.00  0.00    +0.000 A 
ATOM     21  C   UNL     1      26.781   1.742  54.034  0.00  0.00    +0.000 A 
ATOM     22  C   UNL     1      27.333   0.514  53.704  0.00  0.00    +0.000 A 
ATOM     23  N   UNL     1      28.584   0.237  54.092  0.00  0.00    +0.000 NA
ATOM     24  C   UNL     1      29.102  -0.947  53.721  0.00  0.00    +0.000 A 
ATOM     25  C   UNL     1      30.512  -1.216  54.138  0.00  0.00    +0.000 C 
ATOM     26  N   UNL     1      28.460  -1.883  53.005  0.00  0.00    +0.000 NA
ATOM     27  C   UNL     1      27.210  -1.565  52.655  0.00  0.00    +0.000 A 
ATOM     28  C   UNL     1      26.560  -0.380  52.967  0.00  0.00    +0.000 A 
ATOM     29  C   UNL     1      25.237  -0.062  52.597  0.00  0.00    +0.000 A 
BRANCH  27  30
ATOM     30  O   UNL     1      26.601  -2.525  51.909  0.00  0.00    +0.000 OA
ATOM     31  H   UNL     1      25.695  -2.440  51.686  0.00  0.00    +0.000 HD
ENDBRANCH  27  30
ENDBRANCH  18  19
ENDBRANCH   1  18
TORSDOF 9
ENDMDL
MODEL 8
REMARK VINA RESULT:    -7.611      2.956      4.143
REMARK INTER + INTRA:         -12.754
REMARK INTER:                 -11.604
REMARK INTRA:                  -1.150
REMARK UNBOUND:                -1.360
REMARK  Name = 
REMARK  11 active torsions:
REMARK  status: ('A' for Active; 'I' for Inactive)
REMARK    1  A    between atoms: C_2  and  C_3
REMARK    2  A    between atoms: C_3  and  N_4
REMARK    3  A    between atoms: N_4  and  C_5
REMARK    4  A    between atoms: N_4  and  C_18
REMARK    5  A    between atoms: C_5  and  C_6
REMARK    6  A    between atoms: C_11  and  C_12
REMARK    7  A    between atoms: C_14  and  O_15
REMARK    8  A    between atoms: C_21  and  C_22
REMARK    9  A    between atoms: N_24  and  C_25
REMARK   10  A    between atoms: C_25  and  C_26
REMARK   11  A    between atoms: C_26  and  C_27
REMARK                            x       y       z     vdW  Elec       q    Type
REMARK                         _______ _______ _______ _____ _____    ______ ____
ROOT
ATOM      1  N   UNL     1      23.951   4.503  49.730  0.00  0.00    +0.000 N 
ENDROOT
BRANCH   1   2
ATOM      2  C   UNL     1      25.189   4.906  49.243  0.00  0.00    +0.000 A 
ATOM      3  C   UNL     1      26.308   4.062  49.171  0.00  0.00    +0.000 A 
ATOM      4  C   UNL     1      27.580   4.527  48.776  0.00  0.00    +0.000 A 
ATOM      5  C   UNL     1      27.779   5.862  48.426  0.00  0.00    +0.000 A 
ATOM      6  C   UNL     1      26.666   6.695  48.392  0.00  0.00    +0.000 A 
ATOM      7  C   UNL     1      25.408   6.220  48.790  0.00  0.00    +0.000 A 
BRANCH   5   8
ATOM      8  C   UNL     1      29.171   6.350  48.161  0.00  0.00    +0.000 C 
ATOM      9  O   UNL     1      29.418   6.987  47.142  0.00  0.00    +0.000 OA
ATOM     10  N   UNL     1      30.143   5.999  49.079  0.00  0.00    +0.000 N 
ATOM     11  H   UNL     1      29.864   5.534  49.900  0.00  0.00    +0.000 HD
BRANCH  10  12
ATOM     12  C   UNL     1      31.550   6.281  48.888  0.00  0.00    +0.000 C 
BRANCH  12  13
ATOM     13  C   UNL     1      31.985   7.613  49.494  0.00  0.00    +0.000 C 
ATOM     14  C   UNL     1      32.090   8.734  48.469  0.00  0.00    +0.000 C 
ENDBRANCH  12  13
ENDBRANCH  10  12
ENDBRANCH   5   8
ENDBRANCH   1   2
BRANCH   1  15
ATOM     15  C   UNL     1      23.080   5.337  50.570  0.00  0.00    +0.000 C 
BRANCH  15  17
ATOM     16  C   UNL     1      23.735   4.910  53.283  0.00  0.00    +0.000 C 
ATOM     17  C   UNL     1      23.433   5.107  52.031  0.00  0.00    +0.000 C 
ENDBRANCH  15  17
ENDBRANCH   1  15
BRANCH   1  18
ATOM     18  C   UNL     1      23.408   3.168  49.420  0.00  0.00    +0.000 C 
BRANCH  18  19
ATOM     19  C   UNL     1      23.528   2.195  50.573  0.00  0.00    +0.000 A 
ATOM     20  C   UNL     1      24.733   1.934  51.234  0.00  0.00    +0.000 A 
ATOM     21  C   UNL     1      24.768   1.105  52.357  0.00  0.00    +0.000 A 
ATOM     22  C   UNL     1      23.622   0.486  52.830  0.00  0.00    +0.000 A 
ATOM     23  N   UNL     1      23.706  -0.303  53.910  0.00  0.00    +0.000 NA
ATOM     24  C   UNL     1      22.584  -0.918  54.318  0.00  0.00    +0.000 A 
ATOM     25  C   UNL     1      22.714  -1.819  55.504  0.00  0.00    +0.000 C 
ATOM     26  N   UNL     1      21.379  -0.796  53.741  0.00  0.00    +0.000 NA
ATOM     27  C   UNL     1      21.344   0.012  52.677  0.00  0.00    +0.000 A 
ATOM     28  C   UNL     1      22.426   0.702  52.150  0.00  0.00    +0.000 A 
ATOM     29  C   UNL     1      22.371   1.557  51.031  0.00  0.00    +0.000 A 
BRANCH  27  30
ATOM     30  O   UNL     1      20.114   0.091  52.104  0.00  0.00    +0.000 OA
ATOM     31  H   UNL     1      19.847  -0.552  51.476  0.00  0.00    +0.000 HD
ENDBRANCH  27  30
ENDBRANCH  18  19
ENDBRANCH   1  18
TORSDOF 9
ENDMDL
MODEL 9
REMARK VINA RESULT:    -7.467      4.001      7.793
REMARK INTER + INTRA:         -12.538
REMARK INTER:                 -11.465
REMARK INTRA:                  -1.073
REMARK UNBOUND:                -1.360
REMARK  Name = 
REMARK  11 active torsions:
REMARK  status: ('A' for Active; 'I' for Inactive)
REMARK    1  A    between atoms: C_2  and  C_3
REMARK    2  A    between atoms: C_3  and  N_4
REMARK    3  A    between atoms: N_4  and  C_5
REMARK    4  A    between atoms: N_4  and  C_18
REMARK    5  A    between atoms: C_5  and  C_6
REMARK    6  A    between atoms: C_11  and  C_12
REMARK    7  A    between atoms: C_14  and  O_15
REMARK    8  A    between atoms: C_21  and  C_22
REMARK    9  A    between atoms: N_24  and  C_25
REMARK   10  A    between atoms: C_25  and  C_26
REMARK   11  A    between atoms: C_26  and  C_27
REMARK                            x       y       z     vdW  Elec       q    Type
REMARK                         _______ _______ _______ _____ _____    ______ ____
ROOT
ATOM      1  N   UNL     1      21.053   1.856  51.746  0.00  0.00    +0.000 N 
ENDROOT
BRANCH   1   2
ATOM      2  C   UNL     1      22.272   1.448  52.272  0.00  0.00    +0.000 A 
ATOM      3  C   UNL     1      23.510   1.967  51.861  0.00  0.00    +0.000 A 
ATOM      4  C   UNL     1      24.738   1.457  52.333  0.00  0.00    +0.000 A 
ATOM      5  C   UNL     1      24.773   0.405  53.249  0.00  0.00    +0.000 A 
ATOM      6  C   UNL     1      23.561  -0.059  53.749  0.00  0.00    +0.000 A 
ATOM      7  C   UNL     1      22.348   0.456  53.267  0.00  0.00    +0.000 A 
BRANCH   5   8
ATOM      8  C   UNL     1      26.092  -0.209  53.608  0.00  0.00    +0.000 C 
ATOM      9  O   UNL     1      26.340  -1.368  53.290  0.00  0.00    +0.000 OA
ATOM     10  N   UNL     1      26.964   0.568  54.347  0.00  0.00    +0.000 N 
ATOM     11  H   UNL     1      26.722   1.507  54.519  0.00  0.00    +0.000 HD
BRANCH  10  12
ATOM     12  C   UNL     1      28.213   0.067  54.880  0.00  0.00    +0.000 C 
BRANCH  12  13
ATOM     13  C   UNL     1      29.386   0.226  53.917  0.00  0.00    +0.000 C 
ATOM     14  C   UNL     1      30.149  -1.070  53.680  0.00  0.00    +0.000 C 
ENDBRANCH  12  13
ENDBRANCH  10  12
ENDBRANCH   5   8
ENDBRANCH   1   2
BRANCH   1  15
ATOM     15  C   UNL     1      20.274   1.086  50.766  0.00  0.00    +0.000 C 
BRANCH  15  17
ATOM     16  C   UNL     1      18.274  -0.375  52.123  0.00  0.00    +0.000 C 
ATOM     17  C   UNL     1      19.197   0.299  51.496  0.00  0.00    +0.000 C 
ENDBRANCH  15  17
ENDBRANCH   1  15
BRANCH   1  18
ATOM     18  C   UNL     1      20.436   3.131  52.153  0.00  0.00    +0.000 C 
BRANCH  18  19
ATOM     19  C   UNL     1      20.815   4.289  51.254  0.00  0.00    +0.000 A 
ATOM     20  C   UNL     1      20.079   4.653  50.122  0.00  0.00    +0.000 A 
ATOM     21  C   UNL     1      20.414   5.792  49.387  0.00  0.00    +0.000 A 
ATOM     22  C   UNL     1      21.505   6.575  49.730  0.00  0.00    +0.000 A 
ATOM     23  N   UNL     1      21.788   7.657  48.993  0.00  0.00    +0.000 NA
ATOM     24  C   UNL     1      22.875   8.372  49.331  0.00  0.00    +0.000 A 
ATOM     25  C   UNL     1      23.187   9.553  48.471  0.00  0.00    +0.000 C 
ATOM     26  N   UNL     1      23.693   8.099  50.359  0.00  0.00    +0.000 NA
ATOM     27  C   UNL     1      23.360   7.019  51.072  0.00  0.00    +0.000 A 
ATOM     28  C   UNL     1      22.271   6.194  50.829  0.00  0.00    +0.000 A 
ATOM     29  C   UNL     1      21.928   5.062  51.596  0.00  0.00    +0.000 A 
BRANCH  27  30
ATOM     30  O   UNL     1      24.225   6.759  52.088  0.00  0.00    +0.000 OA
ATOM     31  H   UNL     1      24.221   5.919  52.503  0.00  0.00    +0.000 HD
ENDBRANCH  27  30
ENDBRANCH  18  19
ENDBRANCH   1  18
TORSDOF 9
ENDMDL
