MODEL 1
REMARK VINA RESULT:    -6.970      0.000      0.000
REMARK INTER + INTRA:         -11.987
REMARK INTER:                 -10.434
REMARK INTRA:                  -1.553
REMARK UNBOUND:                -1.553
REMARK  Name = 
REMARK  10 active torsions:
REMARK  status: ('A' for Active; 'I' for Inactive)
REMARK    1  A    between atoms: C_1  and  O_2
REMARK    2  A    between atoms: O_2  and  C_3
REMARK    3  A    between atoms: C_3  and  C_5
REMARK    4  A    between atoms: C_9  and  O_10
REMARK    5  A    between atoms: O_10  and  C_11
REMARK    6  A    between atoms: C_11  and  C_12
REMARK    7  A    between atoms: C_12  and  C_13
REMARK    8  A    between atoms: C_13  and  O_14
REMARK    9  A    between atoms: O_14  and  C_15
REMARK   10  A    between atoms: C_20  and  O_21
REMARK                            x       y       z     vdW  Elec       q    Type
REMARK                         _______ _______ _______ _____ _____    ______ ____
ROOT
ATOM      1  C   UNL     1      27.300   0.138  54.112  0.00  0.00    +0.000 C 
ENDROOT
BRANCH   1   2
ATOM      2  C   UNL     1      27.325   1.579  53.577  0.00  0.00    +0.000 C 
BRANCH   2   3
ATOM      3  O   UNL     1      26.081   2.260  53.850  0.00  0.00    +0.000 OA
BRANCH   3   8
ATOM      4  C   UNL     1      23.388   3.795  51.854  0.00  0.00    +0.000 A 
ATOM      5  C   UNL     1      23.847   3.565  50.550  0.00  0.00    +0.000 A 
ATOM      6  C   UNL     1      25.092   2.977  50.342  0.00  0.00    +0.000 A 
ATOM      7  C   UNL     1      25.865   2.573  51.429  0.00  0.00    +0.000 A 
ATOM      8  C   UNL     1      25.393   2.704  52.737  0.00  0.00    +0.000 A 
ATOM      9  C   UNL     1      24.162   3.355  52.949  0.00  0.00    +0.000 A 
BRANCH   4  10
ATOM     10  C   UNL     1      22.093   4.533  51.973  0.00  0.00    +0.000 C 
ATOM     11  O   UNL     1      21.958   5.703  51.669  0.00  0.00    +0.000 OA
BRANCH  10  13
ATOM     12  C   UNL     1      19.912   3.753  51.729  0.00  0.00    +0.000 C 
ATOM     13  O   UNL     1      21.118   3.737  52.490  0.00  0.00    +0.000 OA
ENDBRANCH  10  13
ENDBRANCH   4  10
ENDBRANCH   3   8
ENDBRANCH   2   3
ENDBRANCH   1   2
BRANCH   1  14
ATOM     14  C   UNL     1      26.184  -0.710  53.481  0.00  0.00    +0.000 C 
BRANCH  14  15
ATOM     15  O   UNL     1      25.122  -0.963  54.421  0.00  0.00    +0.000 OA
BRANCH  15  16
ATOM     16  C   UNL     1      23.831  -0.679  54.040  0.00  0.00    +0.000 A 
ATOM     17  C   UNL     1      23.478  -0.016  52.865  0.00  0.00    +0.000 A 
ATOM     18  C   UNL     1      22.131   0.145  52.598  0.00  0.00    +0.000 A 
ATOM     19  C   UNL     1      21.130  -0.250  53.479  0.00  0.00    +0.000 A 
ATOM     20  C   UNL     1      21.445  -0.920  54.641  0.00  0.00    +0.000 A 
ATOM     21  C   UNL     1      22.802  -1.158  54.892  0.00  0.00    +0.000 A 
ATOM     22  C   UNL     1      19.825   0.165  52.910  0.00  0.00    +0.000 C 
ATOM     23  C   UNL     1      20.263   0.155  51.447  0.00  0.00    +0.000 C 
ATOM     24  O   UNL     1      21.631   0.641  51.415  0.00  0.00    +0.000 OA
BRANCH  21  25
ATOM     25  O   UNL     1      23.104  -1.905  55.997  0.00  0.00    +0.000 OA
ATOM     26  H   UNL     1      23.957  -2.281  56.089  0.00  0.00    +0.000 HD
ENDBRANCH  21  25
ENDBRANCH  15  16
ENDBRANCH  14  15
ENDBRANCH   1  14
TORSDOF 9
ENDMDL
MODEL 2
REMARK VINA RESULT:    -6.808      2.047      5.457
REMARK INTER + INTRA:         -11.744
REMARK INTER:                 -10.434
REMARK INTRA:                  -1.310
REMARK UNBOUND:                -1.553
REMARK  Name = 
REMARK  10 active torsions:
REMARK  status: ('A' for Active; 'I' for Inactive)
REMARK    1  A    between atoms: C_1  and  O_2
REMARK    2  A    between atoms: O_2  and  C_3
REMARK    3  A    between atoms: C_3  and  C_5
REMARK    4  A    between atoms: C_9  and  O_10
REMARK    5  A    between atoms: O_10  and  C_11
REMARK    6  A    between atoms: C_11  and  C_12
REMARK    7  A    between atoms: C_12  and  C_13
REMARK    8  A    between atoms: C_13  and  O_14
REMARK    9  A    between atoms: O_14  and  C_15
REMARK   10  A    between atoms: C_20  and  O_21
REMARK                            x       y       z     vdW  Elec       q    Type
REMARK                         _______ _______ _______ _____ _____    ______ ____
ROOT
ATOM      1  C   UNL     1      21.991  -0.615  53.565  0.00  0.00    +0.000 C 
ENDROOT
BRANCH   1   2
ATOM      2  C   UNL     1      21.360   0.589  52.847  0.00  0.00    +0.000 C 
BRANCH   2   3
ATOM      3  O   UNL     1      20.989   0.255  51.492  0.00  0.00    +0.000 OA
BRANCH   3   8
ATOM      4  C   UNL     1      23.207   2.772  49.964  0.00  0.00    +0.000 A 
ATOM      5  C   UNL     1      22.890   2.631  48.607  0.00  0.00    +0.000 A 
ATOM      6  C   UNL     1      22.003   1.639  48.197  0.00  0.00    +0.000 A 
ATOM      7  C   UNL     1      21.392   0.814  49.140  0.00  0.00    +0.000 A 
ATOM      8  C   UNL     1      21.617   0.993  50.507  0.00  0.00    +0.000 A 
ATOM      9  C   UNL     1      22.562   1.955  50.916  0.00  0.00    +0.000 A 
BRANCH   4  10
ATOM     10  C   UNL     1      24.254   3.788  50.291  0.00  0.00    +0.000 C 
ATOM     11  O   UNL     1      24.226   4.481  51.290  0.00  0.00    +0.000 OA
BRANCH  10  13
ATOM     12  C   UNL     1      26.483   3.392  49.742  0.00  0.00    +0.000 C 
ATOM     13  O   UNL     1      25.201   3.852  49.316  0.00  0.00    +0.000 OA
ENDBRANCH  10  13
ENDBRANCH   4  10
ENDBRANCH   3   8
ENDBRANCH   2   3
ENDBRANCH   1   2
BRANCH   1  14
ATOM     14  C   UNL     1      23.509  -0.711  53.342  0.00  0.00    +0.000 C 
BRANCH  14  15
ATOM     15  O   UNL     1      24.150   0.564  53.545  0.00  0.00    +0.000 OA
BRANCH  15  16
ATOM     16  C   UNL     1      25.522   0.596  53.640  0.00  0.00    +0.000 A 
ATOM     17  C   UNL     1      26.340  -0.532  53.721  0.00  0.00    +0.000 A 
ATOM     18  C   UNL     1      27.708  -0.333  53.755  0.00  0.00    +0.000 A 
ATOM     19  C   UNL     1      28.290   0.929  53.795  0.00  0.00    +0.000 A 
ATOM     20  C   UNL     1      27.512   2.062  53.702  0.00  0.00    +0.000 A 
ATOM     21  C   UNL     1      26.128   1.878  53.591  0.00  0.00    +0.000 A 
ATOM     22  C   UNL     1      29.758   0.755  53.924  0.00  0.00    +0.000 C 
ATOM     23  C   UNL     1      29.827  -0.622  53.269  0.00  0.00    +0.000 C 
ATOM     24  O   UNL     1      28.638  -1.345  53.683  0.00  0.00    +0.000 OA
BRANCH  21  25
ATOM     25  O   UNL     1      25.369   3.001  53.404  0.00  0.00    +0.000 OA
ATOM     26  H   UNL     1      24.703   3.224  54.024  0.00  0.00    +0.000 HD
ENDBRANCH  21  25
ENDBRANCH  15  16
ENDBRANCH  14  15
ENDBRANCH   1  14
TORSDOF 9
ENDMDL
MODEL 3
REMARK VINA RESULT:    -6.757      1.812      5.070
REMARK INTER + INTRA:         -11.667
REMARK INTER:                  -9.653
REMARK INTRA:                  -2.014
REMARK UNBOUND:                -1.553
REMARK  Name = 
REMARK  10 active torsions:
REMARK  status: ('A' for Active; 'I' for Inactive)
REMARK    1  A    between atoms: C_1  and  O_2
REMARK    2  A    between atoms: O_2  and  C_3
REMARK    3  A    between atoms: C_3  and  C_5
REMARK    4  A    between atoms: C_9  and  O_10
REMARK    5  A    between atoms: O_10  and  C_11
REMARK    6  A    between atoms: C_11  and  C_12
REMARK    7  A    between atoms: C_12  and  C_13
REMARK    8  A    between atoms: C_13  and  O_14
REMARK    9  A    between atoms: O_14  and  C_15
REMARK   10  A    between atoms: C_20  and  O_21
REMARK                            x       y       z     vdW  Elec       q    Type
REMARK                         _______ _______ _______ _____ _____    ______ ____
ROOT
ATOM      1  C   UNL     1      22.874   2.529  48.458  0.00  0.00    +0.000 C 
ENDROOT
BRANCH   1   2
ATOM      2  C   UNL     1      23.372   3.824  49.118  0.00  0.00    +0.000 C 
BRANCH   2   3
ATOM      3  O   UNL     1      24.729   3.681  49.593  0.00  0.00    +0.000 OA
BRANCH   3   8
ATOM      4  C   UNL     1      25.857   1.579  52.404  0.00  0.00    +0.000 A 
ATOM      5  C   UNL     1      25.127   2.126  53.467  0.00  0.00    +0.000 A 
ATOM      6  C   UNL     1      24.328   3.248  53.261  0.00  0.00    +0.000 A 
ATOM      7  C   UNL     1      24.215   3.801  51.986  0.00  0.00    +0.000 A 
ATOM      8  C   UNL     1      24.857   3.221  50.890  0.00  0.00    +0.000 A 
ATOM      9  C   UNL     1      25.714   2.124  51.111  0.00  0.00    +0.000 A 
BRANCH   4  10
ATOM     10  C   UNL     1      26.771   0.447  52.750  0.00  0.00    +0.000 C 
ATOM     11  O   UNL     1      26.830  -0.586  52.111  0.00  0.00    +0.000 OA
BRANCH  10  13
ATOM     12  C   UNL     1      28.861   0.997  53.618  0.00  0.00    +0.000 C 
ATOM     13  O   UNL     1      27.486   0.717  53.875  0.00  0.00    +0.000 OA
ENDBRANCH  10  13
ENDBRANCH   4  10
ENDBRANCH   3   8
ENDBRANCH   2   3
ENDBRANCH   1   2
BRANCH   1  14
ATOM     14  C   UNL     1      21.515   2.066  49.010  0.00  0.00    +0.000 C 
BRANCH  14  15
ATOM     15  O   UNL     1      21.267   2.614  50.319  0.00  0.00    +0.000 OA
BRANCH  15  16
ATOM     16  C   UNL     1      21.357   1.775  51.406  0.00  0.00    +0.000 A 
ATOM     17  C   UNL     1      22.260   0.718  51.520  0.00  0.00    +0.000 A 
ATOM     18  C   UNL     1      22.263   0.001  52.702  0.00  0.00    +0.000 A 
ATOM     19  C   UNL     1      21.362   0.235  53.734  0.00  0.00    +0.000 A 
ATOM     20  C   UNL     1      20.468   1.280  53.659  0.00  0.00    +0.000 A 
ATOM     21  C   UNL     1      20.500   2.064  52.499  0.00  0.00    +0.000 A 
ATOM     22  C   UNL     1      21.598  -0.779  54.791  0.00  0.00    +0.000 C 
ATOM     23  C   UNL     1      23.067  -1.033  54.463  0.00  0.00    +0.000 C 
ATOM     24  O   UNL     1      23.192  -0.966  53.017  0.00  0.00    +0.000 OA
BRANCH  21  25
ATOM     25  O   UNL     1      19.677   3.157  52.469  0.00  0.00    +0.000 OA
ATOM     26  H   UNL     1      18.849   3.131  52.906  0.00  0.00    +0.000 HD
ENDBRANCH  21  25
ENDBRANCH  15  16
ENDBRANCH  14  15
ENDBRANCH   1  14
TORSDOF 9
ENDMDL
MODEL 4
REMARK VINA RESULT:    -6.666      3.292      7.867
REMARK INTER + INTRA:         -11.532
REMARK INTER:                 -10.314
REMARK INTRA:                  -1.218
REMARK UNBOUND:                -1.553
REMARK  Name = 
REMARK  10 active torsions:
REMARK  status: ('A' for Active; 'I' for Inactive)
REMARK    1  A    between atoms: C_1  and  O_2
REMARK    2  A    between atoms: O_2  and  C_3
REMARK    3  A    between atoms: C_3  and  C_5
REMARK    4  A    between atoms: C_9  and  O_10
REMARK    5  A    between atoms: O_10  and  C_11
REMARK    6  A    between atoms: C_11  and  C_12
REMARK    7  A    between atoms: C_12  and  C_13
REMARK    8  A    between atoms: C_13  and  O_14
REMARK    9  A    between atoms: O_14  and  C_15
REMARK   10  A    between atoms: C_20  and  O_21
REMARK                            x       y       z     vdW  Elec       q    Type
REMARK                         _______ _______ _______ _____ _____    ______ ____
ROOT
ATOM      1  C   UNL     1      23.798   4.357  52.129  0.00  0.00    +0.000 C 
ENDROOT
BRANCH   1   2
ATOM      2  C   UNL     1      23.096   2.993  52.047  0.00  0.00    +0.000 C 
BRANCH   2   3
ATOM      3  O   UNL     1      23.979   1.980  51.518  0.00  0.00    +0.000 OA
BRANCH   3   8
ATOM      4  C   UNL     1      26.705   0.644  53.610  0.00  0.00    +0.000 A 
ATOM      5  C   UNL     1      26.051  -0.393  54.286  0.00  0.00    +0.000 A 
ATOM      6  C   UNL     1      24.684  -0.588  54.107  0.00  0.00    +0.000 A 
ATOM      7  C   UNL     1      23.971   0.217  53.220  0.00  0.00    +0.000 A 
ATOM      8  C   UNL     1      24.616   1.198  52.462  0.00  0.00    +0.000 A 
ATOM      9  C   UNL     1      25.986   1.436  52.690  0.00  0.00    +0.000 A 
BRANCH   4  10
ATOM     10  C   UNL     1      28.147   0.844  53.954  0.00  0.00    +0.000 C 
ATOM     11  O   UNL     1      28.752   1.875  53.731  0.00  0.00    +0.000 OA
BRANCH  10  13
ATOM     12  C   UNL     1      29.806  -0.781  53.788  0.00  0.00    +0.000 C 
ATOM     13  O   UNL     1      28.682  -0.278  54.507  0.00  0.00    +0.000 OA
ENDBRANCH  10  13
ENDBRANCH   4  10
ENDBRANCH   3   8
ENDBRANCH   2   3
ENDBRANCH   1   2
BRANCH   1  14
ATOM     14  C   UNL     1      23.446   5.279  50.950  0.00  0.00    +0.000 C 
BRANCH  14  15
ATOM     15  O   UNL     1      23.962   4.761  49.708  0.00  0.00    +0.000 OA
BRANCH  15  16
ATOM     16  C   UNL     1      25.178   5.226  49.261  0.00  0.00    +0.000 A 
ATOM     17  C   UNL     1      25.435   6.544  48.887  0.00  0.00    +0.000 A 
ATOM     18  C   UNL     1      26.727   6.866  48.513  0.00  0.00    +0.000 A 
ATOM     19  C   UNL     1      27.745   5.925  48.417  0.00  0.00    +0.000 A 
ATOM     20  C   UNL     1      27.528   4.618  48.793  0.00  0.00    +0.000 A 
ATOM     21  C   UNL     1      26.244   4.290  49.246  0.00  0.00    +0.000 A 
ATOM     22  C   UNL     1      28.956   6.608  47.898  0.00  0.00    +0.000 C 
ATOM     23  C   UNL     1      28.600   8.002  48.408  0.00  0.00    +0.000 C 
ATOM     24  O   UNL     1      27.163   8.149  48.265  0.00  0.00    +0.000 OA
BRANCH  21  25
ATOM     25  O   UNL     1      26.059   3.015  49.707  0.00  0.00    +0.000 OA
ATOM     26  H   UNL     1      26.003   2.854  50.628  0.00  0.00    +0.000 HD
ENDBRANCH  21  25
ENDBRANCH  15  16
ENDBRANCH  14  15
ENDBRANCH   1  14
TORSDOF 9
ENDMDL
MODEL 5
REMARK VINA RESULT:    -6.592      1.734      5.438
REMARK INTER + INTRA:         -11.421
REMARK INTER:                 -10.151
REMARK INTRA:                  -1.271
REMARK UNBOUND:                -1.553
REMARK  Name = 
REMARK  10 active torsions:
REMARK  status: ('A' for Active; 'I' for Inactive)
REMARK    1  A    between atoms: C_1  and  O_2
REMARK    2  A    between atoms: O_2  and  C_3
REMARK    3  A    between atoms: C_3  and  C_5
REMARK    4  A    between atoms: C_9  and  O_10
REMARK    5  A    between atoms: O_10  and  C_11
REMARK    6  A    between atoms: C_11  and  C_12
REMARK    7  A    between atoms: C_12  and  C_13
REMARK    8  A    between atoms: C_13  and  O_14
REMARK    9  A    between atoms: O_14  and  C_15
REMARK   10  A    between atoms: C_20  and  O_21
REMARK                            x       y       z     vdW  Elec       q    Type
REMARK                         _______ _______ _______ _____ _____    ______ ____
ROOT
ATOM      1  C   UNL     1      27.221   0.355  52.796  0.00  0.00    +0.000 C 
ENDROOT
BRANCH   1   2
ATOM      2  C   UNL     1      26.000  -0.572  52.901  0.00  0.00    +0.000 C 
BRANCH   2   3
ATOM      3  O   UNL     1      25.194  -0.246  54.054  0.00  0.00    +0.000 OA
BRANCH   3   8
ATOM      4  C   UNL     1      21.837  -0.121  52.534  0.00  0.00    +0.000 A 
ATOM      5  C   UNL     1      21.062  -0.732  53.527  0.00  0.00    +0.000 A 
ATOM      6  C   UNL     1      21.672  -1.261  54.661  0.00  0.00    +0.000 A 
ATOM      7  C   UNL     1      23.051  -1.143  54.834  0.00  0.00    +0.000 A 
ATOM      8  C   UNL     1      23.836  -0.456  53.905  0.00  0.00    +0.000 A 
ATOM      9  C   UNL     1      23.227   0.023  52.728  0.00  0.00    +0.000 A 
BRANCH   4  10
ATOM     10  C   UNL     1      21.104   0.313  51.305  0.00  0.00    +0.000 C 
ATOM     11  O   UNL     1      19.893   0.285  51.202  0.00  0.00    +0.000 OA
BRANCH  10  13
ATOM     12  C   UNL     1      21.317   1.063  49.110  0.00  0.00    +0.000 C 
ATOM     13  O   UNL     1      21.967   0.702  50.327  0.00  0.00    +0.000 OA
ENDBRANCH  10  13
ENDBRANCH   4  10
ENDBRANCH   3   8
ENDBRANCH   2   3
ENDBRANCH   1   2
BRANCH   1  14
ATOM     14  C   UNL     1      26.833   1.828  52.589  0.00  0.00    +0.000 C 
BRANCH  14  15
ATOM     15  O   UNL     1      26.847   2.182  51.192  0.00  0.00    +0.000 OA
BRANCH  15  16
ATOM     16  C   UNL     1      25.854   3.008  50.718  0.00  0.00    +0.000 A 
ATOM     17  C   UNL     1      24.509   2.920  51.078  0.00  0.00    +0.000 A 
ATOM     18  C   UNL     1      23.641   3.861  50.556  0.00  0.00    +0.000 A 
ATOM     19  C   UNL     1      24.033   4.827  49.636  0.00  0.00    +0.000 A 
ATOM     20  C   UNL     1      25.356   4.950  49.271  0.00  0.00    +0.000 A 
ATOM     21  C   UNL     1      26.262   4.052  49.848  0.00  0.00    +0.000 A 
ATOM     22  C   UNL     1      22.829   5.591  49.228  0.00  0.00    +0.000 C 
ATOM     23  C   UNL     1      22.029   5.348  50.505  0.00  0.00    +0.000 C 
ATOM     24  O   UNL     1      22.324   3.993  50.935  0.00  0.00    +0.000 OA
BRANCH  21  25
ATOM     25  O   UNL     1      27.586   4.237  49.556  0.00  0.00    +0.000 OA
ATOM     26  H   UNL     1      28.241   3.777  50.042  0.00  0.00    +0.000 HD
ENDBRANCH  21  25
ENDBRANCH  15  16
ENDBRANCH  14  15
ENDBRANCH   1  14
TORSDOF 9
ENDMDL
MODEL 6
REMARK VINA RESULT:    -6.570      3.050      5.678
REMARK INTER + INTRA:         -11.388
REMARK INTER:                 -10.395
REMARK INTRA:                  -0.993
REMARK UNBOUND:                -1.553
REMARK  Name = 
REMARK  10 active torsions:
REMARK  status: ('A' for Active; 'I' for Inactive)
REMARK    1  A    between atoms: C_1  and  O_2
REMARK    2  A    between atoms: O_2  and  C_3
REMARK    3  A    between atoms: C_3  and  C_5
REMARK    4  A    between atoms: C_9  and  O_10
REMARK    5  A    between atoms: O_10  and  C_11
REMARK    6  A    between atoms: C_11  and  C_12
REMARK    7  A    between atoms: C_12  and  C_13
REMARK    8  A    between atoms: C_13  and  O_14
REMARK    9  A    between atoms: O_14  and  C_15
REMARK   10  A    between atoms: C_20  and  O_21
REMARK                            x       y       z     vdW  Elec       q    Type
REMARK                         _______ _______ _______ _____ _____    ______ ____
ROOT
ATOM      1  C   UNL     1      22.673   3.689  51.925  0.00  0.00    +0.000 C 
ENDROOT
BRANCH   1   2
ATOM      2  C   UNL     1      22.855   3.140  50.502  0.00  0.00    +0.000 C 
BRANCH   2   3
ATOM      3  O   UNL     1      23.178   4.196  49.571  0.00  0.00    +0.000 OA
BRANCH   3   8
ATOM      4  C   UNL     1      26.285   6.017  48.783  0.00  0.00    +0.000 A 
ATOM      5  C   UNL     1      27.233   4.988  48.854  0.00  0.00    +0.000 A 
ATOM      6  C   UNL     1      26.846   3.709  49.248  0.00  0.00    +0.000 A 
ATOM      7  C   UNL     1      25.508   3.438  49.528  0.00  0.00    +0.000 A 
ATOM      8  C   UNL     1      24.527   4.421  49.376  0.00  0.00    +0.000 A 
ATOM      9  C   UNL     1      24.928   5.729  49.038  0.00  0.00    +0.000 A 
BRANCH   4  10
ATOM     10  C   UNL     1      26.817   7.377  48.461  0.00  0.00    +0.000 C 
ATOM     11  O   UNL     1      26.970   7.784  47.325  0.00  0.00    +0.000 OA
BRANCH  10  13
ATOM     12  C   UNL     1      26.410   9.288  49.729  0.00  0.00    +0.000 C 
ATOM     13  O   UNL     1      27.131   8.064  49.592  0.00  0.00    +0.000 OA
ENDBRANCH  10  13
ENDBRANCH   4  10
ENDBRANCH   3   8
ENDBRANCH   2   3
ENDBRANCH   1   2
BRANCH   1  14
ATOM     14  C   UNL     1      23.867   3.374  52.841  0.00  0.00    +0.000 C 
BRANCH  14  15
ATOM     15  O   UNL     1      23.872   1.988  53.237  0.00  0.00    +0.000 OA
BRANCH  15  16
ATOM     16  C   UNL     1      25.070   1.310  53.226  0.00  0.00    +0.000 A 
ATOM     17  C   UNL     1      26.325   1.914  53.301  0.00  0.00    +0.000 A 
ATOM     18  C   UNL     1      27.434   1.089  53.334  0.00  0.00    +0.000 A 
ATOM     19  C   UNL     1      27.354  -0.294  53.215  0.00  0.00    +0.000 A 
ATOM     20  C   UNL     1      26.130  -0.922  53.155  0.00  0.00    +0.000 A 
ATOM     21  C   UNL     1      24.992  -0.106  53.195  0.00  0.00    +0.000 A 
ATOM     22  C   UNL     1      28.736  -0.835  53.195  0.00  0.00    +0.000 C 
ATOM     23  C   UNL     1      29.380   0.307  53.977  0.00  0.00    +0.000 C 
ATOM     24  O   UNL     1      28.719   1.530  53.557  0.00  0.00    +0.000 OA
BRANCH  21  25
ATOM     25  O   UNL     1      23.780  -0.739  53.230  0.00  0.00    +0.000 OA
ATOM     26  H   UNL     1      23.025  -0.287  53.551  0.00  0.00    +0.000 HD
ENDBRANCH  21  25
ENDBRANCH  15  16
ENDBRANCH  14  15
ENDBRANCH   1  14
TORSDOF 9
ENDMDL
MODEL 7
REMARK VINA RESULT:    -6.566      1.615      5.194
REMARK INTER + INTRA:         -11.382
REMARK INTER:                  -9.505
REMARK INTRA:                  -1.877
REMARK UNBOUND:                -1.553
REMARK  Name = 
REMARK  10 active torsions:
REMARK  status: ('A' for Active; 'I' for Inactive)
REMARK    1  A    between atoms: C_1  and  O_2
REMARK    2  A    between atoms: O_2  and  C_3
REMARK    3  A    between atoms: C_3  and  C_5
REMARK    4  A    between atoms: C_9  and  O_10
REMARK    5  A    between atoms: O_10  and  C_11
REMARK    6  A    between atoms: C_11  and  C_12
REMARK    7  A    between atoms: C_12  and  C_13
REMARK    8  A    between atoms: C_13  and  O_14
REMARK    9  A    between atoms: O_14  and  C_15
REMARK   10  A    between atoms: C_20  and  O_21
REMARK                            x       y       z     vdW  Elec       q    Type
REMARK                         _______ _______ _______ _____ _____    ______ ____
ROOT
ATOM      1  C   UNL     1      21.820   5.123  51.613  0.00  0.00    +0.000 C 
ENDROOT
BRANCH   1   2
ATOM      2  C   UNL     1      23.315   4.998  51.946  0.00  0.00    +0.000 C 
BRANCH   2   3
ATOM      3  O   UNL     1      23.553   3.935  52.894  0.00  0.00    +0.000 OA
BRANCH   3   8
ATOM      4  C   UNL     1      25.899   1.104  53.171  0.00  0.00    +0.000 A 
ATOM      5  C   UNL     1      26.525   1.142  51.919  0.00  0.00    +0.000 A 
ATOM      6  C   UNL     1      26.103   2.054  50.955  0.00  0.00    +0.000 A 
ATOM      7  C   UNL     1      25.089   2.964  51.249  0.00  0.00    +0.000 A 
ATOM      8  C   UNL     1      24.512   3.012  52.520  0.00  0.00    +0.000 A 
ATOM      9  C   UNL     1      24.895   2.048  53.474  0.00  0.00    +0.000 A 
BRANCH   4  10
ATOM     10  C   UNL     1      26.346   0.017  54.095  0.00  0.00    +0.000 C 
ATOM     11  O   UNL     1      25.667  -0.403  55.013  0.00  0.00    +0.000 OA
BRANCH  10  13
ATOM     12  C   UNL     1      28.576  -0.022  54.765  0.00  0.00    +0.000 C 
ATOM     13  O   UNL     1      27.604  -0.402  53.792  0.00  0.00    +0.000 OA
ENDBRANCH  10  13
ENDBRANCH   4  10
ENDBRANCH   3   8
ENDBRANCH   2   3
ENDBRANCH   1   2
BRANCH   1  14
ATOM     14  C   UNL     1      21.413   4.286  50.389  0.00  0.00    +0.000 C 
BRANCH  14  15
ATOM     15  O   UNL     1      20.486   3.244  50.751  0.00  0.00    +0.000 OA
BRANCH  15  16
ATOM     16  C   UNL     1      20.955   2.178  51.484  0.00  0.00    +0.000 A 
ATOM     17  C   UNL     1      20.643   1.935  52.821  0.00  0.00    +0.000 A 
ATOM     18  C   UNL     1      21.152   0.787  53.402  0.00  0.00    +0.000 A 
ATOM     19  C   UNL     1      22.016  -0.078  52.741  0.00  0.00    +0.000 A 
ATOM     20  C   UNL     1      22.332   0.126  51.416  0.00  0.00    +0.000 A 
ATOM     21  C   UNL     1      21.766   1.243  50.790  0.00  0.00    +0.000 A 
ATOM     22  C   UNL     1      22.429  -1.135  53.696  0.00  0.00    +0.000 C 
ATOM     23  C   UNL     1      21.190  -1.060  54.584  0.00  0.00    +0.000 C 
ATOM     24  O   UNL     1      20.809   0.339  54.658  0.00  0.00    +0.000 OA
BRANCH  21  25
ATOM     25  O   UNL     1      22.007   1.389  49.451  0.00  0.00    +0.000 OA
ATOM     26  H   UNL     1      22.269   0.650  48.939  0.00  0.00    +0.000 HD
ENDBRANCH  21  25
ENDBRANCH  15  16
ENDBRANCH  14  15
ENDBRANCH   1  14
TORSDOF 9
ENDMDL
MODEL 8
REMARK VINA RESULT:    -6.555      2.261      7.114
REMARK INTER + INTRA:         -11.365
REMARK INTER:                 -10.105
REMARK INTRA:                  -1.260
REMARK UNBOUND:                -1.553
REMARK  Name = 
REMARK  10 active torsions:
REMARK  status: ('A' for Active; 'I' for Inactive)
REMARK    1  A    between atoms: C_1  and  O_2
REMARK    2  A    between atoms: O_2  and  C_3
REMARK    3  A    between atoms: C_3  and  C_5
REMARK    4  A    between atoms: C_9  and  O_10
REMARK    5  A    between atoms: O_10  and  C_11
REMARK    6  A    between atoms: C_11  and  C_12
REMARK    7  A    between atoms: C_12  and  C_13
REMARK    8  A    between atoms: C_13  and  O_14
REMARK    9  A    between atoms: O_14  and  C_15
REMARK   10  A    between atoms: C_20  and  O_21
REMARK                            x       y       z     vdW  Elec       q    Type
REMARK                         _______ _______ _______ _____ _____    ______ ____
ROOT
ATOM      1  C   UNL     1      21.217   3.871  52.238  0.00  0.00    +0.000 C 
ENDROOT
BRANCH   1   2
ATOM      2  C   UNL     1      20.250   2.690  52.058  0.00  0.00    +0.000 C 
BRANCH   2   3
ATOM      3  O   UNL     1      20.950   1.499  51.639  0.00  0.00    +0.000 OA
BRANCH   3   8
ATOM      4  C   UNL     1      23.501  -0.233  53.661  0.00  0.00    +0.000 A 
ATOM      5  C   UNL     1      22.705  -0.866  54.624  0.00  0.00    +0.000 A 
ATOM      6  C   UNL     1      21.331  -0.644  54.650  0.00  0.00    +0.000 A 
ATOM      7  C   UNL     1      20.736   0.171  53.688  0.00  0.00    +0.000 A 
ATOM      8  C   UNL     1      21.491   0.739  52.660  0.00  0.00    +0.000 A 
ATOM      9  C   UNL     1      22.889   0.565  52.672  0.00  0.00    +0.000 A 
BRANCH   4  10
ATOM     10  C   UNL     1      24.975  -0.445  53.787  0.00  0.00    +0.000 C 
ATOM     11  O   UNL     1      25.517  -0.792  54.819  0.00  0.00    +0.000 OA
BRANCH  10  13
ATOM     12  C   UNL     1      26.854  -0.859  52.474  0.00  0.00    +0.000 C 
ATOM     13  O   UNL     1      25.615  -0.166  52.619  0.00  0.00    +0.000 OA
ENDBRANCH  10  13
ENDBRANCH   4  10
ENDBRANCH   3   8
ENDBRANCH   2   3
ENDBRANCH   1   2
BRANCH   1  14
ATOM     14  C   UNL     1      22.218   4.000  51.079  0.00  0.00    +0.000 C 
BRANCH  14  15
ATOM     15  O   UNL     1      23.576   3.854  51.540  0.00  0.00    +0.000 OA
BRANCH  15  16
ATOM     16  C   UNL     1      24.592   4.310  50.732  0.00  0.00    +0.000 A 
ATOM     17  C   UNL     1      24.666   5.597  50.199  0.00  0.00    +0.000 A 
ATOM     18  C   UNL     1      25.783   5.919  49.450  0.00  0.00    +0.000 A 
ATOM     19  C   UNL     1      26.781   5.001  49.143  0.00  0.00    +0.000 A 
ATOM     20  C   UNL     1      26.745   3.727  49.666  0.00  0.00    +0.000 A 
ATOM     21  C   UNL     1      25.658   3.406  50.488  0.00  0.00    +0.000 A 
ATOM     22  C   UNL     1      27.761   5.668  48.250  0.00  0.00    +0.000 C 
ATOM     23  C   UNL     1      27.491   7.092  48.730  0.00  0.00    +0.000 C 
ATOM     24  O   UNL     1      26.066   7.186  48.990  0.00  0.00    +0.000 OA
BRANCH  21  25
ATOM     25  O   UNL     1      25.675   2.173  51.080  0.00  0.00    +0.000 OA
ATOM     26  H   UNL     1      25.897   1.415  50.577  0.00  0.00    +0.000 HD
ENDBRANCH  21  25
ENDBRANCH  15  16
ENDBRANCH  14  15
ENDBRANCH   1  14
TORSDOF 9
ENDMDL
MODEL 9
REMARK VINA RESULT:    -6.389      3.914      6.598
REMARK INTER + INTRA:         -11.117
REMARK INTER:                 -10.409
REMARK INTRA:                  -0.707
REMARK UNBOUND:                -1.553
REMARK  Name = 
REMARK  10 active torsions:
REMARK  status: ('A' for Active; 'I' for Inactive)
REMARK    1  A    between atoms: C_1  and  O_2
REMARK    2  A    between atoms: O_2  and  C_3
REMARK    3  A    between atoms: C_3  and  C_5
REMARK    4  A    between atoms: C_9  and  O_10
REMARK    5  A    between atoms: O_10  and  C_11
REMARK    6  A    between atoms: C_11  and  C_12
REMARK    7  A    between atoms: C_12  and  C_13
REMARK    8  A    between atoms: C_13  and  O_14
REMARK    9  A    between atoms: O_14  and  C_15
REMARK   10  A    between atoms: C_20  and  O_21
REMARK                            x       y       z     vdW  Elec       q    Type
REMARK                         _______ _______ _______ _____ _____    ______ ____
ROOT
ATOM      1  C   UNL     1      24.213   4.156  51.763  0.00  0.00    +0.000 C 
ENDROOT
BRANCH   1   2
ATOM      2  C   UNL     1      24.095   4.584  50.292  0.00  0.00    +0.000 C 
BRANCH   2   3
ATOM      3  O   UNL     1      25.227   4.127  49.521  0.00  0.00    +0.000 OA
BRANCH   3   8
ATOM      4  C   UNL     1      28.262   5.874  48.368  0.00  0.00    +0.000 A 
ATOM      5  C   UNL     1      27.735   7.111  47.975  0.00  0.00    +0.000 A 
ATOM      6  C   UNL     1      26.361   7.328  48.014  0.00  0.00    +0.000 A 
ATOM      7  C   UNL     1      25.508   6.332  48.489  0.00  0.00    +0.000 A 
ATOM      8  C   UNL     1      26.014   5.124  48.975  0.00  0.00    +0.000 A 
ATOM      9  C   UNL     1      27.398   4.882  48.876  0.00  0.00    +0.000 A 
BRANCH   4  10
ATOM     10  C   UNL     1      29.736   5.700  48.182  0.00  0.00    +0.000 C 
ATOM     11  O   UNL     1      30.233   4.733  47.638  0.00  0.00    +0.000 OA
BRANCH  10  13
ATOM     12  C   UNL     1      31.821   6.472  48.875  0.00  0.00    +0.000 C 
ATOM     13  O   UNL     1      30.427   6.737  48.728  0.00  0.00    +0.000 OA
ENDBRANCH  10  13
ENDBRANCH   4  10
ENDBRANCH   3   8
ENDBRANCH   2   3
ENDBRANCH   1   2
BRANCH   1  14
ATOM     14  C   UNL     1      23.807   2.690  51.989  0.00  0.00    +0.000 C 
BRANCH  14  15
ATOM     15  O   UNL     1      24.300   2.198  53.251  0.00  0.00    +0.000 OA
BRANCH  15  16
ATOM     16  C   UNL     1      25.405   1.378  53.245  0.00  0.00    +0.000 A 
ATOM     17  C   UNL     1      26.726   1.824  53.264  0.00  0.00    +0.000 A 
ATOM     18  C   UNL     1      27.726   0.870  53.312  0.00  0.00    +0.000 A 
ATOM     19  C   UNL     1      27.474  -0.496  53.259  0.00  0.00    +0.000 A 
ATOM     20  C   UNL     1      26.181  -0.970  53.254  0.00  0.00    +0.000 A 
ATOM     21  C   UNL     1      25.153  -0.018  53.281  0.00  0.00    +0.000 A 
ATOM     22  C   UNL     1      28.777  -1.204  53.233  0.00  0.00    +0.000 C 
ATOM     23  C   UNL     1      29.578  -0.118  53.947  0.00  0.00    +0.000 C 
ATOM     24  O   UNL     1      29.061   1.158  53.486  0.00  0.00    +0.000 OA
BRANCH  21  25
ATOM     25  O   UNL     1      23.873  -0.494  53.371  0.00  0.00    +0.000 OA
ATOM     26  H   UNL     1      23.616  -1.243  52.871  0.00  0.00    +0.000 HD
ENDBRANCH  21  25
ENDBRANCH  15  16
ENDBRANCH  14  15
ENDBRANCH   1  14
TORSDOF 9
ENDMDL
