MODEL 1
REMARK VINA RESULT:    -8.977      0.000      0.000
REMARK INTER + INTRA:         -12.450
REMARK INTER:                 -11.601
REMARK INTRA:                  -0.849
REMARK UNBOUND:                -0.849
REMARK  Name = 
REMARK  6 active torsions:
REMARK  status: ('A' for Active; 'I' for Inactive)
REMARK    1  A    between atoms: C_1  and  N_2
REMARK    2  A    between atoms: N_11  and  C_12
REMARK    3  A    between atoms: C_12  and  C_13
REMARK    4  A    between atoms: C_17  and  O_18
REMARK    5  A    between atoms: O_18  and  C_19
REMARK    6  A    between atoms: C_19  and  C_20
REMARK                            x       y       z     vdW  Elec       q    Type
REMARK                         _______ _______ _______ _____ _____    ______ ____
ROOT
ATOM      1  C   UNL     1      21.929   0.843  52.585  0.00  0.00    +0.000 A 
ATOM      2  C   UNL     1      20.992   0.380  53.517  0.00  0.00    +0.000 A 
ATOM      3  C   UNL     1      21.383  -0.472  54.548  0.00  0.00    +0.000 A 
ATOM      4  C   UNL     1      22.717  -0.872  54.665  0.00  0.00    +0.000 A 
ATOM      5  C   UNL     1      23.665  -0.426  53.744  0.00  0.00    +0.000 A 
ATOM      6  C   UNL     1      23.262   0.409  52.696  0.00  0.00    +0.000 A 
ENDROOT
BRANCH   1   7
ATOM      7  C   UNL     1      21.512   1.806  51.501  0.00  0.00    +0.000 C 
BRANCH   7  18
ATOM      8  C   UNL     1      25.580   7.668  50.285  0.00  0.00    +0.000 C 
ATOM      9  N   UNL     1      24.891   6.803  51.215  0.00  0.00    +0.000 N 
ATOM     10  C   UNL     1      24.571   5.509  50.809  0.00  0.00    +0.000 A 
ATOM     11  N   UNL     1      25.336   4.847  49.900  0.00  0.00    +0.000 NA
ATOM     12  C   UNL     1      25.014   3.575  49.579  0.00  0.00    +0.000 A 
ATOM     13  N   UNL     1      23.996   2.823  50.046  0.00  0.00    +0.000 NA
ATOM     14  C   UNL     1      23.265   3.515  50.934  0.00  0.00    +0.000 A 
ATOM     15  C   UNL     1      23.465   4.823  51.350  0.00  0.00    +0.000 A 
ATOM     16  N   UNL     1      22.481   5.210  52.240  0.00  0.00    +0.000 NA
ATOM     17  C   UNL     1      21.710   4.151  52.370  0.00  0.00    +0.000 A 
ATOM     18  N   UNL     1      22.161   3.094  51.624  0.00  0.00    +0.000 N 
ATOM     19  H   UNL     1      24.654   7.120  52.116  0.00  0.00    +0.000 HD
ENDBRANCH   7  18
ENDBRANCH   1   7
BRANCH   5  20
ATOM     20  O   UNL     1      24.993  -0.768  53.749  0.00  0.00    +0.000 OA
BRANCH  20  21
ATOM     21  C   UNL     1      25.798  -0.126  52.755  0.00  0.00    +0.000 C 
BRANCH  21  22
ATOM     22  C   UNL     1      27.272  -0.390  52.984  0.00  0.00    +0.000 A 
ATOM     23  C   UNL     1      28.117   0.660  53.376  0.00  0.00    +0.000 A 
ATOM     24  C   UNL     1      29.455   0.417  53.697  0.00  0.00    +0.000 A 
ATOM     25  C   UNL     1      29.962  -0.879  53.635  0.00  0.00    +0.000 A 
ATOM     26  C   UNL     1      29.135  -1.930  53.247  0.00  0.00    +0.000 A 
ATOM     27  C   UNL     1      27.797  -1.689  52.928  0.00  0.00    +0.000 A 
ENDBRANCH  21  22
ENDBRANCH  20  21
ENDBRANCH   5  20
TORSDOF 5
ENDMDL
MODEL 2
REMARK VINA RESULT:    -8.624      3.076      6.365
REMARK INTER + INTRA:         -11.994
REMARK INTER:                 -10.948
REMARK INTRA:                  -1.046
REMARK UNBOUND:                -0.849
REMARK  Name = 
REMARK  6 active torsions:
REMARK  status: ('A' for Active; 'I' for Inactive)
REMARK    1  A    between atoms: C_1  and  N_2
REMARK    2  A    between atoms: N_11  and  C_12
REMARK    3  A    between atoms: C_12  and  C_13
REMARK    4  A    between atoms: C_17  and  O_18
REMARK    5  A    between atoms: O_18  and  C_19
REMARK    6  A    between atoms: C_19  and  C_20
REMARK                            x       y       z     vdW  Elec       q    Type
REMARK                         _______ _______ _______ _____ _____    ______ ____
ROOT
ATOM      1  C   UNL     1      22.684   1.610  51.627  0.00  0.00    +0.000 A 
ATOM      2  C   UNL     1      21.678   0.742  51.185  0.00  0.00    +0.000 A 
ATOM      3  C   UNL     1      21.238   0.785  49.863  0.00  0.00    +0.000 A 
ATOM      4  C   UNL     1      21.799   1.695  48.962  0.00  0.00    +0.000 A 
ATOM      5  C   UNL     1      22.798   2.571  49.384  0.00  0.00    +0.000 A 
ATOM      6  C   UNL     1      23.219   2.541  50.719  0.00  0.00    +0.000 A 
ENDROOT
BRANCH   1   7
ATOM      7  C   UNL     1      23.193   1.525  53.044  0.00  0.00    +0.000 C 
BRANCH   7  18
ATOM      8  C   UNL     1      29.897  -1.069  53.899  0.00  0.00    +0.000 C 
ATOM      9  N   UNL     1      28.550  -1.240  53.403  0.00  0.00    +0.000 N 
ATOM     10  C   UNL     1      27.760  -0.108  53.217  0.00  0.00    +0.000 A 
ATOM     11  N   UNL     1      28.315   1.095  52.908  0.00  0.00    +0.000 NA
ATOM     12  C   UNL     1      27.503   2.150  52.685  0.00  0.00    +0.000 A 
ATOM     13  N   UNL     1      26.155   2.196  52.726  0.00  0.00    +0.000 NA
ATOM     14  C   UNL     1      25.650   0.992  53.040  0.00  0.00    +0.000 A 
ATOM     15  C   UNL     1      26.355  -0.171  53.306  0.00  0.00    +0.000 A 
ATOM     16  N   UNL     1      25.495  -1.201  53.638  0.00  0.00    +0.000 NA
ATOM     17  C   UNL     1      24.291  -0.672  53.559  0.00  0.00    +0.000 A 
ATOM     18  N   UNL     1      24.334   0.642  53.171  0.00  0.00    +0.000 N 
ATOM     19  H   UNL     1      28.200  -2.137  53.200  0.00  0.00    +0.000 HD
ENDBRANCH   7  18
ENDBRANCH   1   7
BRANCH   5  20
ATOM     20  O   UNL     1      23.405   3.516  48.596  0.00  0.00    +0.000 OA
BRANCH  20  21
ATOM     21  C   UNL     1      23.705   4.757  49.243  0.00  0.00    +0.000 C 
BRANCH  21  22
ATOM     22  C   UNL     1      25.151   5.155  49.027  0.00  0.00    +0.000 A 
ATOM     23  C   UNL     1      26.170   4.207  49.206  0.00  0.00    +0.000 A 
ATOM     24  C   UNL     1      27.498   4.522  48.908  0.00  0.00    +0.000 A 
ATOM     25  C   UNL     1      27.822   5.786  48.421  0.00  0.00    +0.000 A 
ATOM     26  C   UNL     1      26.821   6.737  48.239  0.00  0.00    +0.000 A 
ATOM     27  C   UNL     1      25.492   6.422  48.535  0.00  0.00    +0.000 A 
ENDBRANCH  21  22
ENDBRANCH  20  21
ENDBRANCH   5  20
TORSDOF 5
ENDMDL
MODEL 3
REMARK VINA RESULT:    -8.112      1.696      3.017
REMARK INTER + INTRA:         -11.333
REMARK INTER:                 -10.887
REMARK INTRA:                  -0.446
REMARK UNBOUND:                -0.849
REMARK  Name = 
REMARK  6 active torsions:
REMARK  status: ('A' for Active; 'I' for Inactive)
REMARK    1  A    between atoms: C_1  and  N_2
REMARK    2  A    between atoms: N_11  and  C_12
REMARK    3  A    between atoms: C_12  and  C_13
REMARK    4  A    between atoms: C_17  and  O_18
REMARK    5  A    between atoms: O_18  and  C_19
REMARK    6  A    between atoms: C_19  and  C_20
REMARK                            x       y       z     vdW  Elec       q    Type
REMARK                         _______ _______ _______ _____ _____    ______ ____
ROOT
ATOM      1  C   UNL     1      23.821   2.302  51.028  0.00  0.00    +0.000 A 
ATOM      2  C   UNL     1      22.824   1.400  51.420  0.00  0.00    +0.000 A 
ATOM      3  C   UNL     1      22.953   0.676  52.604  0.00  0.00    +0.000 A 
ATOM      4  C   UNL     1      24.078   0.845  53.415  0.00  0.00    +0.000 A 
ATOM      5  C   UNL     1      25.084   1.735  53.040  0.00  0.00    +0.000 A 
ATOM      6  C   UNL     1      24.963   2.440  51.837  0.00  0.00    +0.000 A 
ENDROOT
BRANCH   1   7
ATOM      7  C   UNL     1      23.654   3.122  49.772  0.00  0.00    +0.000 C 
BRANCH   7  18
ATOM      8  C   UNL     1      27.459   9.244  50.428  0.00  0.00    +0.000 C 
ATOM      9  N   UNL     1      27.126   8.062  49.667  0.00  0.00    +0.000 N 
ATOM     10  C   UNL     1      25.930   7.404  49.948  0.00  0.00    +0.000 A 
ATOM     11  N   UNL     1      24.849   8.080  50.420  0.00  0.00    +0.000 NA
ATOM     12  C   UNL     1      23.697   7.406  50.627  0.00  0.00    +0.000 A 
ATOM     13  N   UNL     1      23.442   6.097  50.425  0.00  0.00    +0.000 NA
ATOM     14  C   UNL     1      24.536   5.467  49.965  0.00  0.00    +0.000 A 
ATOM     15  C   UNL     1      25.783   6.021  49.719  0.00  0.00    +0.000 A 
ATOM     16  N   UNL     1      26.674   5.053  49.295  0.00  0.00    +0.000 NA
ATOM     17  C   UNL     1      25.973   3.938  49.273  0.00  0.00    +0.000 A 
ATOM     18  N   UNL     1      24.669   4.145  49.640  0.00  0.00    +0.000 N 
ATOM     19  H   UNL     1      27.731   7.729  48.965  0.00  0.00    +0.000 HD
ENDBRANCH   7  18
ENDBRANCH   1   7
BRANCH   5  20
ATOM     20  O   UNL     1      26.238   1.965  53.745  0.00  0.00    +0.000 OA
BRANCH  20  21
ATOM     21  C   UNL     1      27.451   1.864  52.991  0.00  0.00    +0.000 C 
BRANCH  21  22
ATOM     22  C   UNL     1      28.083   0.496  53.145  0.00  0.00    +0.000 A 
ATOM     23  C   UNL     1      27.367  -0.651  52.768  0.00  0.00    +0.000 A 
ATOM     24  C   UNL     1      27.969  -1.911  52.801  0.00  0.00    +0.000 A 
ATOM     25  C   UNL     1      29.296  -2.039  53.204  0.00  0.00    +0.000 A 
ATOM     26  C   UNL     1      30.019  -0.910  53.582  0.00  0.00    +0.000 A 
ATOM     27  C   UNL     1      29.418   0.351  53.549  0.00  0.00    +0.000 A 
ENDBRANCH  21  22
ENDBRANCH  20  21
ENDBRANCH   5  20
TORSDOF 5
ENDMDL
MODEL 4
REMARK VINA RESULT:    -7.903      2.188      5.336
REMARK INTER + INTRA:         -11.063
REMARK INTER:                 -10.271
REMARK INTRA:                  -0.792
REMARK UNBOUND:                -0.849
REMARK  Name = 
REMARK  6 active torsions:
REMARK  status: ('A' for Active; 'I' for Inactive)
REMARK    1  A    between atoms: C_1  and  N_2
REMARK    2  A    between atoms: N_11  and  C_12
REMARK    3  A    between atoms: C_12  and  C_13
REMARK    4  A    between atoms: C_17  and  O_18
REMARK    5  A    between atoms: O_18  and  C_19
REMARK    6  A    between atoms: C_19  and  C_20
REMARK                            x       y       z     vdW  Elec       q    Type
REMARK                         _______ _______ _______ _____ _____    ______ ____
ROOT
ATOM      1  C   UNL     1      25.080   2.698  50.997  0.00  0.00    +0.000 A 
ATOM      2  C   UNL     1      26.450   2.429  51.106  0.00  0.00    +0.000 A 
ATOM      3  C   UNL     1      26.919   1.539  52.071  0.00  0.00    +0.000 A 
ATOM      4  C   UNL     1      26.027   0.905  52.939  0.00  0.00    +0.000 A 
ATOM      5  C   UNL     1      24.660   1.164  52.850  0.00  0.00    +0.000 A 
ATOM      6  C   UNL     1      24.196   2.077  51.897  0.00  0.00    +0.000 A 
ENDROOT
BRANCH   1   7
ATOM      7  C   UNL     1      24.570   3.622  49.918  0.00  0.00    +0.000 C 
BRANCH   7  18
ATOM      8  C   UNL     1      27.122  10.381  49.467  0.00  0.00    +0.000 C 
ATOM      9  N   UNL     1      26.622   9.291  50.274  0.00  0.00    +0.000 N 
ATOM     10  C   UNL     1      26.652   8.003  49.744  0.00  0.00    +0.000 A 
ATOM     11  N   UNL     1      27.601   7.634  48.843  0.00  0.00    +0.000 NA
ATOM     12  C   UNL     1      27.619   6.358  48.399  0.00  0.00    +0.000 A 
ATOM     13  N   UNL     1      26.797   5.342  48.731  0.00  0.00    +0.000 NA
ATOM     14  C   UNL     1      25.873   5.750  49.617  0.00  0.00    +0.000 A 
ATOM     15  C   UNL     1      25.724   7.022  50.148  0.00  0.00    +0.000 A 
ATOM     16  N   UNL     1      24.631   7.074  50.993  0.00  0.00    +0.000 NA
ATOM     17  C   UNL     1      24.139   5.853  50.983  0.00  0.00    +0.000 A 
ATOM     18  N   UNL     1      24.875   5.011  50.189  0.00  0.00    +0.000 N 
ATOM     19  H   UNL     1      26.269   9.455  51.178  0.00  0.00    +0.000 HD
ENDBRANCH   7  18
ENDBRANCH   1   7
BRANCH   5  20
ATOM     20  O   UNL     1      23.698   0.616  53.660  0.00  0.00    +0.000 OA
BRANCH  20  21
ATOM     21  C   UNL     1      23.169  -0.640  53.225  0.00  0.00    +0.000 C 
BRANCH  21  22
ATOM     22  C   UNL     1      21.698  -0.530  52.881  0.00  0.00    +0.000 A 
ATOM     23  C   UNL     1      20.731  -0.970  53.798  0.00  0.00    +0.000 A 
ATOM     24  C   UNL     1      19.370  -0.779  53.547  0.00  0.00    +0.000 A 
ATOM     25  C   UNL     1      18.960  -0.141  52.379  0.00  0.00    +0.000 A 
ATOM     26  C   UNL     1      19.908   0.300  51.459  0.00  0.00    +0.000 A 
ATOM     27  C   UNL     1      21.270   0.111  51.710  0.00  0.00    +0.000 A 
ENDBRANCH  21  22
ENDBRANCH  20  21
ENDBRANCH   5  20
TORSDOF 5
ENDMDL
MODEL 5
REMARK VINA RESULT:    -7.885      3.044      4.693
REMARK INTER + INTRA:         -11.039
REMARK INTER:                 -10.402
REMARK INTRA:                  -0.637
REMARK UNBOUND:                -0.849
REMARK  Name = 
REMARK  6 active torsions:
REMARK  status: ('A' for Active; 'I' for Inactive)
REMARK    1  A    between atoms: C_1  and  N_2
REMARK    2  A    between atoms: N_11  and  C_12
REMARK    3  A    between atoms: C_12  and  C_13
REMARK    4  A    between atoms: C_17  and  O_18
REMARK    5  A    between atoms: O_18  and  C_19
REMARK    6  A    between atoms: C_19  and  C_20
REMARK                            x       y       z     vdW  Elec       q    Type
REMARK                         _______ _______ _______ _____ _____    ______ ____
ROOT
ATOM      1  C   UNL     1      21.800   0.110  52.171  0.00  0.00    +0.000 A 
ATOM      2  C   UNL     1      21.044  -0.546  53.150  0.00  0.00    +0.000 A 
ATOM      3  C   UNL     1      21.649  -1.004  54.320  0.00  0.00    +0.000 A 
ATOM      4  C   UNL     1      23.017  -0.812  54.529  0.00  0.00    +0.000 A 
ATOM      5  C   UNL     1      23.788  -0.165  53.564  0.00  0.00    +0.000 A 
ATOM      6  C   UNL     1      23.182   0.270  52.380  0.00  0.00    +0.000 A 
ENDROOT
BRANCH   1   7
ATOM      7  C   UNL     1      21.133   0.650  50.930  0.00  0.00    +0.000 C 
BRANCH   7  18
ATOM      8  C   UNL     1      15.174   4.263  52.886  0.00  0.00    +0.000 C 
ATOM      9  N   UNL     1      16.412   4.216  52.143  0.00  0.00    +0.000 N 
ATOM     10  C   UNL     1      16.976   2.972  51.867  0.00  0.00    +0.000 A 
ATOM     11  N   UNL     1      16.200   1.865  51.719  0.00  0.00    +0.000 NA
ATOM     12  C   UNL     1      16.789   0.693  51.400  0.00  0.00    +0.000 A 
ATOM     13  N   UNL     1      18.098   0.439  51.193  0.00  0.00    +0.000 NA
ATOM     14  C   UNL     1      18.828   1.556  51.354  0.00  0.00    +0.000 A 
ATOM     15  C   UNL     1      18.366   2.819  51.692  0.00  0.00    +0.000 A 
ATOM     16  N   UNL     1      19.417   3.709  51.813  0.00  0.00    +0.000 NA
ATOM     17  C   UNL     1      20.491   2.998  51.538  0.00  0.00    +0.000 A 
ATOM     18  N   UNL     1      20.182   1.700  51.225  0.00  0.00    +0.000 N 
ATOM     19  H   UNL     1      16.848   5.044  51.838  0.00  0.00    +0.000 HD
ENDBRANCH   7  18
ENDBRANCH   1   7
BRANCH   5  20
ATOM     20  O   UNL     1      25.138   0.061  53.652  0.00  0.00    +0.000 OA
BRANCH  20  21
ATOM     21  C   UNL     1      25.970  -1.078  53.411  0.00  0.00    +0.000 C 
BRANCH  21  22
ATOM     22  C   UNL     1      27.437  -0.702  53.422  0.00  0.00    +0.000 A 
ATOM     23  C   UNL     1      27.824   0.586  53.825  0.00  0.00    +0.000 A 
ATOM     24  C   UNL     1      29.175   0.920  53.945  0.00  0.00    +0.000 A 
ATOM     25  C   UNL     1      30.156  -0.030  53.671  0.00  0.00    +0.000 A 
ATOM     26  C   UNL     1      29.786  -1.312  53.269  0.00  0.00    +0.000 A 
ATOM     27  C   UNL     1      28.435  -1.648  53.150  0.00  0.00    +0.000 A 
ENDBRANCH  21  22
ENDBRANCH  20  21
ENDBRANCH   5  20
TORSDOF 5
ENDMDL
MODEL 6
REMARK VINA RESULT:    -7.825      2.327      5.507
REMARK INTER + INTRA:         -10.962
REMARK INTER:                  -9.890
REMARK INTRA:                  -1.072
REMARK UNBOUND:                -0.849
REMARK  Name = 
REMARK  6 active torsions:
REMARK  status: ('A' for Active; 'I' for Inactive)
REMARK    1  A    between atoms: C_1  and  N_2
REMARK    2  A    between atoms: N_11  and  C_12
REMARK    3  A    between atoms: C_12  and  C_13
REMARK    4  A    between atoms: C_17  and  O_18
REMARK    5  A    between atoms: O_18  and  C_19
REMARK    6  A    between atoms: C_19  and  C_20
REMARK                            x       y       z     vdW  Elec       q    Type
REMARK                         _______ _______ _______ _____ _____    ______ ____
ROOT
ATOM      1  C   UNL     1      24.032   5.001  49.063  0.00  0.00    +0.000 A 
ATOM      2  C   UNL     1      24.760   6.114  48.623  0.00  0.00    +0.000 A 
ATOM      3  C   UNL     1      26.153   6.082  48.599  0.00  0.00    +0.000 A 
ATOM      4  C   UNL     1      26.840   4.938  49.013  0.00  0.00    +0.000 A 
ATOM      5  C   UNL     1      26.134   3.821  49.459  0.00  0.00    +0.000 A 
ATOM      6  C   UNL     1      24.736   3.867  49.505  0.00  0.00    +0.000 A 
ENDROOT
BRANCH   1   7
ATOM      7  C   UNL     1      22.524   5.021  49.038  0.00  0.00    +0.000 C 
BRANCH   7  18
ATOM      8  C   UNL     1      20.379  -0.145  53.633  0.00  0.00    +0.000 C 
ATOM      9  N   UNL     1      20.218   1.187  53.095  0.00  0.00    +0.000 N 
ATOM     10  C   UNL     1      20.774   1.473  51.850  0.00  0.00    +0.000 A 
ATOM     11  N   UNL     1      20.917   0.507  50.903  0.00  0.00    +0.000 NA
ATOM     12  C   UNL     1      21.414   0.846  49.694  0.00  0.00    +0.000 A 
ATOM     13  N   UNL     1      21.809   2.060  49.259  0.00  0.00    +0.000 NA
ATOM     14  C   UNL     1      21.657   2.982  50.225  0.00  0.00    +0.000 A 
ATOM     15  C   UNL     1      21.176   2.780  51.510  0.00  0.00    +0.000 A 
ATOM     16  N   UNL     1      21.208   3.957  52.235  0.00  0.00    +0.000 NA
ATOM     17  C   UNL     1      21.686   4.854  51.397  0.00  0.00    +0.000 A 
ATOM     18  N   UNL     1      21.943   4.318  50.163  0.00  0.00    +0.000 N 
ATOM     19  H   UNL     1      19.725   1.876  53.596  0.00  0.00    +0.000 HD
ENDBRANCH   7  18
ENDBRANCH   1   7
BRANCH   5  20
ATOM     20  O   UNL     1      26.700   2.654  49.906  0.00  0.00    +0.000 OA
BRANCH  20  21
ATOM     21  C   UNL     1      26.906   2.572  51.320  0.00  0.00    +0.000 C 
BRANCH  21  22
ATOM     22  C   UNL     1      26.131   1.417  51.923  0.00  0.00    +0.000 A 
ATOM     23  C   UNL     1      26.808   0.249  52.308  0.00  0.00    +0.000 A 
ATOM     24  C   UNL     1      26.132  -0.783  52.963  0.00  0.00    +0.000 A 
ATOM     25  C   UNL     1      24.775  -0.657  53.248  0.00  0.00    +0.000 A 
ATOM     26  C   UNL     1      24.091   0.496  52.872  0.00  0.00    +0.000 A 
ATOM     27  C   UNL     1      24.766   1.530  52.217  0.00  0.00    +0.000 A 
ENDBRANCH  21  22
ENDBRANCH  20  21
ENDBRANCH   5  20
TORSDOF 5
ENDMDL
MODEL 7
REMARK VINA RESULT:    -7.815      2.465      2.731
REMARK INTER + INTRA:         -10.949
REMARK INTER:                 -10.207
REMARK INTRA:                  -0.742
REMARK UNBOUND:                -0.849
REMARK  Name = 
REMARK  6 active torsions:
REMARK  status: ('A' for Active; 'I' for Inactive)
REMARK    1  A    between atoms: C_1  and  N_2
REMARK    2  A    between atoms: N_11  and  C_12
REMARK    3  A    between atoms: C_12  and  C_13
REMARK    4  A    between atoms: C_17  and  O_18
REMARK    5  A    between atoms: O_18  and  C_19
REMARK    6  A    between atoms: C_19  and  C_20
REMARK                            x       y       z     vdW  Elec       q    Type
REMARK                         _______ _______ _______ _____ _____    ______ ____
ROOT
ATOM      1  C   UNL     1      21.372  -0.028  52.969  0.00  0.00    +0.000 A 
ATOM      2  C   UNL     1      21.188  -0.644  54.213  0.00  0.00    +0.000 A 
ATOM      3  C   UNL     1      22.287  -1.032  54.978  0.00  0.00    +0.000 A 
ATOM      4  C   UNL     1      23.585  -0.808  54.512  0.00  0.00    +0.000 A 
ATOM      5  C   UNL     1      23.789  -0.200  53.274  0.00  0.00    +0.000 A 
ATOM      6  C   UNL     1      22.683   0.165  52.498  0.00  0.00    +0.000 A 
ENDROOT
BRANCH   1   7
ATOM      7  C   UNL     1      20.181   0.437  52.167  0.00  0.00    +0.000 C 
BRANCH   7  18
ATOM      8  C   UNL     1      21.025   5.918  47.515  0.00  0.00    +0.000 C 
ATOM      9  N   UNL     1      21.229   5.363  48.834  0.00  0.00    +0.000 N 
ATOM     10  C   UNL     1      21.143   3.981  48.995  0.00  0.00    +0.000 A 
ATOM     11  N   UNL     1      21.465   3.133  47.982  0.00  0.00    +0.000 NA
ATOM     12  C   UNL     1      21.416   1.802  48.205  0.00  0.00    +0.000 A 
ATOM     13  N   UNL     1      21.080   1.152  49.338  0.00  0.00    +0.000 NA
ATOM     14  C   UNL     1      20.764   2.025  50.309  0.00  0.00    +0.000 A 
ATOM     15  C   UNL     1      20.756   3.409  50.223  0.00  0.00    +0.000 A 
ATOM     16  N   UNL     1      20.332   3.971  51.413  0.00  0.00    +0.000 NA
ATOM     17  C   UNL     1      20.103   2.945  52.206  0.00  0.00    +0.000 A 
ATOM     18  N   UNL     1      20.379   1.751  51.592  0.00  0.00    +0.000 N 
ATOM     19  H   UNL     1      21.425   5.948  49.601  0.00  0.00    +0.000 HD
ENDBRANCH   7  18
ENDBRANCH   1   7
BRANCH   5  20
ATOM     20  O   UNL     1      25.014   0.051  52.709  0.00  0.00    +0.000 OA
BRANCH  20  21
ATOM     21  C   UNL     1      26.009   0.566  53.599  0.00  0.00    +0.000 C 
BRANCH  21  22
ATOM     22  C   UNL     1      27.260  -0.288  53.581  0.00  0.00    +0.000 A 
ATOM     23  C   UNL     1      27.232  -1.555  52.976  0.00  0.00    +0.000 A 
ATOM     24  C   UNL     1      28.398  -2.313  52.853  0.00  0.00    +0.000 A 
ATOM     25  C   UNL     1      29.608  -1.812  53.328  0.00  0.00    +0.000 A 
ATOM     26  C   UNL     1      29.651  -0.557  53.931  0.00  0.00    +0.000 A 
ATOM     27  C   UNL     1      28.484   0.202  54.054  0.00  0.00    +0.000 A 
ENDBRANCH  21  22
ENDBRANCH  20  21
ENDBRANCH   5  20
TORSDOF 5
ENDMDL
MODEL 8
REMARK VINA RESULT:    -7.752      1.717      4.776
REMARK INTER + INTRA:         -10.867
REMARK INTER:                 -10.193
REMARK INTRA:                  -0.674
REMARK UNBOUND:                -0.849
REMARK  Name = 
REMARK  6 active torsions:
REMARK  status: ('A' for Active; 'I' for Inactive)
REMARK    1  A    between atoms: C_1  and  N_2
REMARK    2  A    between atoms: N_11  and  C_12
REMARK    3  A    between atoms: C_12  and  C_13
REMARK    4  A    between atoms: C_17  and  O_18
REMARK    5  A    between atoms: O_18  and  C_19
REMARK    6  A    between atoms: C_19  and  C_20
REMARK                            x       y       z     vdW  Elec       q    Type
REMARK                         _______ _______ _______ _____ _____    ______ ____
ROOT
ATOM      1  C   UNL     1      26.671   1.799  51.813  0.00  0.00    +0.000 A 
ATOM      2  C   UNL     1      27.721   2.143  52.674  0.00  0.00    +0.000 A 
ATOM      3  C   UNL     1      27.945   1.414  53.841  0.00  0.00    +0.000 A 
ATOM      4  C   UNL     1      27.125   0.329  54.164  0.00  0.00    +0.000 A 
ATOM      5  C   UNL     1      26.072  -0.026  53.322  0.00  0.00    +0.000 A 
ATOM      6  C   UNL     1      25.835   0.724  52.165  0.00  0.00    +0.000 A 
ENDROOT
BRANCH   1   7
ATOM      7  C   UNL     1      26.463   2.557  50.526  0.00  0.00    +0.000 C 
BRANCH   7  18
ATOM      8  C   UNL     1      22.725   8.660  49.442  0.00  0.00    +0.000 C 
ATOM      9  N   UNL     1      23.272   7.682  50.354  0.00  0.00    +0.000 N 
ATOM     10  C   UNL     1      24.305   6.859  49.907  0.00  0.00    +0.000 A 
ATOM     11  N   UNL     1      25.182   7.283  48.958  0.00  0.00    +0.000 NA
ATOM     12  C   UNL     1      26.197   6.469  48.597  0.00  0.00    +0.000 A 
ATOM     13  N   UNL     1      26.488   5.235  49.058  0.00  0.00    +0.000 NA
ATOM     14  C   UNL     1      25.595   4.853  49.986  0.00  0.00    +0.000 A 
ATOM     15  C   UNL     1      24.502   5.572  50.445  0.00  0.00    +0.000 A 
ATOM     16  N   UNL     1      23.785   4.836  51.370  0.00  0.00    +0.000 NA
ATOM     17  C   UNL     1      24.442   3.699  51.476  0.00  0.00    +0.000 A 
ATOM     18  N   UNL     1      25.559   3.676  50.683  0.00  0.00    +0.000 N 
ATOM     19  H   UNL     1      22.924   7.599  51.271  0.00  0.00    +0.000 HD
ENDBRANCH   7  18
ENDBRANCH   1   7
BRANCH   5  20
ATOM     20  O   UNL     1      25.193  -1.056  53.547  0.00  0.00    +0.000 OA
BRANCH  20  21
ATOM     21  C   UNL     1      24.366  -0.917  54.707  0.00  0.00    +0.000 C 
BRANCH  21  22
ATOM     22  C   UNL     1      22.913  -0.714  54.326  0.00  0.00    +0.000 A 
ATOM     23  C   UNL     1      22.531   0.441  53.625  0.00  0.00    +0.000 A 
ATOM     24  C   UNL     1      21.219   0.598  53.171  0.00  0.00    +0.000 A 
ATOM     25  C   UNL     1      20.276  -0.400  53.405  0.00  0.00    +0.000 A 
ATOM     26  C   UNL     1      20.642  -1.551  54.100  0.00  0.00    +0.000 A 
ATOM     27  C   UNL     1      21.954  -1.709  54.553  0.00  0.00    +0.000 A 
ENDBRANCH  21  22
ENDBRANCH  20  21
ENDBRANCH   5  20
TORSDOF 5
ENDMDL
MODEL 9
REMARK VINA RESULT:    -7.641      2.572      5.177
REMARK INTER + INTRA:         -10.724
REMARK INTER:                  -9.845
REMARK INTRA:                  -0.879
REMARK UNBOUND:                -0.849
REMARK  Name = 
REMARK  6 active torsions:
REMARK  status: ('A' for Active; 'I' for Inactive)
REMARK    1  A    between atoms: C_1  and  N_2
REMARK    2  A    between atoms: N_11  and  C_12
REMARK    3  A    between atoms: C_12  and  C_13
REMARK    4  A    between atoms: C_17  and  O_18
REMARK    5  A    between atoms: O_18  and  C_19
REMARK    6  A    between atoms: C_19  and  C_20
REMARK                            x       y       z     vdW  Elec       q    Type
REMARK                         _______ _______ _______ _____ _____    ______ ____
ROOT
ATOM      1  C   UNL     1      24.152   3.618  50.352  0.00  0.00    +0.000 A 
ATOM      2  C   UNL     1      25.290   3.663  49.537  0.00  0.00    +0.000 A 
ATOM      3  C   UNL     1      26.490   3.102  49.969  0.00  0.00    +0.000 A 
ATOM      4  C   UNL     1      26.571   2.486  51.221  0.00  0.00    +0.000 A 
ATOM      5  C   UNL     1      25.450   2.435  52.049  0.00  0.00    +0.000 A 
ATOM      6  C   UNL     1      24.254   3.022  51.622  0.00  0.00    +0.000 A 
ENDROOT
BRANCH   1   7
ATOM      7  C   UNL     1      22.841   4.180  49.860  0.00  0.00    +0.000 C 
BRANCH   7  18
ATOM      8  C   UNL     1      16.612   0.497  49.683  0.00  0.00    +0.000 C 
ATOM      9  N   UNL     1      18.057   0.498  49.692  0.00  0.00    +0.000 N 
ATOM     10  C   UNL     1      18.720   1.635  50.151  0.00  0.00    +0.000 A 
ATOM     11  N   UNL     1      18.160   2.445  51.089  0.00  0.00    +0.000 NA
ATOM     12  C   UNL     1      18.864   3.506  51.539  0.00  0.00    +0.000 A 
ATOM     13  N   UNL     1      20.103   3.904  51.182  0.00  0.00    +0.000 NA
ATOM     14  C   UNL     1      20.615   3.081  50.253  0.00  0.00    +0.000 A 
ATOM     15  C   UNL     1      20.009   1.969  49.690  0.00  0.00    +0.000 A 
ATOM     16  N   UNL     1      20.825   1.397  48.732  0.00  0.00    +0.000 NA
ATOM     17  C   UNL     1      21.911   2.144  48.728  0.00  0.00    +0.000 A 
ATOM     18  N   UNL     1      21.842   3.154  49.651  0.00  0.00    +0.000 N 
ATOM     19  H   UNL     1      18.563  -0.288  49.383  0.00  0.00    +0.000 HD
ENDBRANCH   7  18
ENDBRANCH   1   7
BRANCH   5  20
ATOM     20  O   UNL     1      25.418   1.876  53.302  0.00  0.00    +0.000 OA
BRANCH  20  21
ATOM     21  C   UNL     1      25.368   0.446  53.337  0.00  0.00    +0.000 C 
BRANCH  21  22
ATOM     22  C   UNL     1      26.747  -0.150  53.530  0.00  0.00    +0.000 A 
ATOM     23  C   UNL     1      27.115  -1.303  52.818  0.00  0.00    +0.000 A 
ATOM     24  C   UNL     1      28.415  -1.806  52.899  0.00  0.00    +0.000 A 
ATOM     25  C   UNL     1      29.365  -1.160  53.687  0.00  0.00    +0.000 A 
ATOM     26  C   UNL     1      29.014  -0.016  54.399  0.00  0.00    +0.000 A 
ATOM     27  C   UNL     1      27.713   0.489  54.318  0.00  0.00    +0.000 A 
ENDBRANCH  21  22
ENDBRANCH  20  21
ENDBRANCH   5  20
TORSDOF 5
ENDMDL
