MODEL 1
REMARK VINA RESULT:    -9.623      0.000      0.000
REMARK INTER + INTRA:         -12.052
REMARK INTER:                 -11.311
REMARK INTRA:                  -0.741
REMARK UNBOUND:                -0.741
REMARK  Name = 
REMARK  5 active torsions:
REMARK  status: ('A' for Active; 'I' for Inactive)
REMARK    1  A    between atoms: C_1  and  N_2
REMARK    2  A    between atoms: C_5  and  C_6
REMARK    3  A    between atoms: C_7  and  O_8
REMARK    4  A    between atoms: C_10  and  O_11
REMARK    5  A    between atoms: C_16  and  C_17
REMARK                            x       y       z     vdW  Elec       q    Type
REMARK                         _______ _______ _______ _____ _____    ______ ____
ROOT
ATOM      1  C   UNL     1      24.145  -0.334  53.981  0.00  0.00    +0.000 A 
ATOM      2  C   UNL     1      23.946  -1.221  55.051  0.00  0.00    +0.000 A 
ATOM      3  C   UNL     1      22.677  -1.722  55.345  0.00  0.00    +0.000 A 
ATOM      4  C   UNL     1      21.585  -1.333  54.569  0.00  0.00    +0.000 A 
ATOM      5  C   UNL     1      21.751  -0.440  53.496  0.00  0.00    +0.000 A 
ATOM      6  C   UNL     1      20.605   0.022  52.644  0.00  0.00    +0.000 A 
ATOM      7  O   UNL     1      19.450  -0.362  52.784  0.00  0.00    +0.000 OA
ATOM      8  C   UNL     1      20.937   0.971  51.581  0.00  0.00    +0.000 A 
ATOM      9  C   UNL     1      22.204   1.360  51.412  0.00  0.00    +0.000 A 
ATOM     10  O   UNL     1      23.267   0.923  52.169  0.00  0.00    +0.000 OA
ATOM     11  C   UNL     1      23.033   0.053  53.208  0.00  0.00    +0.000 A 
ENDROOT
BRANCH   1  16
ATOM     12  C   UNL     1      29.426   1.041  54.145  0.00  0.00    +0.000 C 
ATOM     13  N   UNL     1      28.254   1.025  53.294  0.00  0.00    +0.000 N 
ATOM     14  C   UNL     1      27.817  -0.276  52.822  0.00  0.00    +0.000 C 
ATOM     15  C   UNL     1      26.408  -0.669  53.119  0.00  0.00    +0.000 C 
ATOM     16  C   UNL     1      25.504   0.154  53.666  0.00  0.00    +0.000 C 
ATOM     17  C   UNL     1      25.834   1.574  54.010  0.00  0.00    +0.000 C 
ATOM     18  C   UNL     1      27.248   2.035  53.599  0.00  0.00    +0.000 C 
ATOM     19  H   UNL     1      28.596   1.388  52.404  0.00  0.00    +0.000 HD
ENDBRANCH   1  16
BRANCH   9  20
ATOM     20  C   UNL     1      22.567   2.312  50.354  0.00  0.00    +0.000 A 
ATOM     21  C   UNL     1      22.239   1.996  49.025  0.00  0.00    +0.000 A 
ATOM     22  C   UNL     1      22.577   2.860  47.985  0.00  0.00    +0.000 A 
ATOM     23  C   UNL     1      23.240   4.058  48.258  0.00  0.00    +0.000 A 
ATOM     24  C   UNL     1      23.570   4.384  49.572  0.00  0.00    +0.000 A 
ATOM     25  C   UNL     1      23.236   3.518  50.617  0.00  0.00    +0.000 A 
ATOM     26 CL   UNL     1      23.670   3.987  52.225  0.00  0.00    +0.000 Cl
ENDBRANCH   9  20
BRANCH   2  27
ATOM     27  O   UNL     1      25.013  -1.600  55.820  0.00  0.00    +0.000 OA
ATOM     28  H   UNL     1      24.882  -1.843  56.715  0.00  0.00    +0.000 HD
ENDBRANCH   2  27
BRANCH   4  29
ATOM     29  O   UNL     1      20.354  -1.840  54.870  0.00  0.00    +0.000 OA
ATOM     30  H   UNL     1      19.884  -2.340  54.232  0.00  0.00    +0.000 HD
ENDBRANCH   4  29
TORSDOF 4
ENDMDL
MODEL 2
REMARK VINA RESULT:    -9.416      2.454      5.063
REMARK INTER + INTRA:         -11.809
REMARK INTER:                 -10.925
REMARK INTRA:                  -0.884
REMARK UNBOUND:                -0.741
REMARK  Name = 
REMARK  5 active torsions:
REMARK  status: ('A' for Active; 'I' for Inactive)
REMARK    1  A    between atoms: C_1  and  N_2
REMARK    2  A    between atoms: C_5  and  C_6
REMARK    3  A    between atoms: C_7  and  O_8
REMARK    4  A    between atoms: C_10  and  O_11
REMARK    5  A    between atoms: C_16  and  C_17
REMARK                            x       y       z     vdW  Elec       q    Type
REMARK                         _______ _______ _______ _____ _____    ______ ____
ROOT
ATOM      1  C   UNL     1      22.193   0.119  53.302  0.00  0.00    +0.000 A 
ATOM      2  C   UNL     1      21.816  -0.879  54.214  0.00  0.00    +0.000 A 
ATOM      3  C   UNL     1      22.746  -1.449  55.083  0.00  0.00    +0.000 A 
ATOM      4  C   UNL     1      24.075  -1.027  55.045  0.00  0.00    +0.000 A 
ATOM      5  C   UNL     1      24.484  -0.035  54.139  0.00  0.00    +0.000 A 
ATOM      6  C   UNL     1      25.906   0.440  54.048  0.00  0.00    +0.000 A 
ATOM      7  O   UNL     1      26.810   0.036  54.770  0.00  0.00    +0.000 OA
ATOM      8  C   UNL     1      26.179   1.461  53.036  0.00  0.00    +0.000 A 
ATOM      9  C   UNL     1      25.182   1.921  52.274  0.00  0.00    +0.000 A 
ATOM     10  O   UNL     1      23.871   1.514  52.366  0.00  0.00    +0.000 OA
ATOM     11  C   UNL     1      23.539   0.533  53.271  0.00  0.00    +0.000 A 
ENDROOT
BRANCH   1  16
ATOM     12  C   UNL     1      19.572   3.164  49.605  0.00  0.00    +0.000 C 
ATOM     13  N   UNL     1      19.398   2.094  50.564  0.00  0.00    +0.000 N 
ATOM     14  C   UNL     1      19.992   0.815  50.219  0.00  0.00    +0.000 C 
ATOM     15  C   UNL     1      20.951   0.224  51.199  0.00  0.00    +0.000 C 
ATOM     16  C   UNL     1      21.182   0.734  52.415  0.00  0.00    +0.000 C 
ATOM     17  C   UNL     1      20.465   1.951  52.912  0.00  0.00    +0.000 C 
ATOM     18  C   UNL     1      19.382   2.505  51.963  0.00  0.00    +0.000 C 
ATOM     19  H   UNL     1      18.420   1.827  50.454  0.00  0.00    +0.000 HD
ENDBRANCH   1  16
BRANCH   9  20
ATOM     20  C   UNL     1      25.426   2.945  51.249  0.00  0.00    +0.000 A 
ATOM     21  C   UNL     1      26.474   2.743  50.336  0.00  0.00    +0.000 A 
ATOM     22  C   UNL     1      26.755   3.694  49.355  0.00  0.00    +0.000 A 
ATOM     23  C   UNL     1      25.986   4.856  49.268  0.00  0.00    +0.000 A 
ATOM     24  C   UNL     1      24.943   5.068  50.167  0.00  0.00    +0.000 A 
ATOM     25  C   UNL     1      24.661   4.118  51.154  0.00  0.00    +0.000 A 
ATOM     26 CL   UNL     1      23.349   4.441  52.234  0.00  0.00    +0.000 Cl
ENDBRANCH   9  20
BRANCH   2  27
ATOM     27  O   UNL     1      20.515  -1.303  54.249  0.00  0.00    +0.000 OA
ATOM     28  H   UNL     1      20.245  -2.031  53.724  0.00  0.00    +0.000 HD
ENDBRANCH   2  27
BRANCH   4  29
ATOM     29  O   UNL     1      24.967  -1.594  55.910  0.00  0.00    +0.000 OA
ATOM     30  H   UNL     1      25.502  -1.051  56.454  0.00  0.00    +0.000 HD
ENDBRANCH   4  29
TORSDOF 4
ENDMDL
MODEL 3
REMARK VINA RESULT:    -9.306      1.709      2.218
REMARK INTER + INTRA:         -11.679
REMARK INTER:                 -11.471
REMARK INTRA:                  -0.208
REMARK UNBOUND:                -0.741
REMARK  Name = 
REMARK  5 active torsions:
REMARK  status: ('A' for Active; 'I' for Inactive)
REMARK    1  A    between atoms: C_1  and  N_2
REMARK    2  A    between atoms: C_5  and  C_6
REMARK    3  A    between atoms: C_7  and  O_8
REMARK    4  A    between atoms: C_10  and  O_11
REMARK    5  A    between atoms: C_16  and  C_17
REMARK                            x       y       z     vdW  Elec       q    Type
REMARK                         _______ _______ _______ _____ _____    ______ ____
ROOT
ATOM      1  C   UNL     1      24.377  -0.341  54.156  0.00  0.00    +0.000 A 
ATOM      2  C   UNL     1      23.659  -1.170  55.032  0.00  0.00    +0.000 A 
ATOM      3  C   UNL     1      22.265  -1.152  55.060  0.00  0.00    +0.000 A 
ATOM      4  C   UNL     1      21.568  -0.294  54.208  0.00  0.00    +0.000 A 
ATOM      5  C   UNL     1      22.259   0.553  53.326  0.00  0.00    +0.000 A 
ATOM      6  C   UNL     1      21.555   1.506  52.403  0.00  0.00    +0.000 A 
ATOM      7  O   UNL     1      20.337   1.600  52.316  0.00  0.00    +0.000 OA
ATOM      8  C   UNL     1      22.415   2.339  51.562  0.00  0.00    +0.000 A 
ATOM      9  C   UNL     1      23.743   2.208  51.639  0.00  0.00    +0.000 A 
ATOM     10  O   UNL     1      24.399   1.320  52.459  0.00  0.00    +0.000 OA
ATOM     11  C   UNL     1      23.662   0.523  53.304  0.00  0.00    +0.000 A 
ENDROOT
BRANCH   1  16
ATOM     12  C   UNL     1      29.666   0.465  53.064  0.00  0.00    +0.000 C 
ATOM     13  N   UNL     1      28.750  -0.315  53.870  0.00  0.00    +0.000 N 
ATOM     14  C   UNL     1      28.076   0.389  54.945  0.00  0.00    +0.000 C 
ATOM     15  C   UNL     1      26.583   0.347  54.954  0.00  0.00    +0.000 C 
ATOM     16  C   UNL     1      25.854  -0.404  54.118  0.00  0.00    +0.000 C 
ATOM     17  C   UNL     1      26.490  -1.300  53.101  0.00  0.00    +0.000 C 
ATOM     18  C   UNL     1      28.030  -1.365  53.157  0.00  0.00    +0.000 C 
ATOM     19  H   UNL     1      29.365  -0.891  54.445  0.00  0.00    +0.000 HD
ENDBRANCH   1  16
BRANCH   9  20
ATOM     20  C   UNL     1      24.632   3.031  50.807  0.00  0.00    +0.000 A 
ATOM     21  C   UNL     1      24.099   4.168  50.178  0.00  0.00    +0.000 A 
ATOM     22  C   UNL     1      24.899   4.972  49.366  0.00  0.00    +0.000 A 
ATOM     23  C   UNL     1      26.245   4.656  49.179  0.00  0.00    +0.000 A 
ATOM     24  C   UNL     1      26.787   3.531  49.799  0.00  0.00    +0.000 A 
ATOM     25  C   UNL     1      25.987   2.721  50.610  0.00  0.00    +0.000 A 
ATOM     26 CL   UNL     1      26.724   1.344  51.354  0.00  0.00    +0.000 Cl
ENDBRANCH   9  20
BRANCH   2  27
ATOM     27  O   UNL     1      24.338  -2.008  55.875  0.00  0.00    +0.000 OA
ATOM     28  H   UNL     1      24.935  -1.656  56.505  0.00  0.00    +0.000 HD
ENDBRANCH   2  27
BRANCH   4  29
ATOM     29  O   UNL     1      20.204  -0.298  54.248  0.00  0.00    +0.000 OA
ATOM     30  H   UNL     1      19.740   0.470  54.518  0.00  0.00    +0.000 HD
ENDBRANCH   4  29
TORSDOF 4
ENDMDL
MODEL 4
REMARK VINA RESULT:    -9.086      2.204      5.414
REMARK INTER + INTRA:         -11.420
REMARK INTER:                 -10.616
REMARK INTRA:                  -0.804
REMARK UNBOUND:                -0.741
REMARK  Name = 
REMARK  5 active torsions:
REMARK  status: ('A' for Active; 'I' for Inactive)
REMARK    1  A    between atoms: C_1  and  N_2
REMARK    2  A    between atoms: C_5  and  C_6
REMARK    3  A    between atoms: C_7  and  O_8
REMARK    4  A    between atoms: C_10  and  O_11
REMARK    5  A    between atoms: C_16  and  C_17
REMARK                            x       y       z     vdW  Elec       q    Type
REMARK                         _______ _______ _______ _____ _____    ______ ____
ROOT
ATOM      1  C   UNL     1      22.301   1.674  52.095  0.00  0.00    +0.000 A 
ATOM      2  C   UNL     1      20.902   1.582  52.041  0.00  0.00    +0.000 A 
ATOM      3  C   UNL     1      20.211   0.647  52.812  0.00  0.00    +0.000 A 
ATOM      4  C   UNL     1      20.920  -0.216  53.649  0.00  0.00    +0.000 A 
ATOM      5  C   UNL     1      22.321  -0.152  53.720  0.00  0.00    +0.000 A 
ATOM      6  C   UNL     1      23.129  -1.070  54.592  0.00  0.00    +0.000 A 
ATOM      7  O   UNL     1      22.641  -1.915  55.332  0.00  0.00    +0.000 OA
ATOM      8  C   UNL     1      24.581  -0.895  54.537  0.00  0.00    +0.000 A 
ATOM      9  C   UNL     1      25.105   0.051  53.752  0.00  0.00    +0.000 A 
ATOM     10  O   UNL     1      24.374   0.916  52.970  0.00  0.00    +0.000 OA
ATOM     11  C   UNL     1      23.004   0.795  52.942  0.00  0.00    +0.000 A 
ENDROOT
BRANCH   1  16
ATOM     12  C   UNL     1      26.061   4.789  49.650  0.00  0.00    +0.000 C 
ATOM     13  N   UNL     1      24.634   4.587  49.798  0.00  0.00    +0.000 N 
ATOM     14  C   UNL     1      24.079   3.411  49.153  0.00  0.00    +0.000 C 
ATOM     15  C   UNL     1      23.317   2.459  50.015  0.00  0.00    +0.000 C 
ATOM     16  C   UNL     1      23.009   2.697  51.296  0.00  0.00    +0.000 C 
ATOM     17  C   UNL     1      23.390   3.976  51.976  0.00  0.00    +0.000 C 
ATOM     18  C   UNL     1      24.070   5.022  51.070  0.00  0.00    +0.000 C 
ATOM     19  H   UNL     1      24.226   5.289  49.181  0.00  0.00    +0.000 HD
ENDBRANCH   1  16
BRANCH   9  20
ATOM     20  C   UNL     1      26.558   0.250  53.676  0.00  0.00    +0.000 A 
ATOM     21  C   UNL     1      27.094   1.465  54.134  0.00  0.00    +0.000 A 
ATOM     22  C   UNL     1      28.466   1.706  54.067  0.00  0.00    +0.000 A 
ATOM     23  C   UNL     1      29.323   0.734  53.550  0.00  0.00    +0.000 A 
ATOM     24  C   UNL     1      28.804  -0.476  53.093  0.00  0.00    +0.000 A 
ATOM     25  C   UNL     1      27.429  -0.721  53.155  0.00  0.00    +0.000 A 
ATOM     26 CL   UNL     1      26.853  -2.246  52.576  0.00  0.00    +0.000 Cl
ENDBRANCH   9  20
BRANCH   2  27
ATOM     27  O   UNL     1      20.203   2.420  51.215  0.00  0.00    +0.000 OA
ATOM     28  H   UNL     1      20.601   2.744  50.431  0.00  0.00    +0.000 HD
ENDBRANCH   2  27
BRANCH   4  29
ATOM     29  O   UNL     1      20.223  -1.118  54.400  0.00  0.00    +0.000 OA
ATOM     30  H   UNL     1      19.375  -1.403  54.123  0.00  0.00    +0.000 HD
ENDBRANCH   4  29
TORSDOF 4
ENDMDL
MODEL 5
REMARK VINA RESULT:    -8.813      2.847      5.518
REMARK INTER + INTRA:         -11.099
REMARK INTER:                 -10.961
REMARK INTRA:                  -0.138
REMARK UNBOUND:                -0.741
REMARK  Name = 
REMARK  5 active torsions:
REMARK  status: ('A' for Active; 'I' for Inactive)
REMARK    1  A    between atoms: C_1  and  N_2
REMARK    2  A    between atoms: C_5  and  C_6
REMARK    3  A    between atoms: C_7  and  O_8
REMARK    4  A    between atoms: C_10  and  O_11
REMARK    5  A    between atoms: C_16  and  C_17
REMARK                            x       y       z     vdW  Elec       q    Type
REMARK                         _______ _______ _______ _____ _____    ______ ____
ROOT
ATOM      1  C   UNL     1      20.923   0.229  52.916  0.00  0.00    +0.000 A 
ATOM      2  C   UNL     1      20.257  -0.672  53.763  0.00  0.00    +0.000 A 
ATOM      3  C   UNL     1      20.962  -1.459  54.673  0.00  0.00    +0.000 A 
ATOM      4  C   UNL     1      22.352  -1.357  54.743  0.00  0.00    +0.000 A 
ATOM      5  C   UNL     1      23.047  -0.470  53.904  0.00  0.00    +0.000 A 
ATOM      6  C   UNL     1      24.542  -0.337  53.929  0.00  0.00    +0.000 A 
ATOM      7  O   UNL     1      25.271  -0.953  54.697  0.00  0.00    +0.000 OA
ATOM      8  C   UNL     1      25.119   0.612  52.977  0.00  0.00    +0.000 A 
ATOM      9  C   UNL     1      24.316   1.306  52.164  0.00  0.00    +0.000 A 
ATOM     10  O   UNL     1      22.943   1.213  52.150  0.00  0.00    +0.000 OA
ATOM     11  C   UNL     1      22.326   0.320  52.994  0.00  0.00    +0.000 A 
ENDROOT
BRANCH   1  16
ATOM     12  C   UNL     1      16.970   2.773  50.138  0.00  0.00    +0.000 C 
ATOM     13  N   UNL     1      18.408   2.661  50.278  0.00  0.00    +0.000 N 
ATOM     14  C   UNL     1      18.985   3.232  51.481  0.00  0.00    +0.000 C 
ATOM     15  C   UNL     1      19.811   2.327  52.334  0.00  0.00    +0.000 C 
ATOM     16  C   UNL     1      20.152   1.079  51.985  0.00  0.00    +0.000 C 
ATOM     17  C   UNL     1      19.744   0.487  50.671  0.00  0.00    +0.000 C 
ATOM     18  C   UNL     1      18.996   1.448  49.724  0.00  0.00    +0.000 C 
ATOM     19  H   UNL     1      18.769   3.345  49.613  0.00  0.00    +0.000 HD
ENDBRANCH   1  16
BRANCH   9  20
ATOM     20  C   UNL     1      24.866   2.265  51.197  0.00  0.00    +0.000 A 
ATOM     21  C   UNL     1      23.992   2.862  50.274  0.00  0.00    +0.000 A 
ATOM     22  C   UNL     1      24.469   3.766  49.325  0.00  0.00    +0.000 A 
ATOM     23  C   UNL     1      25.826   4.094  49.292  0.00  0.00    +0.000 A 
ATOM     24  C   UNL     1      26.703   3.510  50.204  0.00  0.00    +0.000 A 
ATOM     25  C   UNL     1      26.229   2.600  51.153  0.00  0.00    +0.000 A 
ATOM     26 CL   UNL     1      27.371   1.916  52.258  0.00  0.00    +0.000 Cl
ENDBRANCH   9  20
BRANCH   2  27
ATOM     27  O   UNL     1      18.895  -0.782  53.692  0.00  0.00    +0.000 OA
ATOM     28  H   UNL     1      18.492  -1.627  53.707  0.00  0.00    +0.000 HD
ENDBRANCH   2  27
BRANCH   4  29
ATOM     29  O   UNL     1      23.021  -2.132  55.646  0.00  0.00    +0.000 OA
ATOM     30  H   UNL     1      22.616  -2.902  55.993  0.00  0.00    +0.000 HD
ENDBRANCH   4  29
TORSDOF 4
ENDMDL
MODEL 6
REMARK VINA RESULT:    -8.677      2.562      5.972
REMARK INTER + INTRA:         -10.939
REMARK INTER:                 -10.725
REMARK INTRA:                  -0.214
REMARK UNBOUND:                -0.741
REMARK  Name = 
REMARK  5 active torsions:
REMARK  status: ('A' for Active; 'I' for Inactive)
REMARK    1  A    between atoms: C_1  and  N_2
REMARK    2  A    between atoms: C_5  and  C_6
REMARK    3  A    between atoms: C_7  and  O_8
REMARK    4  A    between atoms: C_10  and  O_11
REMARK    5  A    between atoms: C_16  and  C_17
REMARK                            x       y       z     vdW  Elec       q    Type
REMARK                         _______ _______ _______ _____ _____    ______ ____
ROOT
ATOM      1  C   UNL     1      23.437   2.911  50.728  0.00  0.00    +0.000 A 
ATOM      2  C   UNL     1      22.125   3.068  50.255  0.00  0.00    +0.000 A 
ATOM      3  C   UNL     1      21.117   2.175  50.619  0.00  0.00    +0.000 A 
ATOM      4  C   UNL     1      21.415   1.104  51.463  0.00  0.00    +0.000 A 
ATOM      5  C   UNL     1      22.720   0.917  51.946  0.00  0.00    +0.000 A 
ATOM      6  C   UNL     1      23.094  -0.229  52.842  0.00  0.00    +0.000 A 
ATOM      7  O   UNL     1      22.298  -1.065  53.251  0.00  0.00    +0.000 OA
ATOM      8  C   UNL     1      24.500  -0.300  53.240  0.00  0.00    +0.000 A 
ATOM      9  C   UNL     1      25.357   0.634  52.817  0.00  0.00    +0.000 A 
ATOM     10  O   UNL     1      25.021   1.704  52.019  0.00  0.00    +0.000 OA
ATOM     11  C   UNL     1      23.725   1.824  51.575  0.00  0.00    +0.000 A 
ENDROOT
BRANCH   1  16
ATOM     12  C   UNL     1      26.454   6.716  48.230  0.00  0.00    +0.000 C 
ATOM     13  N   UNL     1      26.378   5.881  49.411  0.00  0.00    +0.000 N 
ATOM     14  C   UNL     1      25.360   6.231  50.385  0.00  0.00    +0.000 C 
ATOM     15  C   UNL     1      24.384   5.165  50.761  0.00  0.00    +0.000 C 
ATOM     16  C   UNL     1      24.480   3.891  50.358  0.00  0.00    +0.000 C 
ATOM     17  C   UNL     1      25.612   3.417  49.500  0.00  0.00    +0.000 C 
ATOM     18  C   UNL     1      26.696   4.473  49.202  0.00  0.00    +0.000 C 
ATOM     19  H   UNL     1      27.194   6.161  49.957  0.00  0.00    +0.000 HD
ENDBRANCH   1  16
BRANCH   9  20
ATOM     20  C   UNL     1      26.774   0.588  53.200  0.00  0.00    +0.000 A 
ATOM     21  C   UNL     1      27.381   1.765  53.669  0.00  0.00    +0.000 A 
ATOM     22  C   UNL     1      28.728   1.776  54.029  0.00  0.00    +0.000 A 
ATOM     23  C   UNL     1      29.486   0.608  53.935  0.00  0.00    +0.000 A 
ATOM     24  C   UNL     1      28.896  -0.567  53.473  0.00  0.00    +0.000 A 
ATOM     25  C   UNL     1      27.547  -0.581  53.107  0.00  0.00    +0.000 A 
ATOM     26 CL   UNL     1      26.877  -2.074  52.546  0.00  0.00    +0.000 Cl
ENDBRANCH   9  20
BRANCH   2  27
ATOM     27  O   UNL     1      21.829   4.112  49.421  0.00  0.00    +0.000 OA
ATOM     28  H   UNL     1      21.028   4.586  49.529  0.00  0.00    +0.000 HD
ENDBRANCH   2  27
BRANCH   4  29
ATOM     29  O   UNL     1      20.411   0.247  51.812  0.00  0.00    +0.000 OA
ATOM     30  H   UNL     1      20.372  -0.608  51.432  0.00  0.00    +0.000 HD
ENDBRANCH   4  29
TORSDOF 4
ENDMDL
MODEL 7
REMARK VINA RESULT:    -8.415      3.037      5.740
REMARK INTER + INTRA:         -10.632
REMARK INTER:                  -9.732
REMARK INTRA:                  -0.900
REMARK UNBOUND:                -0.741
REMARK  Name = 
REMARK  5 active torsions:
REMARK  status: ('A' for Active; 'I' for Inactive)
REMARK    1  A    between atoms: C_1  and  N_2
REMARK    2  A    between atoms: C_5  and  C_6
REMARK    3  A    between atoms: C_7  and  O_8
REMARK    4  A    between atoms: C_10  and  O_11
REMARK    5  A    between atoms: C_16  and  C_17
REMARK                            x       y       z     vdW  Elec       q    Type
REMARK                         _______ _______ _______ _____ _____    ______ ____
ROOT
ATOM      1  C   UNL     1      22.425   1.430  51.247  0.00  0.00    +0.000 A 
ATOM      2  C   UNL     1      21.865   0.359  51.961  0.00  0.00    +0.000 A 
ATOM      3  C   UNL     1      22.625  -0.375  52.872  0.00  0.00    +0.000 A 
ATOM      4  C   UNL     1      23.966  -0.045  53.076  0.00  0.00    +0.000 A 
ATOM      5  C   UNL     1      24.556   1.016  52.371  0.00  0.00    +0.000 A 
ATOM      6  C   UNL     1      25.998   1.398  52.543  0.00  0.00    +0.000 A 
ATOM      7  O   UNL     1      26.762   0.849  53.327  0.00  0.00    +0.000 OA
ATOM      8  C   UNL     1      26.471   2.511  51.719  0.00  0.00    +0.000 A 
ATOM      9  C   UNL     1      25.623   3.127  50.889  0.00  0.00    +0.000 A 
ATOM     10  O   UNL     1      24.293   2.805  50.743  0.00  0.00    +0.000 OA
ATOM     11  C   UNL     1      23.780   1.749  51.460  0.00  0.00    +0.000 A 
ENDROOT
BRANCH   1  16
ATOM     12  C   UNL     1      20.546   5.064  47.631  0.00  0.00    +0.000 C 
ATOM     13  N   UNL     1      20.174   3.907  48.419  0.00  0.00    +0.000 N 
ATOM     14  C   UNL     1      20.737   2.635  48.002  0.00  0.00    +0.000 C 
ATOM     15  C   UNL     1      21.508   1.866  49.023  0.00  0.00    +0.000 C 
ATOM     16  C   UNL     1      21.591   2.216  50.314  0.00  0.00    +0.000 C 
ATOM     17  C   UNL     1      20.880   3.418  50.854  0.00  0.00    +0.000 C 
ATOM     18  C   UNL     1      19.979   4.156  49.842  0.00  0.00    +0.000 C 
ATOM     19  H   UNL     1      19.209   3.728  48.143  0.00  0.00    +0.000 HD
ENDBRANCH   1  16
BRANCH   9  20
ATOM     20  C   UNL     1      26.069   4.247  50.049  0.00  0.00    +0.000 A 
ATOM     21  C   UNL     1      27.199   4.065  49.234  0.00  0.00    +0.000 A 
ATOM     22  C   UNL     1      27.670   5.103  48.431  0.00  0.00    +0.000 A 
ATOM     23  C   UNL     1      27.014   6.335  48.424  0.00  0.00    +0.000 A 
ATOM     24  C   UNL     1      25.891   6.527  49.226  0.00  0.00    +0.000 A 
ATOM     25  C   UNL     1      25.418   5.490  50.036  0.00  0.00    +0.000 A 
ATOM     26 CL   UNL     1      24.017   5.796  51.003  0.00  0.00    +0.000 Cl
ENDBRANCH   9  20
BRANCH   2  27
ATOM     27  O   UNL     1      20.553   0.026  51.759  0.00  0.00    +0.000 OA
ATOM     28  H   UNL     1      20.068  -0.401  52.436  0.00  0.00    +0.000 HD
ENDBRANCH   2  27
BRANCH   4  29
ATOM     29  O   UNL     1      24.689  -0.772  53.978  0.00  0.00    +0.000 OA
ATOM     30  H   UNL     1      25.581  -0.991  53.796  0.00  0.00    +0.000 HD
ENDBRANCH   4  29
TORSDOF 4
ENDMDL
MODEL 8
REMARK VINA RESULT:    -8.156      2.755      5.377
REMARK INTER + INTRA:         -10.327
REMARK INTER:                  -9.716
REMARK INTRA:                  -0.611
REMARK UNBOUND:                -0.741
REMARK  Name = 
REMARK  5 active torsions:
REMARK  status: ('A' for Active; 'I' for Inactive)
REMARK    1  A    between atoms: C_1  and  N_2
REMARK    2  A    between atoms: C_5  and  C_6
REMARK    3  A    between atoms: C_7  and  O_8
REMARK    4  A    between atoms: C_10  and  O_11
REMARK    5  A    between atoms: C_16  and  C_17
REMARK                            x       y       z     vdW  Elec       q    Type
REMARK                         _______ _______ _______ _____ _____    ______ ____
ROOT
ATOM      1  C   UNL     1      22.903   0.586  52.470  0.00  0.00    +0.000 A 
ATOM      2  C   UNL     1      22.999  -0.518  53.331  0.00  0.00    +0.000 A 
ATOM      3  C   UNL     1      24.233  -0.941  53.825  0.00  0.00    +0.000 A 
ATOM      4  C   UNL     1      25.394  -0.262  53.455  0.00  0.00    +0.000 A 
ATOM      5  C   UNL     1      25.331   0.841  52.588  0.00  0.00    +0.000 A 
ATOM      6  C   UNL     1      26.554   1.593  52.147  0.00  0.00    +0.000 A 
ATOM      7  O   UNL     1      27.690   1.336  52.528  0.00  0.00    +0.000 OA
ATOM      8  C   UNL     1      26.326   2.704  51.223  0.00  0.00    +0.000 A 
ATOM      9  C   UNL     1      25.081   3.000  50.838  0.00  0.00    +0.000 A 
ATOM     10  O   UNL     1      23.950   2.337  51.256  0.00  0.00    +0.000 OA
ATOM     11  C   UNL     1      24.083   1.260  52.101  0.00  0.00    +0.000 A 
ENDROOT
BRANCH   1  16
ATOM     12  C   UNL     1      18.812   3.086  49.857  0.00  0.00    +0.000 C 
ATOM     13  N   UNL     1      19.113   2.086  50.860  0.00  0.00    +0.000 N 
ATOM     14  C   UNL     1      19.679   0.839  50.378  0.00  0.00    +0.000 C 
ATOM     15  C   UNL     1      20.984   0.413  50.965  0.00  0.00    +0.000 C 
ATOM     16  C   UNL     1      21.581   1.039  51.988  0.00  0.00    +0.000 C 
ATOM     17  C   UNL     1      20.961   2.226  52.658  0.00  0.00    +0.000 C 
ATOM     18  C   UNL     1      19.556   2.607  52.148  0.00  0.00    +0.000 C 
ATOM     19  H   UNL     1      18.196   1.728  51.127  0.00  0.00    +0.000 HD
ENDBRANCH   1  16
BRANCH   9  20
ATOM     20  C   UNL     1      24.821   4.110  49.910  0.00  0.00    +0.000 A 
ATOM     21  C   UNL     1      25.715   5.194  49.894  0.00  0.00    +0.000 A 
ATOM     22  C   UNL     1      25.502   6.278  49.043  0.00  0.00    +0.000 A 
ATOM     23  C   UNL     1      24.398   6.290  48.189  0.00  0.00    +0.000 A 
ATOM     24  C   UNL     1      23.505   5.220  48.194  0.00  0.00    +0.000 A 
ATOM     25  C   UNL     1      23.713   4.134  49.049  0.00  0.00    +0.000 A 
ATOM     26 CL   UNL     1      22.569   2.837  49.000  0.00  0.00    +0.000 Cl
ENDBRANCH   9  20
BRANCH   2  27
ATOM     27  O   UNL     1      21.863  -1.192  53.691  0.00  0.00    +0.000 OA
ATOM     28  H   UNL     1      21.926  -1.985  54.186  0.00  0.00    +0.000 HD
ENDBRANCH   2  27
BRANCH   4  29
ATOM     29  O   UNL     1      26.590  -0.690  53.956  0.00  0.00    +0.000 OA
ATOM     30  H   UNL     1      26.697  -1.583  54.215  0.00  0.00    +0.000 HD
ENDBRANCH   4  29
TORSDOF 4
ENDMDL
MODEL 9
REMARK VINA RESULT:    -7.918      2.500      4.070
REMARK INTER + INTRA:         -10.047
REMARK INTER:                  -9.528
REMARK INTRA:                  -0.520
REMARK UNBOUND:                -0.741
REMARK  Name = 
REMARK  5 active torsions:
REMARK  status: ('A' for Active; 'I' for Inactive)
REMARK    1  A    between atoms: C_1  and  N_2
REMARK    2  A    between atoms: C_5  and  C_6
REMARK    3  A    between atoms: C_7  and  O_8
REMARK    4  A    between atoms: C_10  and  O_11
REMARK    5  A    between atoms: C_16  and  C_17
REMARK                            x       y       z     vdW  Elec       q    Type
REMARK                         _______ _______ _______ _____ _____    ______ ____
ROOT
ATOM      1  C   UNL     1      23.024   1.891  52.360  0.00  0.00    +0.000 A 
ATOM      2  C   UNL     1      21.870   1.312  52.910  0.00  0.00    +0.000 A 
ATOM      3  C   UNL     1      20.603   1.617  52.412  0.00  0.00    +0.000 A 
ATOM      4  C   UNL     1      20.476   2.516  51.352  0.00  0.00    +0.000 A 
ATOM      5  C   UNL     1      21.612   3.117  50.785  0.00  0.00    +0.000 A 
ATOM      6  C   UNL     1      21.526   4.103  49.656  0.00  0.00    +0.000 A 
ATOM      7  O   UNL     1      20.478   4.435  49.116  0.00  0.00    +0.000 OA
ATOM      8  C   UNL     1      22.797   4.660  49.191  0.00  0.00    +0.000 A 
ATOM      9  C   UNL     1      23.940   4.268  49.762  0.00  0.00    +0.000 A 
ATOM     10  O   UNL     1      24.034   3.345  50.779  0.00  0.00    +0.000 OA
ATOM     11  C   UNL     1      22.881   2.799  51.293  0.00  0.00    +0.000 A 
ENDROOT
BRANCH   1  16
ATOM     12  C   UNL     1      28.375   1.032  53.023  0.00  0.00    +0.000 C 
ATOM     13  N   UNL     1      27.087   0.909  53.673  0.00  0.00    +0.000 N 
ATOM     14  C   UNL     1      26.454   2.146  54.092  0.00  0.00    +0.000 C 
ATOM     15  C   UNL     1      25.077   2.412  53.580  0.00  0.00    +0.000 C 
ATOM     16  C   UNL     1      24.358   1.524  52.880  0.00  0.00    +0.000 C 
ATOM     17  C   UNL     1      24.878   0.155  52.569  0.00  0.00    +0.000 C 
ATOM     18  C   UNL     1      26.248  -0.183  53.194  0.00  0.00    +0.000 C 
ATOM     19  H   UNL     1      27.319   0.551  54.600  0.00  0.00    +0.000 HD
ENDBRANCH   1  16
BRANCH   9  20
ATOM     20  C   UNL     1      25.231   4.810  49.317  0.00  0.00    +0.000 A 
ATOM     21  C   UNL     1      25.265   6.111  48.788  0.00  0.00    +0.000 A 
ATOM     22  C   UNL     1      26.464   6.664  48.338  0.00  0.00    +0.000 A 
ATOM     23  C   UNL     1      27.647   5.927  48.418  0.00  0.00    +0.000 A 
ATOM     24  C   UNL     1      27.627   4.636  48.942  0.00  0.00    +0.000 A 
ATOM     25  C   UNL     1      26.426   4.078  49.391  0.00  0.00    +0.000 A 
ATOM     26 CL   UNL     1      26.473   2.473  50.035  0.00  0.00    +0.000 Cl
ENDBRANCH   9  20
BRANCH   2  27
ATOM     27  O   UNL     1      21.988   0.436  53.955  0.00  0.00    +0.000 OA
ATOM     28  H   UNL     1      22.412   0.705  54.746  0.00  0.00    +0.000 HD
ENDBRANCH   2  27
BRANCH   4  29
ATOM     29  O   UNL     1      19.228   2.794  50.876  0.00  0.00    +0.000 OA
ATOM     30  H   UNL     1      18.553   3.074  51.463  0.00  0.00    +0.000 HD
ENDBRANCH   4  29
TORSDOF 4
ENDMDL
