MODEL 1
REMARK VINA RESULT:    -8.021      0.000      0.000
REMARK INTER + INTRA:          -9.823
REMARK INTER:                  -9.428
REMARK INTRA:                  -0.395
REMARK UNBOUND:                -0.395
REMARK  Name = 
REMARK  5 active torsions:
REMARK  status: ('A' for Active; 'I' for Inactive)
REMARK    1  A    between atoms: C_1  and  N_2
REMARK    2  A    between atoms: N_2  and  C_3
REMARK    3  A    between atoms: N_2  and  C_4
REMARK    4  A    between atoms: C_9  and  S_10
REMARK    5  A    between atoms: S_10  and  N_13
REMARK                            x       y       z     vdW  Elec       q    Type
REMARK                         _______ _______ _______ _____ _____    ______ ____
ROOT
ATOM      1  C   UNL     1      26.216   0.049  53.357  0.00  0.00    +0.000 A 
ATOM      2  C   UNL     1      26.278   0.979  52.299  0.00  0.00    +0.000 A 
ATOM      3  C   UNL     1      25.148   1.630  51.819  0.00  0.00    +0.000 A 
ATOM      4  C   UNL     1      23.895   1.277  52.296  0.00  0.00    +0.000 A 
ATOM      5  C   UNL     1      23.728   0.270  53.267  0.00  0.00    +0.000 A 
ATOM      6  C   UNL     1      22.454  -0.198  53.698  0.00  0.00    +0.000 A 
ATOM      7  C   UNL     1      22.333  -1.000  54.839  0.00  0.00    +0.000 A 
ATOM      8  C   UNL     1      23.467  -1.377  55.539  0.00  0.00    +0.000 A 
ATOM      9  C   UNL     1      24.725  -1.030  55.052  0.00  0.00    +0.000 A 
ATOM     10  C   UNL     1      24.911  -0.262  53.879  0.00  0.00    +0.000 A 
ENDROOT
BRANCH   1  12
ATOM     11  C   UNL     1      28.233   0.383  54.732  0.00  0.00    +0.000 C 
ATOM     12  N   UNL     1      27.414  -0.492  53.889  0.00  0.00    +0.000 N 
ATOM     13  C   UNL     1      28.185  -1.409  53.039  0.00  0.00    +0.000 C 
ENDBRANCH   1  12
BRANCH   6  14
ATOM     14  S   UNL     1      20.917   0.189  52.851  0.00  0.00    +0.000 S 
ATOM     15  O   UNL     1      21.188   0.179  51.426  0.00  0.00    +0.000 OA
ATOM     16  O   UNL     1      19.907  -0.700  53.391  0.00  0.00    +0.000 OA
BRANCH  14  17
ATOM     17  N   UNL     1      20.442   1.725  53.263  0.00  0.00    +0.000 N 
ATOM     18  C   UNL     1      20.143   2.629  52.260  0.00  0.00    +0.000 A 
ATOM     19  N   UNL     1      18.959   2.581  51.640  0.00  0.00    +0.000 NA
ATOM     20  C   UNL     1      18.725   3.608  50.782  0.00  0.00    +0.000 A 
ATOM     21  C   UNL     1      19.641   4.602  50.502  0.00  0.00    +0.000 A 
ATOM     22 BR   UNL     1      19.297   5.978  49.273  0.00  0.00    +0.000 Br
ATOM     23  C   UNL     1      20.827   4.522  51.189  0.00  0.00    +0.000 A 
ATOM     24  N   UNL     1      21.089   3.556  52.098  0.00  0.00    +0.000 NA
ATOM     25  H   UNL     1      20.374   1.991  54.208  0.00  0.00    +0.000 HD
ENDBRANCH  14  17
ENDBRANCH   6  14
TORSDOF 3
ENDMDL
MODEL 2
REMARK VINA RESULT:    -7.610      2.909      4.126
REMARK INTER + INTRA:          -9.340
REMARK INTER:                  -9.091
REMARK INTRA:                  -0.249
REMARK UNBOUND:                -0.395
REMARK  Name = 
REMARK  5 active torsions:
REMARK  status: ('A' for Active; 'I' for Inactive)
REMARK    1  A    between atoms: C_1  and  N_2
REMARK    2  A    between atoms: N_2  and  C_3
REMARK    3  A    between atoms: N_2  and  C_4
REMARK    4  A    between atoms: C_9  and  S_10
REMARK    5  A    between atoms: S_10  and  N_13
REMARK                            x       y       z     vdW  Elec       q    Type
REMARK                         _______ _______ _______ _____ _____    ______ ____
ROOT
ATOM      1  C   UNL     1      27.024   0.881  53.194  0.00  0.00    +0.000 A 
ATOM      2  C   UNL     1      26.351  -0.041  54.023  0.00  0.00    +0.000 A 
ATOM      3  C   UNL     1      25.008  -0.349  53.849  0.00  0.00    +0.000 A 
ATOM      4  C   UNL     1      24.256   0.350  52.917  0.00  0.00    +0.000 A 
ATOM      5  C   UNL     1      24.818   1.373  52.128  0.00  0.00    +0.000 A 
ATOM      6  C   UNL     1      24.055   2.188  51.243  0.00  0.00    +0.000 A 
ATOM      7  C   UNL     1      24.686   3.003  50.295  0.00  0.00    +0.000 A 
ATOM      8  C   UNL     1      26.068   3.050  50.239  0.00  0.00    +0.000 A 
ATOM      9  C   UNL     1      26.821   2.355  51.183  0.00  0.00    +0.000 A 
ATOM     10  C   UNL     1      26.239   1.554  52.193  0.00  0.00    +0.000 A 
ENDROOT
BRANCH   1  12
ATOM     11  C   UNL     1      29.232  -0.120  53.640  0.00  0.00    +0.000 C 
ATOM     12  N   UNL     1      28.423   1.065  53.338  0.00  0.00    +0.000 N 
ATOM     13  C   UNL     1      28.885   2.296  53.992  0.00  0.00    +0.000 C 
ENDBRANCH   1  12
BRANCH   6  14
ATOM     14  S   UNL     1      22.259   2.244  51.248  0.00  0.00    +0.000 S 
ATOM     15  O   UNL     1      21.840   2.730  52.548  0.00  0.00    +0.000 OA
ATOM     16  O   UNL     1      21.861   2.964  50.054  0.00  0.00    +0.000 OA
BRANCH  14  17
ATOM     17  N   UNL     1      21.668   0.703  51.071  0.00  0.00    +0.000 N 
ATOM     18  C   UNL     1      20.348   0.447  51.394  0.00  0.00    +0.000 A 
ATOM     19  N   UNL     1      19.370   0.769  50.540  0.00  0.00    +0.000 NA
ATOM     20  C   UNL     1      18.134   0.335  50.901  0.00  0.00    +0.000 A 
ATOM     21  C   UNL     1      17.866  -0.331  52.079  0.00  0.00    +0.000 A 
ATOM     22 BR   UNL     1      16.135  -0.871  52.565  0.00  0.00    +0.000 Br
ATOM     23  C   UNL     1      18.955  -0.578  52.879  0.00  0.00    +0.000 A 
ATOM     24  N   UNL     1      20.214  -0.222  52.540  0.00  0.00    +0.000 NA
ATOM     25  H   UNL     1      22.248  -0.021  50.741  0.00  0.00    +0.000 HD
ENDBRANCH  14  17
ENDBRANCH   6  14
TORSDOF 3
ENDMDL
MODEL 3
REMARK VINA RESULT:    -7.493      3.768      7.234
REMARK INTER + INTRA:          -9.203
REMARK INTER:                  -9.346
REMARK INTRA:                   0.144
REMARK UNBOUND:                -0.395
REMARK  Name = 
REMARK  5 active torsions:
REMARK  status: ('A' for Active; 'I' for Inactive)
REMARK    1  A    between atoms: C_1  and  N_2
REMARK    2  A    between atoms: N_2  and  C_3
REMARK    3  A    between atoms: N_2  and  C_4
REMARK    4  A    between atoms: C_9  and  S_10
REMARK    5  A    between atoms: S_10  and  N_13
REMARK                            x       y       z     vdW  Elec       q    Type
REMARK                         _______ _______ _______ _____ _____    ______ ____
ROOT
ATOM      1  C   UNL     1      19.870  -0.284  53.058  0.00  0.00    +0.000 A 
ATOM      2  C   UNL     1      20.759  -1.234  53.601  0.00  0.00    +0.000 A 
ATOM      3  C   UNL     1      22.091  -0.936  53.862  0.00  0.00    +0.000 A 
ATOM      4  C   UNL     1      22.613   0.287  53.470  0.00  0.00    +0.000 A 
ATOM      5  C   UNL     1      21.826   1.251  52.810  0.00  0.00    +0.000 A 
ATOM      6  C   UNL     1      22.351   2.470  52.292  0.00  0.00    +0.000 A 
ATOM      7  C   UNL     1      21.499   3.503  51.886  0.00  0.00    +0.000 A 
ATOM      8  C   UNL     1      20.127   3.329  51.951  0.00  0.00    +0.000 A 
ATOM      9  C   UNL     1      19.605   2.096  52.335  0.00  0.00    +0.000 A 
ATOM     10  C   UNL     1      20.417   1.001  52.711  0.00  0.00    +0.000 A 
ENDROOT
BRANCH   1  12
ATOM     11  C   UNL     1      18.000  -1.772  53.661  0.00  0.00    +0.000 C 
ATOM     12  N   UNL     1      18.493  -0.603  52.927  0.00  0.00    +0.000 N 
ATOM     13  C   UNL     1      17.870  -0.406  51.613  0.00  0.00    +0.000 C 
ENDBRANCH   1  12
BRANCH   6  14
ATOM     14  S   UNL     1      24.110   2.797  52.122  0.00  0.00    +0.000 S 
ATOM     15  O   UNL     1      24.615   1.939  51.068  0.00  0.00    +0.000 OA
ATOM     16  O   UNL     1      24.258   4.235  52.003  0.00  0.00    +0.000 OA
BRANCH  14  17
ATOM     17  N   UNL     1      24.880   2.372  53.530  0.00  0.00    +0.000 N 
ATOM     18  C   UNL     1      26.076   1.681  53.462  0.00  0.00    +0.000 A 
ATOM     19  N   UNL     1      27.216   2.331  53.199  0.00  0.00    +0.000 NA
ATOM     20  C   UNL     1      28.339   1.573  53.305  0.00  0.00    +0.000 A 
ATOM     21  C   UNL     1      28.333   0.224  53.595  0.00  0.00    +0.000 A 
ATOM     22 BR   UNL     1      29.904  -0.799  53.685  0.00  0.00    +0.000 Br
ATOM     23  C   UNL     1      27.094  -0.326  53.820  0.00  0.00    +0.000 A 
ATOM     24  N   UNL     1      25.951   0.394  53.786  0.00  0.00    +0.000 NA
ATOM     25  H   UNL     1      24.491   2.608  54.403  0.00  0.00    +0.000 HD
ENDBRANCH  14  17
ENDBRANCH   6  14
TORSDOF 3
ENDMDL
MODEL 4
REMARK VINA RESULT:    -7.387      2.421      3.890
REMARK INTER + INTRA:          -9.078
REMARK INTER:                  -8.611
REMARK INTRA:                  -0.467
REMARK UNBOUND:                -0.395
REMARK  Name = 
REMARK  5 active torsions:
REMARK  status: ('A' for Active; 'I' for Inactive)
REMARK    1  A    between atoms: C_1  and  N_2
REMARK    2  A    between atoms: N_2  and  C_3
REMARK    3  A    between atoms: N_2  and  C_4
REMARK    4  A    between atoms: C_9  and  S_10
REMARK    5  A    between atoms: S_10  and  N_13
REMARK                            x       y       z     vdW  Elec       q    Type
REMARK                         _______ _______ _______ _____ _____    ______ ____
ROOT
ATOM      1  C   UNL     1      25.705   0.309  52.940  0.00  0.00    +0.000 A 
ATOM      2  C   UNL     1      24.533  -0.215  53.524  0.00  0.00    +0.000 A 
ATOM      3  C   UNL     1      23.270   0.270  53.211  0.00  0.00    +0.000 A 
ATOM      4  C   UNL     1      23.142   1.385  52.397  0.00  0.00    +0.000 A 
ATOM      5  C   UNL     1      24.267   2.047  51.866  0.00  0.00    +0.000 A 
ATOM      6  C   UNL     1      24.182   3.259  51.120  0.00  0.00    +0.000 A 
ATOM      7  C   UNL     1      25.283   3.733  50.396  0.00  0.00    +0.000 A 
ATOM      8  C   UNL     1      26.481   3.041  50.433  0.00  0.00    +0.000 A 
ATOM      9  C   UNL     1      26.609   1.927  51.260  0.00  0.00    +0.000 A 
ATOM     10  C   UNL     1      25.547   1.429  52.051  0.00  0.00    +0.000 A 
ENDROOT
BRANCH   1  12
ATOM     11  C   UNL     1      27.131  -1.694  52.763  0.00  0.00    +0.000 C 
ATOM     12  N   UNL     1      26.957  -0.306  53.201  0.00  0.00    +0.000 N 
ATOM     13  C   UNL     1      27.623   0.017  54.469  0.00  0.00    +0.000 C 
ENDBRANCH   1  12
BRANCH   6  14
ATOM     14  S   UNL     1      22.696   4.264  51.029  0.00  0.00    +0.000 S 
ATOM     15  O   UNL     1      22.250   4.510  52.387  0.00  0.00    +0.000 OA
ATOM     16  O   UNL     1      23.004   5.387  50.165  0.00  0.00    +0.000 OA
BRANCH  14  17
ATOM     17  N   UNL     1      21.505   3.405  50.255  0.00  0.00    +0.000 N 
ATOM     18  C   UNL     1      20.190   3.574  50.647  0.00  0.00    +0.000 A 
ATOM     19  N   UNL     1      19.495   4.639  50.232  0.00  0.00    +0.000 NA
ATOM     20  C   UNL     1      18.176   4.618  50.558  0.00  0.00    +0.000 A 
ATOM     21  C   UNL     1      17.584   3.624  51.311  0.00  0.00    +0.000 A 
ATOM     22 BR   UNL     1      15.767   3.657  51.781  0.00  0.00    +0.000 Br
ATOM     23  C   UNL     1      18.414   2.599  51.693  0.00  0.00    +0.000 A 
ATOM     24  N   UNL     1      19.720   2.540  51.346  0.00  0.00    +0.000 NA
ATOM     25  H   UNL     1      21.731   2.782  49.527  0.00  0.00    +0.000 HD
ENDBRANCH  14  17
ENDBRANCH   6  14
TORSDOF 3
ENDMDL
MODEL 5
REMARK VINA RESULT:    -7.261      2.490      3.866
REMARK INTER + INTRA:          -8.930
REMARK INTER:                  -8.746
REMARK INTRA:                  -0.184
REMARK UNBOUND:                -0.395
REMARK  Name = 
REMARK  5 active torsions:
REMARK  status: ('A' for Active; 'I' for Inactive)
REMARK    1  A    between atoms: C_1  and  N_2
REMARK    2  A    between atoms: N_2  and  C_3
REMARK    3  A    between atoms: N_2  and  C_4
REMARK    4  A    between atoms: C_9  and  S_10
REMARK    5  A    between atoms: S_10  and  N_13
REMARK                            x       y       z     vdW  Elec       q    Type
REMARK                         _______ _______ _______ _____ _____    ______ ____
ROOT
ATOM      1  C   UNL     1      26.010   0.087  53.131  0.00  0.00    +0.000 A 
ATOM      2  C   UNL     1      24.960  -0.618  53.755  0.00  0.00    +0.000 A 
ATOM      3  C   UNL     1      23.629  -0.416  53.413  0.00  0.00    +0.000 A 
ATOM      4  C   UNL     1      23.291   0.591  52.523  0.00  0.00    +0.000 A 
ATOM      5  C   UNL     1      24.267   1.426  51.943  0.00  0.00    +0.000 A 
ATOM      6  C   UNL     1      23.951   2.541  51.114  0.00  0.00    +0.000 A 
ATOM      7  C   UNL     1      24.943   3.174  50.355  0.00  0.00    +0.000 A 
ATOM      8  C   UNL     1      26.254   2.738  50.436  0.00  0.00    +0.000 A 
ATOM      9  C   UNL     1      26.593   1.733  51.339  0.00  0.00    +0.000 A 
ATOM     10  C   UNL     1      25.643   1.089  52.166  0.00  0.00    +0.000 A 
ENDROOT
BRANCH   1  12
ATOM     11  C   UNL     1      27.828  -1.573  53.027  0.00  0.00    +0.000 C 
ATOM     12  N   UNL     1      27.356  -0.246  53.431  0.00  0.00    +0.000 N 
ATOM     13  C   UNL     1      27.909   0.231  54.705  0.00  0.00    +0.000 C 
ENDBRANCH   1  12
BRANCH   6  14
ATOM     14  S   UNL     1      22.296   3.222  50.957  0.00  0.00    +0.000 S 
ATOM     15  O   UNL     1      21.409   2.136  50.589  0.00  0.00    +0.000 OA
ATOM     16  O   UNL     1      22.038   3.975  52.170  0.00  0.00    +0.000 OA
BRANCH  14  17
ATOM     17  N   UNL     1      22.279   4.329  49.720  0.00  0.00    +0.000 N 
ATOM     18  C   UNL     1      21.618   5.530  49.900  0.00  0.00    +0.000 A 
ATOM     19  N   UNL     1      22.196   6.520  50.590  0.00  0.00    +0.000 NA
ATOM     20  C   UNL     1      21.516   7.697  50.571  0.00  0.00    +0.000 A 
ATOM     21  C   UNL     1      20.294   7.870  49.954  0.00  0.00    +0.000 A 
ATOM     22 BR   UNL     1      19.363   9.500  49.993  0.00  0.00    +0.000 Br
ATOM     23  C   UNL     1      19.800   6.768  49.301  0.00  0.00    +0.000 A 
ATOM     24  N   UNL     1      20.462   5.591  49.237  0.00  0.00    +0.000 NA
ATOM     25  H   UNL     1      22.732   4.133  48.868  0.00  0.00    +0.000 HD
ENDBRANCH  14  17
ENDBRANCH   6  14
TORSDOF 3
ENDMDL
MODEL 6
REMARK VINA RESULT:    -7.134      3.113      4.629
REMARK INTER + INTRA:          -8.781
REMARK INTER:                  -8.984
REMARK INTRA:                   0.204
REMARK UNBOUND:                -0.395
REMARK  Name = 
REMARK  5 active torsions:
REMARK  status: ('A' for Active; 'I' for Inactive)
REMARK    1  A    between atoms: C_1  and  N_2
REMARK    2  A    between atoms: N_2  and  C_3
REMARK    3  A    between atoms: N_2  and  C_4
REMARK    4  A    between atoms: C_9  and  S_10
REMARK    5  A    between atoms: S_10  and  N_13
REMARK                            x       y       z     vdW  Elec       q    Type
REMARK                         _______ _______ _______ _____ _____    ______ ____
ROOT
ATOM      1  C   UNL     1      22.753  -0.140  53.388  0.00  0.00    +0.000 A 
ATOM      2  C   UNL     1      21.541   0.465  52.997  0.00  0.00    +0.000 A 
ATOM      3  C   UNL     1      21.485   1.438  52.008  0.00  0.00    +0.000 A 
ATOM      4  C   UNL     1      22.659   1.933  51.462  0.00  0.00    +0.000 A 
ATOM      5  C   UNL     1      23.923   1.472  51.880  0.00  0.00    +0.000 A 
ATOM      6  C   UNL     1      25.151   2.035  51.426  0.00  0.00    +0.000 A 
ATOM      7  C   UNL     1      26.368   1.382  51.660  0.00  0.00    +0.000 A 
ATOM      8  C   UNL     1      26.387   0.196  52.372  0.00  0.00    +0.000 A 
ATOM      9  C   UNL     1      25.207  -0.294  52.929  0.00  0.00    +0.000 A 
ATOM     10  C   UNL     1      23.957   0.346  52.767  0.00  0.00    +0.000 A 
ENDROOT
BRANCH   1  12
ATOM     11  C   UNL     1      21.459  -1.903  54.525  0.00  0.00    +0.000 C 
ATOM     12  N   UNL     1      22.736  -1.215  54.314  0.00  0.00    +0.000 N 
ATOM     13  C   UNL     1      23.562  -1.088  55.521  0.00  0.00    +0.000 C 
ENDBRANCH   1  12
BRANCH   6  14
ATOM     14  S   UNL     1      25.258   3.587  50.528  0.00  0.00    +0.000 S 
ATOM     15  O   UNL     1      26.657   3.822  50.225  0.00  0.00    +0.000 OA
ATOM     16  O   UNL     1      24.297   3.509  49.445  0.00  0.00    +0.000 OA
BRANCH  14  17
ATOM     17  N   UNL     1      24.741   4.820  51.512  0.00  0.00    +0.000 N 
ATOM     18  C   UNL     1      23.700   5.626  51.090  0.00  0.00    +0.000 A 
ATOM     19  N   UNL     1      22.435   5.203  51.192  0.00  0.00    +0.000 NA
ATOM     20  C   UNL     1      21.497   6.137  50.887  0.00  0.00    +0.000 A 
ATOM     21  C   UNL     1      21.793   7.409  50.440  0.00  0.00    +0.000 A 
ATOM     22 BR   UNL     1      20.466   8.655  49.981  0.00  0.00    +0.000 Br
ATOM     23  C   UNL     1      23.131   7.709  50.357  0.00  0.00    +0.000 A 
ATOM     24  N   UNL     1      24.104   6.838  50.706  0.00  0.00    +0.000 NA
ATOM     25  H   UNL     1      25.170   4.977  52.384  0.00  0.00    +0.000 HD
ENDBRANCH  14  17
ENDBRANCH   6  14
TORSDOF 3
ENDMDL
MODEL 7
REMARK VINA RESULT:    -6.873      3.201      4.026
REMARK INTER + INTRA:          -8.474
REMARK INTER:                  -8.372
REMARK INTRA:                  -0.102
REMARK UNBOUND:                -0.395
REMARK  Name = 
REMARK  5 active torsions:
REMARK  status: ('A' for Active; 'I' for Inactive)
REMARK    1  A    between atoms: C_1  and  N_2
REMARK    2  A    between atoms: N_2  and  C_3
REMARK    3  A    between atoms: N_2  and  C_4
REMARK    4  A    between atoms: C_9  and  S_10
REMARK    5  A    between atoms: S_10  and  N_13
REMARK                            x       y       z     vdW  Elec       q    Type
REMARK                         _______ _______ _______ _____ _____    ______ ____
ROOT
ATOM      1  C   UNL     1      24.999   0.527  52.912  0.00  0.00    +0.000 A 
ATOM      2  C   UNL     1      26.008   1.374  52.408  0.00  0.00    +0.000 A 
ATOM      3  C   UNL     1      25.743   2.672  51.990  0.00  0.00    +0.000 A 
ATOM      4  C   UNL     1      24.435   3.127  51.941  0.00  0.00    +0.000 A 
ATOM      5  C   UNL     1      23.351   2.307  52.311  0.00  0.00    +0.000 A 
ATOM      6  C   UNL     1      21.988   2.698  52.168  0.00  0.00    +0.000 A 
ATOM      7  C   UNL     1      20.965   1.970  52.786  0.00  0.00    +0.000 A 
ATOM      8  C   UNL     1      21.271   0.833  53.513  0.00  0.00    +0.000 A 
ATOM      9  C   UNL     1      22.585   0.372  53.552  0.00  0.00    +0.000 A 
ATOM     10  C   UNL     1      23.654   1.039  52.908  0.00  0.00    +0.000 A 
ENDROOT
BRANCH   1  12
ATOM     11  C   UNL     1      25.330  -0.895  54.897  0.00  0.00    +0.000 C 
ATOM     12  N   UNL     1      25.346  -0.743  53.440  0.00  0.00    +0.000 N 
ATOM     13  C   UNL     1      26.412  -1.494  52.764  0.00  0.00    +0.000 C 
ENDBRANCH   1  12
BRANCH   6  14
ATOM     14  S   UNL     1      21.463   4.129  51.217  0.00  0.00    +0.000 S 
ATOM     15  O   UNL     1      22.036   4.008  49.891  0.00  0.00    +0.000 OA
ATOM     16  O   UNL     1      20.024   4.225  51.367  0.00  0.00    +0.000 OA
BRANCH  14  17
ATOM     17  N   UNL     1      22.088   5.502  51.912  0.00  0.00    +0.000 N 
ATOM     18  C   UNL     1      22.802   6.388  51.127  0.00  0.00    +0.000 A 
ATOM     19  N   UNL     1      22.162   7.252  50.331  0.00  0.00    +0.000 NA
ATOM     20  C   UNL     1      22.963   8.167  49.726  0.00  0.00    +0.000 A 
ATOM     21  C   UNL     1      24.337   8.191  49.850  0.00  0.00    +0.000 A 
ATOM     22 BR   UNL     1      25.413   9.443  48.958  0.00  0.00    +0.000 Br
ATOM     23  C   UNL     1      24.871   7.234  50.679  0.00  0.00    +0.000 A 
ATOM     24  N   UNL     1      24.116   6.338  51.353  0.00  0.00    +0.000 NA
ATOM     25  H   UNL     1      21.952   5.683  52.870  0.00  0.00    +0.000 HD
ENDBRANCH  14  17
ENDBRANCH   6  14
TORSDOF 3
ENDMDL
MODEL 8
REMARK VINA RESULT:    -6.685      3.393      4.634
REMARK INTER + INTRA:          -8.252
REMARK INTER:                  -7.868
REMARK INTRA:                  -0.384
REMARK UNBOUND:                -0.395
REMARK  Name = 
REMARK  5 active torsions:
REMARK  status: ('A' for Active; 'I' for Inactive)
REMARK    1  A    between atoms: C_1  and  N_2
REMARK    2  A    between atoms: N_2  and  C_3
REMARK    3  A    between atoms: N_2  and  C_4
REMARK    4  A    between atoms: C_9  and  S_10
REMARK    5  A    between atoms: S_10  and  N_13
REMARK                            x       y       z     vdW  Elec       q    Type
REMARK                         _______ _______ _______ _____ _____    ______ ____
ROOT
ATOM      1  C   UNL     1      24.706   0.753  52.725  0.00  0.00    +0.000 A 
ATOM      2  C   UNL     1      24.063  -0.250  53.479  0.00  0.00    +0.000 A 
ATOM      3  C   UNL     1      22.737  -0.603  53.262  0.00  0.00    +0.000 A 
ATOM      4  C   UNL     1      21.969   0.123  52.365  0.00  0.00    +0.000 A 
ATOM      5  C   UNL     1      22.497   1.219  51.655  0.00  0.00    +0.000 A 
ATOM      6  C   UNL     1      21.711   2.058  50.812  0.00  0.00    +0.000 A 
ATOM      7  C   UNL     1      22.319   2.960  49.931  0.00  0.00    +0.000 A 
ATOM      8  C   UNL     1      23.699   3.070  49.902  0.00  0.00    +0.000 A 
ATOM      9  C   UNL     1      24.468   2.347  50.811  0.00  0.00    +0.000 A 
ATOM     10  C   UNL     1      23.907   1.456  51.756  0.00  0.00    +0.000 A 
ENDROOT
BRANCH   1  12
ATOM     11  C   UNL     1      27.006  -0.129  52.640  0.00  0.00    +0.000 C 
ATOM     12  N   UNL     1      26.094   0.987  52.905  0.00  0.00    +0.000 N 
ATOM     13  C   UNL     1      26.500   1.849  54.021  0.00  0.00    +0.000 C 
ENDBRANCH   1  12
BRANCH   6  14
ATOM     14  S   UNL     1      19.915   2.036  50.789  0.00  0.00    +0.000 S 
ATOM     15  O   UNL     1      19.455   2.438  52.104  0.00  0.00    +0.000 OA
ATOM     16  O   UNL     1      19.503   2.796  49.625  0.00  0.00    +0.000 OA
BRANCH  14  17
ATOM     17  N   UNL     1      19.394   0.481  50.528  0.00  0.00    +0.000 N 
ATOM     18  C   UNL     1      18.127   0.116  50.943  0.00  0.00    +0.000 A 
ATOM     19  N   UNL     1      17.056   0.448  50.212  0.00  0.00    +0.000 NA
ATOM     20  C   UNL     1      15.886  -0.092  50.641  0.00  0.00    +0.000 A 
ATOM     21  C   UNL     1      15.767  -0.871  51.775  0.00  0.00    +0.000 A 
ATOM     22 BR   UNL     1      14.122  -1.558  52.362  0.00  0.00    +0.000 Br
ATOM     23  C   UNL     1      16.939  -1.117  52.448  0.00  0.00    +0.000 A 
ATOM     24  N   UNL     1      18.139  -0.655  52.031  0.00  0.00    +0.000 NA
ATOM     25  H   UNL     1      19.980  -0.174  50.083  0.00  0.00    +0.000 HD
ENDBRANCH  14  17
ENDBRANCH   6  14
TORSDOF 3
ENDMDL
MODEL 9
REMARK VINA RESULT:    -6.534      2.704      4.138
REMARK INTER + INTRA:          -8.076
REMARK INTER:                  -7.833
REMARK INTRA:                  -0.242
REMARK UNBOUND:                -0.395
REMARK  Name = 
REMARK  5 active torsions:
REMARK  status: ('A' for Active; 'I' for Inactive)
REMARK    1  A    between atoms: C_1  and  N_2
REMARK    2  A    between atoms: N_2  and  C_3
REMARK    3  A    between atoms: N_2  and  C_4
REMARK    4  A    between atoms: C_9  and  S_10
REMARK    5  A    between atoms: S_10  and  N_13
REMARK                            x       y       z     vdW  Elec       q    Type
REMARK                         _______ _______ _______ _____ _____    ______ ____
ROOT
ATOM      1  C   UNL     1      24.530   0.859  52.551  0.00  0.00    +0.000 A 
ATOM      2  C   UNL     1      23.736  -0.095  53.219  0.00  0.00    +0.000 A 
ATOM      3  C   UNL     1      22.431  -0.373  52.833  0.00  0.00    +0.000 A 
ATOM      4  C   UNL     1      21.830   0.387  51.842  0.00  0.00    +0.000 A 
ATOM      5  C   UNL     1      22.509   1.442  51.202  0.00  0.00    +0.000 A 
ATOM      6  C   UNL     1      21.891   2.316  50.262  0.00  0.00    +0.000 A 
ATOM      7  C   UNL     1      22.660   3.171  49.464  0.00  0.00    +0.000 A 
ATOM      8  C   UNL     1      24.036   3.200  49.614  0.00  0.00    +0.000 A 
ATOM      9  C   UNL     1      24.637   2.443  50.617  0.00  0.00    +0.000 A 
ATOM     10  C   UNL     1      23.906   1.597  51.485  0.00  0.00    +0.000 A 
ENDROOT
BRANCH   1  12
ATOM     11  C   UNL     1      26.767  -0.155  52.759  0.00  0.00    +0.000 C 
ATOM     12  N   UNL     1      25.895   1.013  52.908  0.00  0.00    +0.000 N 
ATOM     13  C   UNL     1      26.203   1.856  54.071  0.00  0.00    +0.000 C 
ENDBRANCH   1  12
BRANCH   6  14
ATOM     14  S   UNL     1      20.114   2.399  50.006  0.00  0.00    +0.000 S 
ATOM     15  O   UNL     1      19.845   3.558  49.177  0.00  0.00    +0.000 OA
ATOM     16  O   UNL     1      19.695   1.086  49.555  0.00  0.00    +0.000 OA
BRANCH  14  17
ATOM     17  N   UNL     1      19.366   2.641  51.469  0.00  0.00    +0.000 N 
ATOM     18  C   UNL     1      17.986   2.718  51.515  0.00  0.00    +0.000 A 
ATOM     19  N   UNL     1      17.247   1.603  51.479  0.00  0.00    +0.000 NA
ATOM     20  C   UNL     1      15.917   1.797  51.681  0.00  0.00    +0.000 A 
ATOM     21  C   UNL     1      15.336   3.038  51.847  0.00  0.00    +0.000 A 
ATOM     22 BR   UNL     1      13.487   3.268  52.075  0.00  0.00    +0.000 Br
ATOM     23  C   UNL     1      16.205   4.102  51.839  0.00  0.00    +0.000 A 
ATOM     24  N   UNL     1      17.542   3.961  51.703  0.00  0.00    +0.000 NA
ATOM     25  H   UNL     1      19.897   2.728  52.293  0.00  0.00    +0.000 HD
ENDBRANCH  14  17
ENDBRANCH   6  14
TORSDOF 3
ENDMDL
