MODEL 1
REMARK VINA RESULT:    -8.193      0.000      0.000
REMARK INTER + INTRA:         -10.059
REMARK INTER:                  -9.629
REMARK INTRA:                  -0.430
REMARK UNBOUND:                -0.430
REMARK  Name = 
REMARK  4 active torsions:
REMARK  status: ('A' for Active; 'I' for Inactive)
REMARK    1  A    between atoms: C_1  and  C_2
REMARK    2  A    between atoms: C_2  and  N_3
REMARK    3  A    between atoms: N_3  and  C_4
REMARK    4  A    between atoms: C_14  and  C_16
REMARK                            x       y       z     vdW  Elec       q    Type
REMARK                         _______ _______ _______ _____ _____    ______ ____
ROOT
ATOM      1  C   UNL     1      22.421   5.163  48.146  0.00  0.00    +0.000 A 
ATOM      2  C   UNL     1      22.353   6.071  47.088  0.00  0.00    +0.000 A 
ATOM      3  C   UNL     1      23.345   7.032  46.928  0.00  0.00    +0.000 A 
ATOM      4  C   UNL     1      24.363   7.083  47.861  0.00  0.00    +0.000 A 
ATOM      5  N   UNL     1      24.459   6.255  48.920  0.00  0.00    +0.000 NA
ATOM      6  C   UNL     1      23.489   5.320  49.086  0.00  0.00    +0.000 A 
ATOM      7  N   UNL     1      23.650   4.394  50.107  0.00  0.00    +0.000 N 
ATOM      8  C   UNL     1      24.994   4.188  50.641  0.00  0.00    +0.000 C 
ATOM      9  C   UNL     1      25.121   2.692  50.994  0.00  0.00    +0.000 C 
ATOM     10  N   UNL     1      24.003   2.180  51.817  0.00  0.00    +0.000 N 
ATOM     11  C   UNL     1      24.098   1.202  52.817  0.00  0.00    +0.000 C 
ATOM     12  O   UNL     1      23.100   0.911  53.481  0.00  0.00    +0.000 OA
ATOM     13  C   UNL     1      22.654   2.620  51.405  0.00  0.00    +0.000 C 
ATOM     14  C   UNL     1      22.606   4.134  51.107  0.00  0.00    +0.000 C 
ENDROOT
BRANCH  11  15
ATOM     15  C   UNL     1      25.381   0.557  53.050  0.00  0.00    +0.000 A 
ATOM     16  C   UNL     1      25.791  -0.740  52.810  0.00  0.00    +0.000 A 
ATOM     17  C   UNL     1      27.179  -0.961  53.083  0.00  0.00    +0.000 A 
ATOM     18  C   UNL     1      27.988  -2.099  52.858  0.00  0.00    +0.000 A 
ATOM     19  C   UNL     1      29.329  -2.095  53.244  0.00  0.00    +0.000 A 
ATOM     20  C   UNL     1      29.877  -0.982  53.866  0.00  0.00    +0.000 A 
ATOM     21  C   UNL     1      29.103   0.159  54.092  0.00  0.00    +0.000 A 
ATOM     22  C   UNL     1      27.758   0.160  53.678  0.00  0.00    +0.000 A 
ATOM     23  S   UNL     1      26.628   1.451  53.810  0.00  0.00    +0.000 S 
ENDBRANCH  11  15
BRANCH   1  24
ATOM     24  N   UNL     1      21.454   4.159  48.350  0.00  0.00    +0.000 N 
ATOM     25  H   UNL     1      20.878   4.201  49.148  0.00  0.00    +0.000 HD
BRANCH  24  27
ATOM     26  C   UNL     1      22.383   2.043  47.685  0.00  0.00    +0.000 C 
ATOM     27  C   UNL     1      21.286   3.066  47.411  0.00  0.00    +0.000 C 
ENDBRANCH  24  27
ENDBRANCH   1  24
TORSDOF 3
ENDMDL
MODEL 2
REMARK VINA RESULT:    -7.928      3.392      7.482
REMARK INTER + INTRA:          -9.748
REMARK INTER:                  -9.335
REMARK INTRA:                  -0.413
REMARK UNBOUND:                -0.430
REMARK  Name = 
REMARK  4 active torsions:
REMARK  status: ('A' for Active; 'I' for Inactive)
REMARK    1  A    between atoms: C_1  and  C_2
REMARK    2  A    between atoms: C_2  and  N_3
REMARK    3  A    between atoms: N_3  and  C_4
REMARK    4  A    between atoms: C_14  and  C_16
REMARK                            x       y       z     vdW  Elec       q    Type
REMARK                         _______ _______ _______ _____ _____    ______ ____
ROOT
ATOM      1  C   UNL     1      22.040   0.165  53.756  0.00  0.00    +0.000 A 
ATOM      2  C   UNL     1      21.950  -0.712  54.839  0.00  0.00    +0.000 A 
ATOM      3  C   UNL     1      23.095  -1.325  55.337  0.00  0.00    +0.000 A 
ATOM      4  C   UNL     1      24.298  -1.073  54.708  0.00  0.00    +0.000 A 
ATOM      5  N   UNL     1      24.437  -0.265  53.638  0.00  0.00    +0.000 NA
ATOM      6  C   UNL     1      23.322   0.330  53.142  0.00  0.00    +0.000 A 
ATOM      7  N   UNL     1      23.482   1.252  52.117  0.00  0.00    +0.000 N 
ATOM      8  C   UNL     1      24.801   1.851  51.932  0.00  0.00    +0.000 C 
ATOM      9  C   UNL     1      24.581   3.311  51.488  0.00  0.00    +0.000 C 
ATOM     10  N   UNL     1      23.633   3.453  50.361  0.00  0.00    +0.000 N 
ATOM     11  C   UNL     1      23.711   4.404  49.335  0.00  0.00    +0.000 C 
ATOM     12  O   UNL     1      22.893   4.373  48.411  0.00  0.00    +0.000 OA
ATOM     13  C   UNL     1      22.411   2.628  50.449  0.00  0.00    +0.000 C 
ATOM     14  C   UNL     1      22.723   1.174  50.862  0.00  0.00    +0.000 C 
ENDROOT
BRANCH  11  15
ATOM     15  C   UNL     1      24.765   5.406  49.383  0.00  0.00    +0.000 A 
ATOM     16  C   UNL     1      26.012   5.428  48.788  0.00  0.00    +0.000 A 
ATOM     17  C   UNL     1      26.722   6.653  48.996  0.00  0.00    +0.000 A 
ATOM     18  C   UNL     1      27.954   7.101  48.463  0.00  0.00    +0.000 A 
ATOM     19  C   UNL     1      28.475   8.339  48.842  0.00  0.00    +0.000 A 
ATOM     20  C   UNL     1      27.799   9.134  49.757  0.00  0.00    +0.000 A 
ATOM     21  C   UNL     1      26.577   8.720  50.293  0.00  0.00    +0.000 A 
ATOM     22  C   UNL     1      26.043   7.483  49.888  0.00  0.00    +0.000 A 
ATOM     23  S   UNL     1      24.546   6.786  50.373  0.00  0.00    +0.000 S 
ENDBRANCH  11  15
BRANCH   1  24
ATOM     24  N   UNL     1      20.918   0.825  53.218  0.00  0.00    +0.000 N 
ATOM     25  H   UNL     1      20.976   1.789  53.021  0.00  0.00    +0.000 HD
BRANCH  24  27
ATOM     26  C   UNL     1      19.287   0.404  51.501  0.00  0.00    +0.000 C 
ATOM     27  C   UNL     1      19.680   0.119  52.946  0.00  0.00    +0.000 C 
ENDBRANCH  24  27
ENDBRANCH   1  24
TORSDOF 3
ENDMDL
MODEL 3
REMARK VINA RESULT:    -7.595      3.940      7.996
REMARK INTER + INTRA:          -9.357
REMARK INTER:                  -9.235
REMARK INTRA:                  -0.122
REMARK UNBOUND:                -0.430
REMARK  Name = 
REMARK  4 active torsions:
REMARK  status: ('A' for Active; 'I' for Inactive)
REMARK    1  A    between atoms: C_1  and  C_2
REMARK    2  A    between atoms: C_2  and  N_3
REMARK    3  A    between atoms: N_3  and  C_4
REMARK    4  A    between atoms: C_14  and  C_16
REMARK                            x       y       z     vdW  Elec       q    Type
REMARK                         _______ _______ _______ _____ _____    ______ ____
ROOT
ATOM      1  C   UNL     1      27.090   2.001  52.655  0.00  0.00    +0.000 A 
ATOM      2  C   UNL     1      28.363   1.514  52.957  0.00  0.00    +0.000 A 
ATOM      3  C   UNL     1      28.522   0.530  53.927  0.00  0.00    +0.000 A 
ATOM      4  C   UNL     1      27.400   0.087  54.599  0.00  0.00    +0.000 A 
ATOM      5  N   UNL     1      26.153   0.546  54.373  0.00  0.00    +0.000 NA
ATOM      6  C   UNL     1      25.992   1.513  53.433  0.00  0.00    +0.000 A 
ATOM      7  N   UNL     1      24.697   1.900  53.117  0.00  0.00    +0.000 N 
ATOM      8  C   UNL     1      23.607   0.990  53.454  0.00  0.00    +0.000 C 
ATOM      9  C   UNL     1      22.551   1.109  52.337  0.00  0.00    +0.000 C 
ATOM     10  N   UNL     1      22.168   2.504  52.029  0.00  0.00    +0.000 N 
ATOM     11  C   UNL     1      20.893   2.941  51.646  0.00  0.00    +0.000 C 
ATOM     12  O   UNL     1      20.686   4.147  51.483  0.00  0.00    +0.000 OA
ATOM     13  C   UNL     1      23.284   3.468  51.950  0.00  0.00    +0.000 C 
ATOM     14  C   UNL     1      24.273   3.306  53.123  0.00  0.00    +0.000 C 
ENDROOT
BRANCH  11  15
ATOM     15  C   UNL     1      19.839   1.957  51.453  0.00  0.00    +0.000 A 
ATOM     16  C   UNL     1      19.354   0.982  52.304  0.00  0.00    +0.000 A 
ATOM     17  C   UNL     1      18.228   0.272  51.777  0.00  0.00    +0.000 A 
ATOM     18  C   UNL     1      17.393  -0.698  52.379  0.00  0.00    +0.000 A 
ATOM     19  C   UNL     1      16.361  -1.287  51.646  0.00  0.00    +0.000 A 
ATOM     20  C   UNL     1      16.155  -0.939  50.319  0.00  0.00    +0.000 A 
ATOM     21  C   UNL     1      16.960   0.023  49.703  0.00  0.00    +0.000 A 
ATOM     22  C   UNL     1      17.982   0.632  50.452  0.00  0.00    +0.000 A 
ATOM     23  S   UNL     1      19.066   1.863  49.929  0.00  0.00    +0.000 S 
ENDBRANCH  11  15
BRANCH   1  24
ATOM     24  N   UNL     1      26.866   2.986  51.673  0.00  0.00    +0.000 N 
ATOM     25  H   UNL     1      26.919   3.937  51.925  0.00  0.00    +0.000 HD
BRANCH  24  27
ATOM     26  C   UNL     1      26.605   3.910  49.468  0.00  0.00    +0.000 C 
ATOM     27  C   UNL     1      26.560   2.633  50.300  0.00  0.00    +0.000 C 
ENDBRANCH  24  27
ENDBRANCH   1  24
TORSDOF 3
ENDMDL
MODEL 4
REMARK VINA RESULT:    -7.121      4.785      8.560
REMARK INTER + INTRA:          -8.799
REMARK INTER:                  -8.565
REMARK INTRA:                  -0.234
REMARK UNBOUND:                -0.430
REMARK  Name = 
REMARK  4 active torsions:
REMARK  status: ('A' for Active; 'I' for Inactive)
REMARK    1  A    between atoms: C_1  and  C_2
REMARK    2  A    between atoms: C_2  and  N_3
REMARK    3  A    between atoms: N_3  and  C_4
REMARK    4  A    between atoms: C_14  and  C_16
REMARK                            x       y       z     vdW  Elec       q    Type
REMARK                         _______ _______ _______ _____ _____    ______ ____
ROOT
ATOM      1  C   UNL     1      25.788   1.112  52.016  0.00  0.00    +0.000 A 
ATOM      2  C   UNL     1      27.099   0.642  52.106  0.00  0.00    +0.000 A 
ATOM      3  C   UNL     1      27.385  -0.484  52.871  0.00  0.00    +0.000 A 
ATOM      4  C   UNL     1      26.352  -1.087  53.560  0.00  0.00    +0.000 A 
ATOM      5  N   UNL     1      25.075  -0.656  53.537  0.00  0.00    +0.000 NA
ATOM      6  C   UNL     1      24.790   0.448  52.798  0.00  0.00    +0.000 A 
ATOM      7  N   UNL     1      23.459   0.822  52.680  0.00  0.00    +0.000 N 
ATOM      8  C   UNL     1      22.437  -0.183  52.957  0.00  0.00    +0.000 C 
ATOM      9  C   UNL     1      21.269   0.074  51.983  0.00  0.00    +0.000 C 
ATOM     10  N   UNL     1      20.814   1.482  51.959  0.00  0.00    +0.000 N 
ATOM     11  C   UNL     1      19.494   1.917  51.782  0.00  0.00    +0.000 C 
ATOM     12  O   UNL     1      19.236   3.122  51.851  0.00  0.00    +0.000 OA
ATOM     13  C   UNL     1      21.887   2.497  51.943  0.00  0.00    +0.000 C 
ATOM     14  C   UNL     1      22.995   2.185  52.971  0.00  0.00    +0.000 C 
ENDROOT
BRANCH  11  15
ATOM     15  C   UNL     1      18.457   0.931  51.523  0.00  0.00    +0.000 A 
ATOM     16  C   UNL     1      17.944  -0.066  52.330  0.00  0.00    +0.000 A 
ATOM     17  C   UNL     1      16.846  -0.770  51.740  0.00  0.00    +0.000 A 
ATOM     18  C   UNL     1      15.993  -1.760  52.283  0.00  0.00    +0.000 A 
ATOM     19  C   UNL     1      14.996  -2.338  51.495  0.00  0.00    +0.000 A 
ATOM     20  C   UNL     1      14.843  -1.960  50.169  0.00  0.00    +0.000 A 
ATOM     21  C   UNL     1      15.666  -0.978  49.610  0.00  0.00    +0.000 A 
ATOM     22  C   UNL     1      16.652  -0.380  50.415  0.00  0.00    +0.000 A 
ATOM     23  S   UNL     1      17.747   0.869  49.966  0.00  0.00    +0.000 S 
ENDBRANCH  11  15
BRANCH   1  24
ATOM     24  N   UNL     1      25.435   2.238  51.246  0.00  0.00    +0.000 N 
ATOM     25  H   UNL     1      24.483   2.462  51.129  0.00  0.00    +0.000 HD
BRANCH  24  27
ATOM     26  C   UNL     1      25.762   3.882  49.522  0.00  0.00    +0.000 C 
ATOM     27  C   UNL     1      26.442   3.076  50.622  0.00  0.00    +0.000 C 
ENDBRANCH  24  27
ENDBRANCH   1  24
TORSDOF 3
ENDMDL
MODEL 5
REMARK VINA RESULT:    -7.007      3.007      4.669
REMARK INTER + INTRA:          -8.665
REMARK INTER:                  -8.730
REMARK INTRA:                   0.065
REMARK UNBOUND:                -0.430
REMARK  Name = 
REMARK  4 active torsions:
REMARK  status: ('A' for Active; 'I' for Inactive)
REMARK    1  A    between atoms: C_1  and  C_2
REMARK    2  A    between atoms: C_2  and  N_3
REMARK    3  A    between atoms: N_3  and  C_4
REMARK    4  A    between atoms: C_14  and  C_16
REMARK                            x       y       z     vdW  Elec       q    Type
REMARK                         _______ _______ _______ _____ _____    ______ ____
ROOT
ATOM      1  C   UNL     1      25.519   7.874  49.252  0.00  0.00    +0.000 A 
ATOM      2  C   UNL     1      25.177   9.169  48.858  0.00  0.00    +0.000 A 
ATOM      3  C   UNL     1      23.908   9.433  48.354  0.00  0.00    +0.000 A 
ATOM      4  C   UNL     1      23.025   8.380  48.219  0.00  0.00    +0.000 A 
ATOM      5  N   UNL     1      23.314   7.105  48.550  0.00  0.00    +0.000 NA
ATOM      6  C   UNL     1      24.554   6.839  49.036  0.00  0.00    +0.000 A 
ATOM      7  N   UNL     1      24.811   5.552  49.486  0.00  0.00    +0.000 N 
ATOM      8  C   UNL     1      23.672   4.703  49.824  0.00  0.00    +0.000 C 
ATOM      9  C   UNL     1      24.091   3.836  51.028  0.00  0.00    +0.000 C 
ATOM     10  N   UNL     1      25.389   3.149  50.842  0.00  0.00    +0.000 N 
ATOM     11  C   UNL     1      25.723   1.877  51.327  0.00  0.00    +0.000 C 
ATOM     12  O   UNL     1      26.819   1.386  51.044  0.00  0.00    +0.000 OA
ATOM     13  C   UNL     1      26.464   3.969  50.248  0.00  0.00    +0.000 C 
ATOM     14  C   UNL     1      25.970   4.774  49.028  0.00  0.00    +0.000 C 
ENDROOT
BRANCH  11  15
ATOM     15  C   UNL     1      24.761   1.164  52.153  0.00  0.00    +0.000 A 
ATOM     16  C   UNL     1      23.382   1.109  52.083  0.00  0.00    +0.000 A 
ATOM     17  C   UNL     1      22.798   0.202  53.024  0.00  0.00    +0.000 A 
ATOM     18  C   UNL     1      21.455  -0.215  53.183  0.00  0.00    +0.000 A 
ATOM     19  C   UNL     1      21.110  -1.095  54.210  0.00  0.00    +0.000 A 
ATOM     20  C   UNL     1      22.076  -1.555  55.093  0.00  0.00    +0.000 A 
ATOM     21  C   UNL     1      23.411  -1.166  54.954  0.00  0.00    +0.000 A 
ATOM     22  C   UNL     1      23.758  -0.300  53.901  0.00  0.00    +0.000 A 
ATOM     23  S   UNL     1      25.329   0.280  53.505  0.00  0.00    +0.000 S 
ENDBRANCH  11  15
BRANCH   1  24
ATOM     24  N   UNL     1      26.783   7.550  49.783  0.00  0.00    +0.000 N 
ATOM     25  H   UNL     1      26.835   7.009  50.604  0.00  0.00    +0.000 HD
BRANCH  24  27
ATOM     26  C   UNL     1      28.095   7.322  47.781  0.00  0.00    +0.000 C 
ATOM     27  C   UNL     1      28.009   7.993  49.147  0.00  0.00    +0.000 C 
ENDBRANCH  24  27
ENDBRANCH   1  24
TORSDOF 3
ENDMDL
MODEL 6
REMARK VINA RESULT:    -6.780      4.659      7.658
REMARK INTER + INTRA:          -8.398
REMARK INTER:                  -8.297
REMARK INTRA:                  -0.101
REMARK UNBOUND:                -0.430
REMARK  Name = 
REMARK  4 active torsions:
REMARK  status: ('A' for Active; 'I' for Inactive)
REMARK    1  A    between atoms: C_1  and  C_2
REMARK    2  A    between atoms: C_2  and  N_3
REMARK    3  A    between atoms: N_3  and  C_4
REMARK    4  A    between atoms: C_14  and  C_16
REMARK                            x       y       z     vdW  Elec       q    Type
REMARK                         _______ _______ _______ _____ _____    ______ ____
ROOT
ATOM      1  C   UNL     1      28.321  11.456  48.753  0.00  0.00    +0.000 A 
ATOM      2  C   UNL     1      28.255  12.849  48.803  0.00  0.00    +0.000 A 
ATOM      3  C   UNL     1      27.091  13.506  48.417  0.00  0.00    +0.000 A 
ATOM      4  C   UNL     1      26.035  12.749  47.952  0.00  0.00    +0.000 A 
ATOM      5  N   UNL     1      26.056  11.405  47.850  0.00  0.00    +0.000 NA
ATOM      6  C   UNL     1      27.192  10.757  48.217  0.00  0.00    +0.000 A 
ATOM      7  N   UNL     1      27.173   9.369  48.224  0.00  0.00    +0.000 N 
ATOM      8  C   UNL     1      25.876   8.701  48.274  0.00  0.00    +0.000 C 
ATOM      9  C   UNL     1      26.050   7.430  49.129  0.00  0.00    +0.000 C 
ATOM     10  N   UNL     1      27.203   6.595  48.724  0.00  0.00    +0.000 N 
ATOM     11  C   UNL     1      27.260   5.196  48.769  0.00  0.00    +0.000 C 
ATOM     12  O   UNL     1      28.258   4.613  48.335  0.00  0.00    +0.000 OA
ATOM     13  C   UNL     1      28.448   7.331  48.423  0.00  0.00    +0.000 C 
ATOM     14  C   UNL     1      28.190   8.565  47.533  0.00  0.00    +0.000 C 
ENDROOT
BRANCH  11  15
ATOM     15  C   UNL     1      26.133   4.462  49.323  0.00  0.00    +0.000 A 
ATOM     16  C   UNL     1      24.777   4.584  49.085  0.00  0.00    +0.000 A 
ATOM     17  C   UNL     1      23.988   3.596  49.757  0.00  0.00    +0.000 A 
ATOM     18  C   UNL     1      22.604   3.319  49.676  0.00  0.00    +0.000 A 
ATOM     19  C   UNL     1      22.042   2.313  50.465  0.00  0.00    +0.000 A 
ATOM     20  C   UNL     1      22.832   1.588  51.346  0.00  0.00    +0.000 A 
ATOM     21  C   UNL     1      24.204   1.836  51.439  0.00  0.00    +0.000 A 
ATOM     22  C   UNL     1      24.770   2.833  50.624  0.00  0.00    +0.000 A 
ATOM     23  S   UNL     1      26.428   3.286  50.532  0.00  0.00    +0.000 S 
ENDBRANCH  11  15
BRANCH   1  24
ATOM     24  N   UNL     1      29.466  10.734  49.144  0.00  0.00    +0.000 N 
ATOM     25  H   UNL     1      29.362   9.820  49.495  0.00  0.00    +0.000 HD
BRANCH  24  27
ATOM     26  C   UNL     1      31.376  10.898  47.691  0.00  0.00    +0.000 C 
ATOM     27  C   UNL     1      30.795  11.308  49.040  0.00  0.00    +0.000 C 
ENDBRANCH  24  27
ENDBRANCH   1  24
TORSDOF 3
ENDMDL
MODEL 7
REMARK VINA RESULT:    -6.759      6.056      9.920
REMARK INTER + INTRA:          -8.373
REMARK INTER:                  -7.792
REMARK INTRA:                  -0.581
REMARK UNBOUND:                -0.430
REMARK  Name = 
REMARK  4 active torsions:
REMARK  status: ('A' for Active; 'I' for Inactive)
REMARK    1  A    between atoms: C_1  and  C_2
REMARK    2  A    between atoms: C_2  and  N_3
REMARK    3  A    between atoms: N_3  and  C_4
REMARK    4  A    between atoms: C_14  and  C_16
REMARK                            x       y       z     vdW  Elec       q    Type
REMARK                         _______ _______ _______ _____ _____    ______ ____
ROOT
ATOM      1  C   UNL     1      23.161   0.994  52.786  0.00  0.00    +0.000 A 
ATOM      2  C   UNL     1      24.414   1.334  53.298  0.00  0.00    +0.000 A 
ATOM      3  C   UNL     1      24.862   2.649  53.231  0.00  0.00    +0.000 A 
ATOM      4  C   UNL     1      24.056   3.585  52.614  0.00  0.00    +0.000 A 
ATOM      5  N   UNL     1      22.853   3.305  52.071  0.00  0.00    +0.000 NA
ATOM      6  C   UNL     1      22.414   2.022  52.126  0.00  0.00    +0.000 A 
ATOM      7  N   UNL     1      21.129   1.758  51.673  0.00  0.00    +0.000 N 
ATOM      8  C   UNL     1      20.189   2.872  51.587  0.00  0.00    +0.000 C 
ATOM      9  C   UNL     1      18.797   2.325  51.959  0.00  0.00    +0.000 C 
ATOM     10  N   UNL     1      18.426   1.096  51.224  0.00  0.00    +0.000 N 
ATOM     11  C   UNL     1      17.136   0.750  50.798  0.00  0.00    +0.000 C 
ATOM     12  O   UNL     1      16.969  -0.275  50.131  0.00  0.00    +0.000 OA
ATOM     13  C   UNL     1      19.492   0.081  51.100  0.00  0.00    +0.000 C 
ATOM     14  C   UNL     1      20.841   0.706  50.689  0.00  0.00    +0.000 C 
ENDROOT
BRANCH  11  15
ATOM     15  C   UNL     1      16.022   1.615  51.153  0.00  0.00    +0.000 A 
ATOM     16  C   UNL     1      15.256   1.669  52.302  0.00  0.00    +0.000 A 
ATOM     17  C   UNL     1      14.310   2.743  52.309  0.00  0.00    +0.000 A 
ATOM     18  C   UNL     1      13.443   3.194  53.331  0.00  0.00    +0.000 A 
ATOM     19  C   UNL     1      12.569   4.256  53.092  0.00  0.00    +0.000 A 
ATOM     20  C   UNL     1      12.530   4.867  51.847  0.00  0.00    +0.000 A 
ATOM     21  C   UNL     1      13.382   4.446  50.822  0.00  0.00    +0.000 A 
ATOM     22  C   UNL     1      14.279   3.393  51.075  0.00  0.00    +0.000 A 
ATOM     23  S   UNL     1      15.444   2.734  49.993  0.00  0.00    +0.000 S 
ENDBRANCH  11  15
BRANCH   1  24
ATOM     24  N   UNL     1      22.649  -0.317  52.837  0.00  0.00    +0.000 N 
ATOM     25  H   UNL     1      22.506  -0.811  51.997  0.00  0.00    +0.000 HD
BRANCH  24  27
ATOM     26  C   UNL     1      21.181  -0.180  54.737  0.00  0.00    +0.000 C 
ATOM     27  C   UNL     1      22.328  -0.956  54.099  0.00  0.00    +0.000 C 
ENDBRANCH  24  27
ENDBRANCH   1  24
TORSDOF 3
ENDMDL
MODEL 8
REMARK VINA RESULT:    -6.675      3.274      5.201
REMARK INTER + INTRA:          -8.276
REMARK INTER:                  -7.749
REMARK INTRA:                  -0.526
REMARK UNBOUND:                -0.430
REMARK  Name = 
REMARK  4 active torsions:
REMARK  status: ('A' for Active; 'I' for Inactive)
REMARK    1  A    between atoms: C_1  and  C_2
REMARK    2  A    between atoms: C_2  and  N_3
REMARK    3  A    between atoms: N_3  and  C_4
REMARK    4  A    between atoms: C_14  and  C_16
REMARK                            x       y       z     vdW  Elec       q    Type
REMARK                         _______ _______ _______ _____ _____    ______ ____
ROOT
ATOM      1  C   UNL     1      21.590   9.011  48.625  0.00  0.00    +0.000 A 
ATOM      2  C   UNL     1      21.239  10.353  48.781  0.00  0.00    +0.000 A 
ATOM      3  C   UNL     1      20.102  10.698  49.502  0.00  0.00    +0.000 A 
ATOM      4  C   UNL     1      19.320   9.682  50.017  0.00  0.00    +0.000 A 
ATOM      5  N   UNL     1      19.592   8.370  49.867  0.00  0.00    +0.000 NA
ATOM      6  C   UNL     1      20.697   8.027  49.156  0.00  0.00    +0.000 A 
ATOM      7  N   UNL     1      21.040   6.683  49.102  0.00  0.00    +0.000 N 
ATOM      8  C   UNL     1      20.496   5.794  50.125  0.00  0.00    +0.000 C 
ATOM      9  C   UNL     1      21.580   4.744  50.440  0.00  0.00    +0.000 C 
ATOM     10  N   UNL     1      22.143   4.092  49.237  0.00  0.00    +0.000 N 
ATOM     11  C   UNL     1      22.563   2.758  49.145  0.00  0.00    +0.000 C 
ATOM     12  O   UNL     1      22.952   2.316  48.060  0.00  0.00    +0.000 OA
ATOM     13  C   UNL     1      22.445   4.994  48.107  0.00  0.00    +0.000 C 
ATOM     14  C   UNL     1      21.295   5.986  47.835  0.00  0.00    +0.000 C 
ENDROOT
BRANCH  11  15
ATOM     15  C   UNL     1      22.525   1.925  50.337  0.00  0.00    +0.000 A 
ATOM     16  C   UNL     1      21.493   1.189  50.886  0.00  0.00    +0.000 A 
ATOM     17  C   UNL     1      21.887   0.410  52.020  0.00  0.00    +0.000 A 
ATOM     18  C   UNL     1      21.164  -0.545  52.773  0.00  0.00    +0.000 A 
ATOM     19  C   UNL     1      21.754  -1.163  53.877  0.00  0.00    +0.000 A 
ATOM     20  C   UNL     1      23.047  -0.833  54.257  0.00  0.00    +0.000 A 
ATOM     21  C   UNL     1      23.787   0.100  53.526  0.00  0.00    +0.000 A 
ATOM     22  C   UNL     1      23.198   0.701  52.399  0.00  0.00    +0.000 A 
ATOM     23  S   UNL     1      23.919   1.837  51.327  0.00  0.00    +0.000 S 
ENDBRANCH  11  15
BRANCH   1  24
ATOM     24  N   UNL     1      22.737   8.602  47.917  0.00  0.00    +0.000 N 
ATOM     25  H   UNL     1      22.630   8.109  47.071  0.00  0.00    +0.000 HD
BRANCH  24  27
ATOM     26  C   UNL     1      24.211   8.261  49.786  0.00  0.00    +0.000 C 
ATOM     27  C   UNL     1      24.073   8.891  48.405  0.00  0.00    +0.000 C 
ENDBRANCH  24  27
ENDBRANCH   1  24
TORSDOF 3
ENDMDL
MODEL 9
REMARK VINA RESULT:    -6.670      3.171      8.322
REMARK INTER + INTRA:          -8.269
REMARK INTER:                  -7.823
REMARK INTRA:                  -0.447
REMARK UNBOUND:                -0.430
REMARK  Name = 
REMARK  4 active torsions:
REMARK  status: ('A' for Active; 'I' for Inactive)
REMARK    1  A    between atoms: C_1  and  C_2
REMARK    2  A    between atoms: C_2  and  N_3
REMARK    3  A    between atoms: N_3  and  C_4
REMARK    4  A    between atoms: C_14  and  C_16
REMARK                            x       y       z     vdW  Elec       q    Type
REMARK                         _______ _______ _______ _____ _____    ______ ____
ROOT
ATOM      1  C   UNL     1      22.323  -0.352  54.192  0.00  0.00    +0.000 A 
ATOM      2  C   UNL     1      22.800  -1.091  55.276  0.00  0.00    +0.000 A 
ATOM      3  C   UNL     1      24.167  -1.290  55.436  0.00  0.00    +0.000 A 
ATOM      4  C   UNL     1      25.020  -0.776  54.480  0.00  0.00    +0.000 A 
ATOM      5  N   UNL     1      24.612  -0.086  53.396  0.00  0.00    +0.000 NA
ATOM      6  C   UNL     1      23.278   0.106  53.229  0.00  0.00    +0.000 A 
ATOM      7  N   UNL     1      22.867   0.915  52.179  0.00  0.00    +0.000 N 
ATOM      8  C   UNL     1      23.838   1.842  51.606  0.00  0.00    +0.000 C 
ATOM      9  C   UNL     1      23.070   3.119  51.209  0.00  0.00    +0.000 C 
ATOM     10  N   UNL     1      21.859   2.856  50.401  0.00  0.00    +0.000 N 
ATOM     11  C   UNL     1      21.364   3.669  49.372  0.00  0.00    +0.000 C 
ATOM     12  O   UNL     1      20.379   3.302  48.726  0.00  0.00    +0.000 OA
ATOM     13  C   UNL     1      21.020   1.730  50.859  0.00  0.00    +0.000 C 
ATOM     14  C   UNL     1      21.862   0.482  51.199  0.00  0.00    +0.000 C 
ENDROOT
BRANCH  11  15
ATOM     15  C   UNL     1      22.032   4.930  49.089  0.00  0.00    +0.000 A 
ATOM     16  C   UNL     1      23.035   5.233  48.189  0.00  0.00    +0.000 A 
ATOM     17  C   UNL     1      23.354   6.628  48.137  0.00  0.00    +0.000 A 
ATOM     18  C   UNL     1      24.223   7.338  47.276  0.00  0.00    +0.000 A 
ATOM     19  C   UNL     1      24.404   8.713  47.439  0.00  0.00    +0.000 A 
ATOM     20  C   UNL     1      23.747   9.392  48.455  0.00  0.00    +0.000 A 
ATOM     21  C   UNL     1      22.875   8.716  49.313  0.00  0.00    +0.000 A 
ATOM     22  C   UNL     1      22.676   7.336  49.129  0.00  0.00    +0.000 A 
ATOM     23  S   UNL     1      21.629   6.306  50.026  0.00  0.00    +0.000 S 
ENDBRANCH  11  15
BRANCH   1  24
ATOM     24  N   UNL     1      20.951  -0.105  53.985  0.00  0.00    +0.000 N 
ATOM     25  H   UNL     1      20.637   0.825  53.904  0.00  0.00    +0.000 HD
BRANCH  24  27
ATOM     26  C   UNL     1      18.835  -0.711  53.016  0.00  0.00    +0.000 C 
ATOM     27  C   UNL     1      19.992  -1.189  53.886  0.00  0.00    +0.000 C 
ENDBRANCH  24  27
ENDBRANCH   1  24
TORSDOF 3
ENDMDL
