MODEL 1
REMARK VINA RESULT:    -7.910      0.000      0.000
REMARK INTER + INTRA:         -10.032
REMARK INTER:                  -9.760
REMARK INTRA:                  -0.272
REMARK UNBOUND:                -0.272
REMARK  Name = 
REMARK  6 active torsions:
REMARK  status: ('A' for Active; 'I' for Inactive)
REMARK    1  A    between atoms: C_1  and  N_2
REMARK    2  A    between atoms: N_2  and  C_3
REMARK    3  A    between atoms: N_2  and  C_4
REMARK    4  A    between atoms: C_9  and  S_10
REMARK    5  A    between atoms: S_10  and  N_13
REMARK    6  A    between atoms: N_13  and  C_14
REMARK                            x       y       z     vdW  Elec       q    Type
REMARK                         _______ _______ _______ _____ _____    ______ ____
ROOT
ATOM      1  C   UNL     1      26.168   6.339  49.153  0.00  0.00    +0.000 A 
ATOM      2  C   UNL     1      27.183   5.439  48.770  0.00  0.00    +0.000 A 
ATOM      3  C   UNL     1      27.149   4.097  49.122  0.00  0.00    +0.000 A 
ATOM      4  C   UNL     1      26.156   3.631  49.970  0.00  0.00    +0.000 A 
ATOM      5  C   UNL     1      25.173   4.482  50.499  0.00  0.00    +0.000 A 
ATOM      6  C   UNL     1      24.197   4.062  51.457  0.00  0.00    +0.000 A 
ATOM      7  C   UNL     1      23.103   4.871  51.780  0.00  0.00    +0.000 A 
ATOM      8  C   UNL     1      22.972   6.114  51.192  0.00  0.00    +0.000 A 
ATOM      9  C   UNL     1      23.968   6.583  50.335  0.00  0.00    +0.000 A 
ATOM     10  C   UNL     1      25.119   5.829  50.002  0.00  0.00    +0.000 A 
ENDROOT
BRANCH   1  12
ATOM     11  C   UNL     1      25.755   7.867  47.259  0.00  0.00    +0.000 C 
ATOM     12  N   UNL     1      26.185   7.666  48.647  0.00  0.00    +0.000 N 
ATOM     13  C   UNL     1      27.294   8.535  49.059  0.00  0.00    +0.000 C 
ENDBRANCH   1  12
BRANCH   6  14
ATOM     14  S   UNL     1      24.320   2.501  52.332  0.00  0.00    +0.000 S 
ATOM     15  O   UNL     1      23.034   2.220  52.943  0.00  0.00    +0.000 OA
ATOM     16  O   UNL     1      24.931   1.534  51.446  0.00  0.00    +0.000 OA
BRANCH  14  17
ATOM     17  N   UNL     1      25.414   2.763  53.600  0.00  0.00    +0.000 N 
ATOM     18  H   UNL     1      25.272   3.468  54.272  0.00  0.00    +0.000 HD
BRANCH  17  19
ATOM     19  C   UNL     1      26.535   1.915  53.639  0.00  0.00    +0.000 A 
ATOM     20  C   UNL     1      27.772   2.304  53.151  0.00  0.00    +0.000 A 
ATOM     21  C   UNL     1      28.832   1.404  53.253  0.00  0.00    +0.000 A 
ATOM     22  C   UNL     1      28.579   0.167  53.814  0.00  0.00    +0.000 A 
ATOM     23 CL   UNL     1      29.798  -1.023  53.957  0.00  0.00    +0.000 Cl
ATOM     24  N   UNL     1      27.363  -0.186  54.280  0.00  0.00    +0.000 NA
ATOM     25  N   UNL     1      26.328   0.706  54.196  0.00  0.00    +0.000 NA
ENDBRANCH  17  19
ENDBRANCH  14  17
ENDBRANCH   6  14
TORSDOF 4
ENDMDL
MODEL 2
REMARK VINA RESULT:    -7.870      1.805      2.010
REMARK INTER + INTRA:          -9.983
REMARK INTER:                  -9.628
REMARK INTRA:                  -0.355
REMARK UNBOUND:                -0.272
REMARK  Name = 
REMARK  6 active torsions:
REMARK  status: ('A' for Active; 'I' for Inactive)
REMARK    1  A    between atoms: C_1  and  N_2
REMARK    2  A    between atoms: N_2  and  C_3
REMARK    3  A    between atoms: N_2  and  C_4
REMARK    4  A    between atoms: C_9  and  S_10
REMARK    5  A    between atoms: S_10  and  N_13
REMARK    6  A    between atoms: N_13  and  C_14
REMARK                            x       y       z     vdW  Elec       q    Type
REMARK                         _______ _______ _______ _____ _____    ______ ____
ROOT
ATOM      1  C   UNL     1      26.969   7.126  48.927  0.00  0.00    +0.000 A 
ATOM      2  C   UNL     1      27.725   6.000  48.543  0.00  0.00    +0.000 A 
ATOM      3  C   UNL     1      27.278   4.703  48.753  0.00  0.00    +0.000 A 
ATOM      4  C   UNL     1      26.107   4.485  49.463  0.00  0.00    +0.000 A 
ATOM      5  C   UNL     1      25.350   5.545  49.991  0.00  0.00    +0.000 A 
ATOM      6  C   UNL     1      24.196   5.358  50.816  0.00  0.00    +0.000 A 
ATOM      7  C   UNL     1      23.345   6.423  51.124  0.00  0.00    +0.000 A 
ATOM      8  C   UNL     1      23.635   7.690  50.655  0.00  0.00    +0.000 A 
ATOM      9  C   UNL     1      24.810   7.911  49.937  0.00  0.00    +0.000 A 
ATOM     10  C   UNL     1      25.732   6.881  49.629  0.00  0.00    +0.000 A 
ENDROOT
BRANCH   1  12
ATOM     11  C   UNL     1      27.683   8.670  47.139  0.00  0.00    +0.000 C 
ATOM     12  N   UNL     1      27.414   8.423  48.560  0.00  0.00    +0.000 N 
ATOM     13  C   UNL     1      28.343   9.104  49.470  0.00  0.00    +0.000 C 
ENDBRANCH   1  12
BRANCH   6  14
ATOM     14  S   UNL     1      23.779   3.769  51.536  0.00  0.00    +0.000 S 
ATOM     15  O   UNL     1      22.600   3.942  52.365  0.00  0.00    +0.000 OA
ATOM     16  O   UNL     1      23.788   2.778  50.481  0.00  0.00    +0.000 OA
BRANCH  14  17
ATOM     17  N   UNL     1      25.056   3.382  52.582  0.00  0.00    +0.000 N 
ATOM     18  H   UNL     1      25.504   4.065  53.131  0.00  0.00    +0.000 HD
BRANCH  17  19
ATOM     19  C   UNL     1      25.439   2.030  52.621  0.00  0.00    +0.000 A 
ATOM     20  C   UNL     1      24.693   1.070  53.287  0.00  0.00    +0.000 A 
ATOM     21  C   UNL     1      25.139  -0.250  53.252  0.00  0.00    +0.000 A 
ATOM     22  C   UNL     1      26.313  -0.520  52.574  0.00  0.00    +0.000 A 
ATOM     23 CL   UNL     1      26.965  -2.098  52.497  0.00  0.00    +0.000 Cl
ATOM     24  N   UNL     1      27.019   0.436  51.935  0.00  0.00    +0.000 NA
ATOM     25  N   UNL     1      26.570   1.728  51.955  0.00  0.00    +0.000 NA
ENDBRANCH  17  19
ENDBRANCH  14  17
ENDBRANCH   6  14
TORSDOF 4
ENDMDL
MODEL 3
REMARK VINA RESULT:    -7.694      4.971      8.002
REMARK INTER + INTRA:          -9.766
REMARK INTER:                  -9.375
REMARK INTRA:                  -0.391
REMARK UNBOUND:                -0.272
REMARK  Name = 
REMARK  6 active torsions:
REMARK  status: ('A' for Active; 'I' for Inactive)
REMARK    1  A    between atoms: C_1  and  N_2
REMARK    2  A    between atoms: N_2  and  C_3
REMARK    3  A    between atoms: N_2  and  C_4
REMARK    4  A    between atoms: C_9  and  S_10
REMARK    5  A    between atoms: S_10  and  N_13
REMARK    6  A    between atoms: N_13  and  C_14
REMARK                            x       y       z     vdW  Elec       q    Type
REMARK                         _______ _______ _______ _____ _____    ______ ____
ROOT
ATOM      1  C   UNL     1      25.432   0.083  53.036  0.00  0.00    +0.000 A 
ATOM      2  C   UNL     1      25.678   1.039  52.030  0.00  0.00    +0.000 A 
ATOM      3  C   UNL     1      24.674   1.848  51.519  0.00  0.00    +0.000 A 
ATOM      4  C   UNL     1      23.360   1.648  51.915  0.00  0.00    +0.000 A 
ATOM      5  C   UNL     1      23.004   0.637  52.822  0.00  0.00    +0.000 A 
ATOM      6  C   UNL     1      21.651   0.332  53.174  0.00  0.00    +0.000 A 
ATOM      7  C   UNL     1      21.354  -0.516  54.245  0.00  0.00    +0.000 A 
ATOM      8  C   UNL     1      22.381  -1.103  54.960  0.00  0.00    +0.000 A 
ATOM      9  C   UNL     1      23.703  -0.900  54.567  0.00  0.00    +0.000 A 
ATOM     10  C   UNL     1      24.065  -0.084  53.467  0.00  0.00    +0.000 A 
ENDROOT
BRANCH   1  12
ATOM     11  C   UNL     1      27.444   0.148  54.464  0.00  0.00    +0.000 C 
ATOM     12  N   UNL     1      26.524  -0.617  53.615  0.00  0.00    +0.000 N 
ATOM     13  C   UNL     1      27.181  -1.645  52.800  0.00  0.00    +0.000 C 
ENDBRANCH   1  12
BRANCH   6  14
ATOM     14  S   UNL     1      20.251   0.980  52.258  0.00  0.00    +0.000 S 
ATOM     15  O   UNL     1      20.625   1.063  50.858  0.00  0.00    +0.000 OA
ATOM     16  O   UNL     1      19.071   0.242  52.654  0.00  0.00    +0.000 OA
BRANCH  14  17
ATOM     17  N   UNL     1      20.038   2.572  52.799  0.00  0.00    +0.000 N 
ATOM     18  H   UNL     1      20.031   2.801  53.756  0.00  0.00    +0.000 HD
BRANCH  17  19
ATOM     19  C   UNL     1      19.872   3.549  51.801  0.00  0.00    +0.000 A 
ATOM     20  C   UNL     1      20.904   4.386  51.406  0.00  0.00    +0.000 A 
ATOM     21  C   UNL     1      20.651   5.308  50.393  0.00  0.00    +0.000 A 
ATOM     22  C   UNL     1      19.378   5.351  49.858  0.00  0.00    +0.000 A 
ATOM     23 CL   UNL     1      18.953   6.467  48.635  0.00  0.00    +0.000 Cl
ATOM     24  N   UNL     1      18.391   4.525  50.263  0.00  0.00    +0.000 NA
ATOM     25  N   UNL     1      18.646   3.607  51.244  0.00  0.00    +0.000 NA
ENDBRANCH  17  19
ENDBRANCH  14  17
ENDBRANCH   6  14
TORSDOF 4
ENDMDL
MODEL 4
REMARK VINA RESULT:    -7.623      5.050      7.750
REMARK INTER + INTRA:          -9.678
REMARK INTER:                  -9.237
REMARK INTRA:                  -0.441
REMARK UNBOUND:                -0.272
REMARK  Name = 
REMARK  6 active torsions:
REMARK  status: ('A' for Active; 'I' for Inactive)
REMARK    1  A    between atoms: C_1  and  N_2
REMARK    2  A    between atoms: N_2  and  C_3
REMARK    3  A    between atoms: N_2  and  C_4
REMARK    4  A    between atoms: C_9  and  S_10
REMARK    5  A    between atoms: S_10  and  N_13
REMARK    6  A    between atoms: N_13  and  C_14
REMARK                            x       y       z     vdW  Elec       q    Type
REMARK                         _______ _______ _______ _____ _____    ______ ____
ROOT
ATOM      1  C   UNL     1      26.476   0.090  53.396  0.00  0.00    +0.000 A 
ATOM      2  C   UNL     1      26.601   1.025  52.349  0.00  0.00    +0.000 A 
ATOM      3  C   UNL     1      25.509   1.716  51.843  0.00  0.00    +0.000 A 
ATOM      4  C   UNL     1      24.232   1.409  52.288  0.00  0.00    +0.000 A 
ATOM      5  C   UNL     1      24.000   0.404  53.242  0.00  0.00    +0.000 A 
ATOM      6  C   UNL     1      22.693  -0.013  53.648  0.00  0.00    +0.000 A 
ATOM      7  C   UNL     1      22.510  -0.844  54.757  0.00  0.00    +0.000 A 
ATOM      8  C   UNL     1      23.608  -1.302  55.460  0.00  0.00    +0.000 A 
ATOM      9  C   UNL     1      24.893  -0.991  55.017  0.00  0.00    +0.000 A 
ATOM     10  C   UNL     1      25.144  -0.188  53.877  0.00  0.00    +0.000 A 
ENDROOT
BRANCH   1  12
ATOM     11  C   UNL     1      28.517   0.403  54.748  0.00  0.00    +0.000 C 
ATOM     12  N   UNL     1      27.645  -0.480  53.966  0.00  0.00    +0.000 N 
ATOM     13  C   UNL     1      28.368  -1.480  53.171  0.00  0.00    +0.000 C 
ENDBRANCH   1  12
BRANCH   6  14
ATOM     14  S   UNL     1      21.213   0.464  52.755  0.00  0.00    +0.000 S 
ATOM     15  O   UNL     1      20.101  -0.315  53.271  0.00  0.00    +0.000 OA
ATOM     16  O   UNL     1      21.142   1.909  52.736  0.00  0.00    +0.000 OA
BRANCH  14  17
ATOM     17  N   UNL     1      21.453  -0.036  51.153  0.00  0.00    +0.000 N 
ATOM     18  H   UNL     1      21.858  -0.907  50.935  0.00  0.00    +0.000 HD
BRANCH  17  19
ATOM     19  C   UNL     1      21.042   0.863  50.153  0.00  0.00    +0.000 A 
ATOM     20  C   UNL     1      21.943   1.485  49.304  0.00  0.00    +0.000 A 
ATOM     21  C   UNL     1      21.440   2.344  48.327  0.00  0.00    +0.000 A 
ATOM     22  C   UNL     1      20.074   2.542  48.280  0.00  0.00    +0.000 A 
ATOM     23 CL   UNL     1      19.356   3.599  47.145  0.00  0.00    +0.000 Cl
ATOM     24  N   UNL     1      19.220   1.924  49.122  0.00  0.00    +0.000 NA
ATOM     25  N   UNL     1      19.713   1.066  50.067  0.00  0.00    +0.000 NA
ENDBRANCH  17  19
ENDBRANCH  14  17
ENDBRANCH   6  14
TORSDOF 4
ENDMDL
MODEL 5
REMARK VINA RESULT:    -7.614      4.518      6.754
REMARK INTER + INTRA:          -9.667
REMARK INTER:                  -9.716
REMARK INTRA:                   0.050
REMARK UNBOUND:                -0.272
REMARK  Name = 
REMARK  6 active torsions:
REMARK  status: ('A' for Active; 'I' for Inactive)
REMARK    1  A    between atoms: C_1  and  N_2
REMARK    2  A    between atoms: N_2  and  C_3
REMARK    3  A    between atoms: N_2  and  C_4
REMARK    4  A    between atoms: C_9  and  S_10
REMARK    5  A    between atoms: S_10  and  N_13
REMARK    6  A    between atoms: N_13  and  C_14
REMARK                            x       y       z     vdW  Elec       q    Type
REMARK                         _______ _______ _______ _____ _____    ______ ____
ROOT
ATOM      1  C   UNL     1      27.168   0.734  53.159  0.00  0.00    +0.000 A 
ATOM      2  C   UNL     1      26.585  -0.296  53.924  0.00  0.00    +0.000 A 
ATOM      3  C   UNL     1      25.271  -0.702  53.735  0.00  0.00    +0.000 A 
ATOM      4  C   UNL     1      24.456  -0.010  52.853  0.00  0.00    +0.000 A 
ATOM      5  C   UNL     1      24.917   1.108  52.137  0.00  0.00    +0.000 A 
ATOM      6  C   UNL     1      24.079   1.910  51.299  0.00  0.00    +0.000 A 
ATOM      7  C   UNL     1      24.622   2.862  50.431  0.00  0.00    +0.000 A 
ATOM      8  C   UNL     1      25.988   3.063  50.401  0.00  0.00    +0.000 A 
ATOM      9  C   UNL     1      26.811   2.365  51.285  0.00  0.00    +0.000 A 
ATOM     10  C   UNL     1      26.317   1.418  52.215  0.00  0.00    +0.000 A 
ENDROOT
BRANCH   1  12
ATOM     11  C   UNL     1      29.446  -0.126  53.558  0.00  0.00    +0.000 C 
ATOM     12  N   UNL     1      28.554   1.009  53.301  0.00  0.00    +0.000 N 
ATOM     13  C   UNL     1      28.933   2.237  54.010  0.00  0.00    +0.000 C 
ENDBRANCH   1  12
BRANCH   6  14
ATOM     14  S   UNL     1      22.291   1.779  51.323  0.00  0.00    +0.000 S 
ATOM     15  O   UNL     1      21.737   3.064  50.936  0.00  0.00    +0.000 OA
ATOM     16  O   UNL     1      21.915   0.579  50.606  0.00  0.00    +0.000 OA
BRANCH  14  17
ATOM     17  N   UNL     1      21.863   1.535  52.945  0.00  0.00    +0.000 N 
ATOM     18  H   UNL     1      22.217   2.101  53.667  0.00  0.00    +0.000 HD
BRANCH  17  19
ATOM     19  C   UNL     1      20.973   0.476  53.199  0.00  0.00    +0.000 A 
ATOM     20  C   UNL     1      21.347  -0.646  53.921  0.00  0.00    +0.000 A 
ATOM     21  C   UNL     1      20.389  -1.634  54.144  0.00  0.00    +0.000 A 
ATOM     22  C   UNL     1      19.128  -1.446  53.610  0.00  0.00    +0.000 A 
ATOM     23 CL   UNL     1      17.890  -2.610  53.794  0.00  0.00    +0.000 Cl
ATOM     24  N   UNL     1      18.792  -0.343  52.909  0.00  0.00    +0.000 NA
ATOM     25  N   UNL     1      19.728   0.635  52.708  0.00  0.00    +0.000 NA
ENDBRANCH  17  19
ENDBRANCH  14  17
ENDBRANCH   6  14
TORSDOF 4
ENDMDL
MODEL 6
REMARK VINA RESULT:    -7.600      3.813      7.029
REMARK INTER + INTRA:          -9.649
REMARK INTER:                  -9.476
REMARK INTRA:                  -0.173
REMARK UNBOUND:                -0.272
REMARK  Name = 
REMARK  6 active torsions:
REMARK  status: ('A' for Active; 'I' for Inactive)
REMARK    1  A    between atoms: C_1  and  N_2
REMARK    2  A    between atoms: N_2  and  C_3
REMARK    3  A    between atoms: N_2  and  C_4
REMARK    4  A    between atoms: C_9  and  S_10
REMARK    5  A    between atoms: S_10  and  N_13
REMARK    6  A    between atoms: N_13  and  C_14
REMARK                            x       y       z     vdW  Elec       q    Type
REMARK                         _______ _______ _______ _____ _____    ______ ____
ROOT
ATOM      1  C   UNL     1      26.866   0.280  53.139  0.00  0.00    +0.000 A 
ATOM      2  C   UNL     1      27.264   1.231  52.178  0.00  0.00    +0.000 A 
ATOM      3  C   UNL     1      26.348   2.029  51.506  0.00  0.00    +0.000 A 
ATOM      4  C   UNL     1      24.989   1.820  51.688  0.00  0.00    +0.000 A 
ATOM      5  C   UNL     1      24.499   0.812  52.534  0.00  0.00    +0.000 A 
ATOM      6  C   UNL     1      23.110   0.497  52.667  0.00  0.00    +0.000 A 
ATOM      7  C   UNL     1      22.651  -0.346  53.683  0.00  0.00    +0.000 A 
ATOM      8  C   UNL     1      23.554  -0.919  54.559  0.00  0.00    +0.000 A 
ATOM      9  C   UNL     1      24.921  -0.707  54.380  0.00  0.00    +0.000 A 
ATOM     10  C   UNL     1      25.449   0.104  53.346  0.00  0.00    +0.000 A 
ENDROOT
BRANCH   1  12
ATOM     11  C   UNL     1      28.688   0.390  54.800  0.00  0.00    +0.000 C 
ATOM     12  N   UNL     1      27.856  -0.406  53.892  0.00  0.00    +0.000 N 
ATOM     13  C   UNL     1      28.575  -1.501  53.229  0.00  0.00    +0.000 C 
ENDBRANCH   1  12
BRANCH   6  14
ATOM     14  S   UNL     1      21.871   1.127  51.533  0.00  0.00    +0.000 S 
ATOM     15  O   UNL     1      22.549   1.615  50.346  0.00  0.00    +0.000 OA
ATOM     16  O   UNL     1      20.820   0.138  51.417  0.00  0.00    +0.000 OA
BRANCH  14  17
ATOM     17  N   UNL     1      21.188   2.480  52.293  0.00  0.00    +0.000 N 
ATOM     18  H   UNL     1      20.468   2.395  52.959  0.00  0.00    +0.000 HD
BRANCH  17  19
ATOM     19  C   UNL     1      21.710   3.731  51.919  0.00  0.00    +0.000 A 
ATOM     20  C   UNL     1      22.898   4.221  52.437  0.00  0.00    +0.000 A 
ATOM     21  C   UNL     1      23.349   5.462  51.989  0.00  0.00    +0.000 A 
ATOM     22  C   UNL     1      22.570   6.142  51.073  0.00  0.00    +0.000 A 
ATOM     23 CL   UNL     1      23.013   7.684  50.484  0.00  0.00    +0.000 Cl
ATOM     24  N   UNL     1      21.415   5.641  50.586  0.00  0.00    +0.000 NA
ATOM     25  N   UNL     1      20.984   4.414  51.012  0.00  0.00    +0.000 NA
ENDBRANCH  17  19
ENDBRANCH  14  17
ENDBRANCH   6  14
TORSDOF 4
ENDMDL
MODEL 7
REMARK VINA RESULT:    -7.454      2.798      3.711
REMARK INTER + INTRA:          -9.469
REMARK INTER:                  -8.970
REMARK INTRA:                  -0.499
REMARK UNBOUND:                -0.272
REMARK  Name = 
REMARK  6 active torsions:
REMARK  status: ('A' for Active; 'I' for Inactive)
REMARK    1  A    between atoms: C_1  and  N_2
REMARK    2  A    between atoms: N_2  and  C_3
REMARK    3  A    between atoms: N_2  and  C_4
REMARK    4  A    between atoms: C_9  and  S_10
REMARK    5  A    between atoms: S_10  and  N_13
REMARK    6  A    between atoms: N_13  and  C_14
REMARK                            x       y       z     vdW  Elec       q    Type
REMARK                         _______ _______ _______ _____ _____    ______ ____
ROOT
ATOM      1  C   UNL     1      26.179   7.703  49.151  0.00  0.00    +0.000 A 
ATOM      2  C   UNL     1      25.259   8.559  49.789  0.00  0.00    +0.000 A 
ATOM      3  C   UNL     1      24.316   8.088  50.691  0.00  0.00    +0.000 A 
ATOM      4  C   UNL     1      24.181   6.723  50.897  0.00  0.00    +0.000 A 
ATOM      5  C   UNL     1      24.973   5.787  50.212  0.00  0.00    +0.000 A 
ATOM      6  C   UNL     1      24.794   4.372  50.319  0.00  0.00    +0.000 A 
ATOM      7  C   UNL     1      25.741   3.480  49.808  0.00  0.00    +0.000 A 
ATOM      8  C   UNL     1      26.859   3.967  49.156  0.00  0.00    +0.000 A 
ATOM      9  C   UNL     1      26.998   5.339  48.951  0.00  0.00    +0.000 A 
ATOM     10  C   UNL     1      26.052   6.289  49.408  0.00  0.00    +0.000 A 
ENDROOT
BRANCH   1  12
ATOM     11  C   UNL     1      28.210   9.098  49.016  0.00  0.00    +0.000 C 
ATOM     12  N   UNL     1      27.209   8.260  48.347  0.00  0.00    +0.000 N 
ATOM     13  C   UNL     1      26.845   8.724  47.003  0.00  0.00    +0.000 C 
ENDBRANCH   1  12
BRANCH   6  14
ATOM     14  S   UNL     1      23.340   3.643  51.077  0.00  0.00    +0.000 S 
ATOM     15  O   UNL     1      23.448   3.807  52.515  0.00  0.00    +0.000 OA
ATOM     16  O   UNL     1      22.172   4.129  50.374  0.00  0.00    +0.000 OA
BRANCH  14  17
ATOM     17  N   UNL     1      23.439   1.979  50.770  0.00  0.00    +0.000 N 
ATOM     18  H   UNL     1      23.475   1.620  49.854  0.00  0.00    +0.000 HD
BRANCH  17  19
ATOM     19  C   UNL     1      23.468   1.140  51.898  0.00  0.00    +0.000 A 
ATOM     20  C   UNL     1      24.653   0.777  52.519  0.00  0.00    +0.000 A 
ATOM     21  C   UNL     1      24.581  -0.040  53.646  0.00  0.00    +0.000 A 
ATOM     22  C   UNL     1      23.333  -0.460  54.063  0.00  0.00    +0.000 A 
ATOM     23 CL   UNL     1      23.134  -1.490  55.412  0.00  0.00    +0.000 Cl
ATOM     24  N   UNL     1      22.195  -0.093  53.437  0.00  0.00    +0.000 NA
ATOM     25  N   UNL     1      22.266   0.725  52.343  0.00  0.00    +0.000 NA
ENDBRANCH  17  19
ENDBRANCH  14  17
ENDBRANCH   6  14
TORSDOF 4
ENDMDL
MODEL 8
REMARK VINA RESULT:    -7.331      4.742      7.536
REMARK INTER + INTRA:          -9.318
REMARK INTER:                  -8.930
REMARK INTRA:                  -0.388
REMARK UNBOUND:                -0.272
REMARK  Name = 
REMARK  6 active torsions:
REMARK  status: ('A' for Active; 'I' for Inactive)
REMARK    1  A    between atoms: C_1  and  N_2
REMARK    2  A    between atoms: N_2  and  C_3
REMARK    3  A    between atoms: N_2  and  C_4
REMARK    4  A    between atoms: C_9  and  S_10
REMARK    5  A    between atoms: S_10  and  N_13
REMARK    6  A    between atoms: N_13  and  C_14
REMARK                            x       y       z     vdW  Elec       q    Type
REMARK                         _______ _______ _______ _____ _____    ______ ____
ROOT
ATOM      1  C   UNL     1      26.178   0.138  53.192  0.00  0.00    +0.000 A 
ATOM      2  C   UNL     1      25.131  -0.539  53.849  0.00  0.00    +0.000 A 
ATOM      3  C   UNL     1      23.799  -0.335  53.520  0.00  0.00    +0.000 A 
ATOM      4  C   UNL     1      23.459   0.644  52.599  0.00  0.00    +0.000 A 
ATOM      5  C   UNL     1      24.428   1.453  51.984  0.00  0.00    +0.000 A 
ATOM      6  C   UNL     1      24.111   2.541  51.110  0.00  0.00    +0.000 A 
ATOM      7  C   UNL     1      25.098   3.167  50.344  0.00  0.00    +0.000 A 
ATOM      8  C   UNL     1      26.413   2.756  50.450  0.00  0.00    +0.000 A 
ATOM      9  C   UNL     1      26.756   1.768  51.373  0.00  0.00    +0.000 A 
ATOM     10  C   UNL     1      25.808   1.126  52.206  0.00  0.00    +0.000 A 
ENDROOT
BRANCH   1  12
ATOM     11  C   UNL     1      27.988  -1.530  53.022  0.00  0.00    +0.000 C 
ATOM     12  N   UNL     1      27.524  -0.215  53.475  0.00  0.00    +0.000 N 
ATOM     13  C   UNL     1      28.075   0.198  54.772  0.00  0.00    +0.000 C 
ENDBRANCH   1  12
BRANCH   6  14
ATOM     14  S   UNL     1      22.448   3.199  50.961  0.00  0.00    +0.000 S 
ATOM     15  O   UNL     1      21.823   3.151  52.271  0.00  0.00    +0.000 OA
ATOM     16  O   UNL     1      22.520   4.448  50.233  0.00  0.00    +0.000 OA
BRANCH  14  17
ATOM     17  N   UNL     1      21.602   2.107  49.979  0.00  0.00    +0.000 N 
ATOM     18  H   UNL     1      21.955   1.806  49.111  0.00  0.00    +0.000 HD
BRANCH  17  19
ATOM     19  C   UNL     1      20.367   1.653  50.476  0.00  0.00    +0.000 A 
ATOM     20  C   UNL     1      20.232   0.433  51.120  0.00  0.00    +0.000 A 
ATOM     21  C   UNL     1      18.973   0.079  51.599  0.00  0.00    +0.000 A 
ATOM     22  C   UNL     1      17.927   0.954  51.383  0.00  0.00    +0.000 A 
ATOM     23 CL   UNL     1      16.336   0.602  51.900  0.00  0.00    +0.000 Cl
ATOM     24  N   UNL     1      18.086   2.136  50.751  0.00  0.00    +0.000 NA
ATOM     25  N   UNL     1      19.327   2.492  50.298  0.00  0.00    +0.000 NA
ENDBRANCH  17  19
ENDBRANCH  14  17
ENDBRANCH   6  14
TORSDOF 4
ENDMDL
MODEL 9
REMARK VINA RESULT:    -7.262      6.734      9.160
REMARK INTER + INTRA:          -9.233
REMARK INTER:                  -8.922
REMARK INTRA:                  -0.311
REMARK UNBOUND:                -0.272
REMARK  Name = 
REMARK  6 active torsions:
REMARK  status: ('A' for Active; 'I' for Inactive)
REMARK    1  A    between atoms: C_1  and  N_2
REMARK    2  A    between atoms: N_2  and  C_3
REMARK    3  A    between atoms: N_2  and  C_4
REMARK    4  A    between atoms: C_9  and  S_10
REMARK    5  A    between atoms: S_10  and  N_13
REMARK    6  A    between atoms: N_13  and  C_14
REMARK                            x       y       z     vdW  Elec       q    Type
REMARK                         _______ _______ _______ _____ _____    ______ ____
ROOT
ATOM      1  C   UNL     1      24.952   0.158  53.077  0.00  0.00    +0.000 A 
ATOM      2  C   UNL     1      25.225   1.154  52.118  0.00  0.00    +0.000 A 
ATOM      3  C   UNL     1      24.216   1.882  51.503  0.00  0.00    +0.000 A 
ATOM      4  C   UNL     1      22.889   1.557  51.740  0.00  0.00    +0.000 A 
ATOM      5  C   UNL     1      22.524   0.498  52.588  0.00  0.00    +0.000 A 
ATOM      6  C   UNL     1      21.173   0.067  52.777  0.00  0.00    +0.000 A 
ATOM      7  C   UNL     1      20.833  -0.828  53.795  0.00  0.00    +0.000 A 
ATOM      8  C   UNL     1      21.820  -1.336  54.619  0.00  0.00    +0.000 A 
ATOM      9  C   UNL     1      23.155  -1.007  54.385  0.00  0.00    +0.000 A 
ATOM     10  C   UNL     1      23.565  -0.139  53.344  0.00  0.00    +0.000 A 
ENDROOT
BRANCH   1  12
ATOM     11  C   UNL     1      26.717   0.345  54.792  0.00  0.00    +0.000 C 
ATOM     12  N   UNL     1      26.029  -0.454  53.773  0.00  0.00    +0.000 N 
ATOM     13  C   UNL     1      26.917  -1.336  53.006  0.00  0.00    +0.000 C 
ENDBRANCH   1  12
BRANCH   6  14
ATOM     14  S   UNL     1      19.835   0.607  51.711  0.00  0.00    +0.000 S 
ATOM     15  O   UNL     1      19.348   1.883  52.205  0.00  0.00    +0.000 OA
ATOM     16  O   UNL     1      20.272   0.479  50.337  0.00  0.00    +0.000 OA
BRANCH  14  17
ATOM     17  N   UNL     1      18.581  -0.511  51.934  0.00  0.00    +0.000 N 
ATOM     18  H   UNL     1      18.719  -1.359  52.414  0.00  0.00    +0.000 HD
BRANCH  17  19
ATOM     19  C   UNL     1      17.332  -0.158  51.394  0.00  0.00    +0.000 A 
ATOM     20  C   UNL     1      17.102  -0.115  50.028  0.00  0.00    +0.000 A 
ATOM     21  C   UNL     1      15.824   0.223  49.586  0.00  0.00    +0.000 A 
ATOM     22  C   UNL     1      14.867   0.520  50.538  0.00  0.00    +0.000 A 
ATOM     23 CL   UNL     1      13.278   0.978  50.104  0.00  0.00    +0.000 Cl
ATOM     24  N   UNL     1      15.119   0.472  51.863  0.00  0.00    +0.000 NA
ATOM     25  N   UNL     1      16.369   0.121  52.295  0.00  0.00    +0.000 NA
ENDBRANCH  17  19
ENDBRANCH  14  17
ENDBRANCH   6  14
TORSDOF 4
ENDMDL
