MODEL 1
REMARK VINA RESULT:    -7.959      0.000      0.000
REMARK INTER + INTRA:         -12.107
REMARK INTER:                 -11.217
REMARK INTRA:                  -0.890
REMARK UNBOUND:                -0.890
REMARK  Name = 
REMARK  9 active torsions:
REMARK  status: ('A' for Active; 'I' for Inactive)
REMARK    1  A    between atoms: C_1  and  O_2
REMARK    2  A    between atoms: O_2  and  C_3
REMARK    3  A    between atoms: C_7  and  C_8
REMARK    4  A    between atoms: C_8  and  S_9
REMARK    5  A    between atoms: S_9  and  C_11
REMARK    6  A    between atoms: C_15  and  O_16
REMARK    7  A    between atoms: O_16  and  C_17
REMARK    8  A    between atoms: C_17  and  C_18
REMARK    9  A    between atoms: C_26  and  C_27
REMARK                            x       y       z     vdW  Elec       q    Type
REMARK                         _______ _______ _______ _____ _____    ______ ____
ROOT
ATOM      1  C   UNL     1      23.858   3.130  52.265  0.00  0.00    +0.000 A 
ATOM      2  N   UNL     1      25.103   3.146  52.689  0.00  0.00    +0.000 NA
ATOM      3  C   UNL     1      25.305   1.913  53.269  0.00  0.00    +0.000 A 
ATOM      4  C   UNL     1      26.430   1.403  53.932  0.00  0.00    +0.000 A 
ATOM      5  C   UNL     1      26.401   0.086  54.415  0.00  0.00    +0.000 A 
ATOM      6  C   UNL     1      25.265  -0.706  54.235  0.00  0.00    +0.000 A 
ATOM      7  C   UNL     1      24.119  -0.206  53.595  0.00  0.00    +0.000 A 
ATOM      8  C   UNL     1      24.176   1.113  53.140  0.00  0.00    +0.000 A 
ATOM      9  N   UNL     1      23.254   1.928  52.536  0.00  0.00    +0.000 N 
ATOM     10  H   UNL     1      22.320   1.693  52.332  0.00  0.00    +0.000 HD
ENDROOT
BRANCH   1  11
ATOM     11  S   UNL     1      23.030   4.430  51.467  0.00  0.00    +0.000 S 
ATOM     12  O   UNL     1      23.762   5.739  51.943  0.00  0.00    +0.000 OA
BRANCH  11  13
ATOM     13  C   UNL     1      23.439   4.019  49.750  0.00  0.00    +0.000 C 
BRANCH  13  18
ATOM     14  C   UNL     1      26.850   5.370  48.692  0.00  0.00    +0.000 A 
ATOM     15  C   UNL     1      26.456   6.638  48.271  0.00  0.00    +0.000 A 
ATOM     16  C   UNL     1      25.124   6.975  48.374  0.00  0.00    +0.000 A 
ATOM     17  N   UNL     1      24.177   6.145  48.854  0.00  0.00    +0.000 NA
ATOM     18  C   UNL     1      24.558   4.892  49.234  0.00  0.00    +0.000 A 
ATOM     19  C   UNL     1      25.891   4.455  49.158  0.00  0.00    +0.000 A 
ATOM     20  C   UNL     1      26.272   3.043  49.512  0.00  0.00    +0.000 C 
BRANCH  14  22
ATOM     21  C   UNL     1      29.101   5.963  48.290  0.00  0.00    +0.000 C 
ATOM     22  O   UNL     1      28.156   4.950  48.634  0.00  0.00    +0.000 OA
ENDBRANCH  14  22
ENDBRANCH  13  18
ENDBRANCH  11  13
ENDBRANCH   1  11
BRANCH   5  23
ATOM     23  O   UNL     1      27.521  -0.287  55.109  0.00  0.00    +0.000 OA
BRANCH  23  24
ATOM     24  C   UNL     1      28.775   0.267  54.691  0.00  0.00    +0.000 C 
BRANCH  24  25
ATOM     25  C   UNL     1      29.566  -0.594  53.711  0.00  0.00    +0.000 C 
ATOM     26  F   UNL     1      30.428  -1.436  54.317  0.00  0.00    +0.000 F 
ATOM     27  F   UNL     1      28.725  -1.349  52.961  0.00  0.00    +0.000 F 
ATOM     28  F   UNL     1      30.279   0.172  52.854  0.00  0.00    +0.000 F 
ENDBRANCH  24  25
ENDBRANCH  23  24
ENDBRANCH   5  23
TORSDOF 7
ENDMDL
MODEL 2
REMARK VINA RESULT:    -7.456      4.901      7.419
REMARK INTER + INTRA:         -11.397
REMARK INTER:                 -10.447
REMARK INTRA:                  -0.950
REMARK UNBOUND:                -0.890
REMARK  Name = 
REMARK  9 active torsions:
REMARK  status: ('A' for Active; 'I' for Inactive)
REMARK    1  A    between atoms: C_1  and  O_2
REMARK    2  A    between atoms: O_2  and  C_3
REMARK    3  A    between atoms: C_7  and  C_8
REMARK    4  A    between atoms: C_8  and  S_9
REMARK    5  A    between atoms: S_9  and  C_11
REMARK    6  A    between atoms: C_15  and  O_16
REMARK    7  A    between atoms: O_16  and  C_17
REMARK    8  A    between atoms: C_17  and  C_18
REMARK    9  A    between atoms: C_26  and  C_27
REMARK                            x       y       z     vdW  Elec       q    Type
REMARK                         _______ _______ _______ _____ _____    ______ ____
ROOT
ATOM      1  C   UNL     1      21.740   1.482  52.647  0.00  0.00    +0.000 A 
ATOM      2  N   UNL     1      22.803   1.874  51.979  0.00  0.00    +0.000 NA
ATOM      3  C   UNL     1      23.847   1.134  52.487  0.00  0.00    +0.000 A 
ATOM      4  C   UNL     1      25.214   1.178  52.184  0.00  0.00    +0.000 A 
ATOM      5  C   UNL     1      26.087   0.287  52.827  0.00  0.00    +0.000 A 
ATOM      6  C   UNL     1      25.596  -0.634  53.756  0.00  0.00    +0.000 A 
ATOM      7  C   UNL     1      24.233  -0.679  54.090  0.00  0.00    +0.000 A 
ATOM      8  C   UNL     1      23.396   0.233  53.444  0.00  0.00    +0.000 A 
ATOM      9  N   UNL     1      22.057   0.507  53.558  0.00  0.00    +0.000 N 
ATOM     10  H   UNL     1      21.430   0.078  54.186  0.00  0.00    +0.000 HD
ENDROOT
BRANCH   1  11
ATOM     11  S   UNL     1      20.125   2.087  52.453  0.00  0.00    +0.000 S 
ATOM     12  O   UNL     1      20.295   3.529  51.848  0.00  0.00    +0.000 OA
BRANCH  11  13
ATOM     13  C   UNL     1      19.524   0.906  51.215  0.00  0.00    +0.000 C 
BRANCH  13  18
ATOM     14  C   UNL     1      16.537  -1.349  51.972  0.00  0.00    +0.000 A 
ATOM     15  C   UNL     1      17.020  -1.964  53.124  0.00  0.00    +0.000 A 
ATOM     16  C   UNL     1      18.265  -1.596  53.587  0.00  0.00    +0.000 A 
ATOM     17  N   UNL     1      19.046  -0.679  52.984  0.00  0.00    +0.000 NA
ATOM     18  C   UNL     1      18.587  -0.103  51.837  0.00  0.00    +0.000 A 
ATOM     19  C   UNL     1      17.335  -0.419  51.285  0.00  0.00    +0.000 A 
ATOM     20  C   UNL     1      16.884   0.175  49.977  0.00  0.00    +0.000 C 
BRANCH  14  22
ATOM     21  C   UNL     1      14.193  -1.269  52.253  0.00  0.00    +0.000 C 
ATOM     22  O   UNL     1      15.305  -1.647  51.442  0.00  0.00    +0.000 OA
ENDBRANCH  14  22
ENDBRANCH  13  18
ENDBRANCH  11  13
ENDBRANCH   1  11
BRANCH   5  23
ATOM     23  O   UNL     1      27.408   0.463  52.513  0.00  0.00    +0.000 OA
BRANCH  23  24
ATOM     24  C   UNL     1      28.111   1.523  53.176  0.00  0.00    +0.000 C 
BRANCH  24  25
ATOM     25  C   UNL     1      29.144   1.068  54.202  0.00  0.00    +0.000 C 
ATOM     26  F   UNL     1      29.766   2.091  54.823  0.00  0.00    +0.000 F 
ATOM     27  F   UNL     1      28.555   0.313  55.163  0.00  0.00    +0.000 F 
ATOM     28  F   UNL     1      30.098   0.300  53.626  0.00  0.00    +0.000 F 
ENDBRANCH  24  25
ENDBRANCH  23  24
ENDBRANCH   5  23
TORSDOF 7
ENDMDL
MODEL 3
REMARK VINA RESULT:    -7.416      3.806      5.842
REMARK INTER + INTRA:         -11.341
REMARK INTER:                 -10.215
REMARK INTRA:                  -1.126
REMARK UNBOUND:                -0.890
REMARK  Name = 
REMARK  9 active torsions:
REMARK  status: ('A' for Active; 'I' for Inactive)
REMARK    1  A    between atoms: C_1  and  O_2
REMARK    2  A    between atoms: O_2  and  C_3
REMARK    3  A    between atoms: C_7  and  C_8
REMARK    4  A    between atoms: C_8  and  S_9
REMARK    5  A    between atoms: S_9  and  C_11
REMARK    6  A    between atoms: C_15  and  O_16
REMARK    7  A    between atoms: O_16  and  C_17
REMARK    8  A    between atoms: C_17  and  C_18
REMARK    9  A    between atoms: C_26  and  C_27
REMARK                            x       y       z     vdW  Elec       q    Type
REMARK                         _______ _______ _______ _____ _____    ______ ____
ROOT
ATOM      1  C   UNL     1      23.084   0.172  53.111  0.00  0.00    +0.000 A 
ATOM      2  N   UNL     1      23.983  -0.183  54.003  0.00  0.00    +0.000 NA
ATOM      3  C   UNL     1      25.133   0.485  53.645  0.00  0.00    +0.000 A 
ATOM      4  C   UNL     1      26.415   0.438  54.209  0.00  0.00    +0.000 A 
ATOM      5  C   UNL     1      27.429   1.248  53.676  0.00  0.00    +0.000 A 
ATOM      6  C   UNL     1      27.161   2.093  52.596  0.00  0.00    +0.000 A 
ATOM      7  C   UNL     1      25.889   2.138  52.002  0.00  0.00    +0.000 A 
ATOM      8  C   UNL     1      24.908   1.308  52.547  0.00  0.00    +0.000 A 
ATOM      9  N   UNL     1      23.606   1.055  52.200  0.00  0.00    +0.000 N 
ATOM     10  H   UNL     1      23.128   1.440  51.430  0.00  0.00    +0.000 HD
ENDROOT
BRANCH   1  11
ATOM     11  S   UNL     1      21.439  -0.377  53.039  0.00  0.00    +0.000 S 
ATOM     12  O   UNL     1      20.681   0.447  54.146  0.00  0.00    +0.000 OA
BRANCH  11  13
ATOM     13  C   UNL     1      21.019   0.196  51.371  0.00  0.00    +0.000 C 
BRANCH  13  18
ATOM     14  C   UNL     1      18.100   2.657  51.450  0.00  0.00    +0.000 A 
ATOM     15  C   UNL     1      18.824   3.845  51.511  0.00  0.00    +0.000 A 
ATOM     16  C   UNL     1      20.200   3.771  51.504  0.00  0.00    +0.000 A 
ATOM     17  N   UNL     1      20.887   2.613  51.448  0.00  0.00    +0.000 NA
ATOM     18  C   UNL     1      20.178   1.450  51.422  0.00  0.00    +0.000 A 
ATOM     19  C   UNL     1      18.773   1.423  51.434  0.00  0.00    +0.000 A 
ATOM     20  C   UNL     1      18.016   0.124  51.482  0.00  0.00    +0.000 C 
BRANCH  14  22
ATOM     21  C   UNL     1      16.101   3.915  51.493  0.00  0.00    +0.000 C 
ATOM     22  O   UNL     1      16.727   2.633  51.443  0.00  0.00    +0.000 OA
ENDBRANCH  14  22
ENDBRANCH  13  18
ENDBRANCH  11  13
ENDBRANCH   1  11
BRANCH   5  23
ATOM     23  O   UNL     1      28.658   1.071  54.252  0.00  0.00    +0.000 OA
BRANCH  23  24
ATOM     24  C   UNL     1      28.996  -0.249  54.699  0.00  0.00    +0.000 C 
BRANCH  24  25
ATOM     25  C   UNL     1      29.896  -1.038  53.753  0.00  0.00    +0.000 C 
ATOM     26  F   UNL     1      29.218  -1.896  52.964  0.00  0.00    +0.000 F 
ATOM     27  F   UNL     1      30.580  -0.196  52.938  0.00  0.00    +0.000 F 
ATOM     28  F   UNL     1      30.815  -1.756  54.440  0.00  0.00    +0.000 F 
ENDBRANCH  24  25
ENDBRANCH  23  24
ENDBRANCH   5  23
TORSDOF 7
ENDMDL
MODEL 4
REMARK VINA RESULT:    -7.342      3.741      5.864
REMARK INTER + INTRA:         -11.237
REMARK INTER:                 -10.253
REMARK INTRA:                  -0.984
REMARK UNBOUND:                -0.890
REMARK  Name = 
REMARK  9 active torsions:
REMARK  status: ('A' for Active; 'I' for Inactive)
REMARK    1  A    between atoms: C_1  and  O_2
REMARK    2  A    between atoms: O_2  and  C_3
REMARK    3  A    between atoms: C_7  and  C_8
REMARK    4  A    between atoms: C_8  and  S_9
REMARK    5  A    between atoms: S_9  and  C_11
REMARK    6  A    between atoms: C_15  and  O_16
REMARK    7  A    between atoms: O_16  and  C_17
REMARK    8  A    between atoms: C_17  and  C_18
REMARK    9  A    between atoms: C_26  and  C_27
REMARK                            x       y       z     vdW  Elec       q    Type
REMARK                         _______ _______ _______ _____ _____    ______ ____
ROOT
ATOM      1  C   UNL     1      23.069  -0.301  53.384  0.00  0.00    +0.000 A 
ATOM      2  N   UNL     1      24.055  -0.530  54.223  0.00  0.00    +0.000 NA
ATOM      3  C   UNL     1      25.100   0.247  53.777  0.00  0.00    +0.000 A 
ATOM      4  C   UNL     1      26.412   0.354  54.258  0.00  0.00    +0.000 A 
ATOM      5  C   UNL     1      27.296   1.253  53.643  0.00  0.00    +0.000 A 
ATOM      6  C   UNL     1      26.871   2.033  52.564  0.00  0.00    +0.000 A 
ATOM      7  C   UNL     1      25.568   1.924  52.053  0.00  0.00    +0.000 A 
ATOM      8  C   UNL     1      24.720   1.008  52.679  0.00  0.00    +0.000 A 
ATOM      9  N   UNL     1      23.434   0.606  52.422  0.00  0.00    +0.000 N 
ATOM     10  H   UNL     1      22.870   0.915  51.676  0.00  0.00    +0.000 HD
ENDROOT
BRANCH   1  11
ATOM     11  S   UNL     1      21.492  -1.026  53.430  0.00  0.00    +0.000 S 
ATOM     12  O   UNL     1      21.504  -1.956  54.699  0.00  0.00    +0.000 OA
BRANCH  11  13
ATOM     13  C   UNL     1      20.499   0.467  53.701  0.00  0.00    +0.000 C 
BRANCH  13  18
ATOM     14  C   UNL     1      18.848   2.246  50.753  0.00  0.00    +0.000 A 
ATOM     15  C   UNL     1      18.069   1.194  50.277  0.00  0.00    +0.000 A 
ATOM     16  C   UNL     1      18.116  -0.008  50.950  0.00  0.00    +0.000 A 
ATOM     17  N   UNL     1      18.878  -0.227  52.039  0.00  0.00    +0.000 NA
ATOM     18  C   UNL     1      19.666   0.793  52.483  0.00  0.00    +0.000 A 
ATOM     19  C   UNL     1      19.692   2.051  51.859  0.00  0.00    +0.000 A 
ATOM     20  C   UNL     1      20.628   3.135  52.323  0.00  0.00    +0.000 C 
BRANCH  14  22
ATOM     21  C   UNL     1      19.283   3.485  48.789  0.00  0.00    +0.000 C 
ATOM     22  O   UNL     1      18.860   3.481  50.152  0.00  0.00    +0.000 OA
ENDBRANCH  14  22
ENDBRANCH  13  18
ENDBRANCH  11  13
ENDBRANCH   1  11
BRANCH   5  23
ATOM     23  O   UNL     1      28.571   1.227  54.142  0.00  0.00    +0.000 OA
BRANCH  23  24
ATOM     24  C   UNL     1      29.050  -0.017  54.670  0.00  0.00    +0.000 C 
BRANCH  24  25
ATOM     25  C   UNL     1      29.837  -0.874  53.683  0.00  0.00    +0.000 C 
ATOM     26  F   UNL     1      30.490  -0.150  52.751  0.00  0.00    +0.000 F 
ATOM     27  F   UNL     1      30.764  -1.618  54.338  0.00  0.00    +0.000 F 
ATOM     28  F   UNL     1      29.025  -1.739  53.031  0.00  0.00    +0.000 F 
ENDBRANCH  24  25
ENDBRANCH  23  24
ENDBRANCH   5  23
TORSDOF 7
ENDMDL
MODEL 5
REMARK VINA RESULT:    -7.334      2.311      3.043
REMARK INTER + INTRA:         -11.225
REMARK INTER:                 -10.316
REMARK INTRA:                  -0.909
REMARK UNBOUND:                -0.890
REMARK  Name = 
REMARK  9 active torsions:
REMARK  status: ('A' for Active; 'I' for Inactive)
REMARK    1  A    between atoms: C_1  and  O_2
REMARK    2  A    between atoms: O_2  and  C_3
REMARK    3  A    between atoms: C_7  and  C_8
REMARK    4  A    between atoms: C_8  and  S_9
REMARK    5  A    between atoms: S_9  and  C_11
REMARK    6  A    between atoms: C_15  and  O_16
REMARK    7  A    between atoms: O_16  and  C_17
REMARK    8  A    between atoms: C_17  and  C_18
REMARK    9  A    between atoms: C_26  and  C_27
REMARK                            x       y       z     vdW  Elec       q    Type
REMARK                         _______ _______ _______ _____ _____    ______ ____
ROOT
ATOM      1  C   UNL     1      22.692   0.943  51.665  0.00  0.00    +0.000 A 
ATOM      2  N   UNL     1      23.877   1.490  51.510  0.00  0.00    +0.000 NA
ATOM      3  C   UNL     1      24.650   0.980  52.529  0.00  0.00    +0.000 A 
ATOM      4  C   UNL     1      25.978   1.259  52.879  0.00  0.00    +0.000 A 
ATOM      5  C   UNL     1      26.560   0.576  53.957  0.00  0.00    +0.000 A 
ATOM      6  C   UNL     1      25.824  -0.373  54.671  0.00  0.00    +0.000 A 
ATOM      7  C   UNL     1      24.485  -0.651  54.350  0.00  0.00    +0.000 A 
ATOM      8  C   UNL     1      23.933   0.059  53.282  0.00  0.00    +0.000 A 
ATOM      9  N   UNL     1      22.674   0.087  52.738  0.00  0.00    +0.000 N 
ATOM     10  H   UNL     1      21.893  -0.418  53.061  0.00  0.00    +0.000 HD
ENDROOT
BRANCH   1  11
ATOM     11  S   UNL     1      21.291   1.231  50.681  0.00  0.00    +0.000 S 
ATOM     12  O   UNL     1      20.171   0.299  51.276  0.00  0.00    +0.000 OA
BRANCH  11  13
ATOM     13  C   UNL     1      21.005   2.973  51.093  0.00  0.00    +0.000 C 
BRANCH  13  18
ATOM     14  C   UNL     1      23.638   5.583  50.179  0.00  0.00    +0.000 A 
ATOM     15  C   UNL     1      23.617   5.432  48.795  0.00  0.00    +0.000 A 
ATOM     16  C   UNL     1      22.743   4.515  48.253  0.00  0.00    +0.000 A 
ATOM     17  N   UNL     1      21.912   3.749  48.985  0.00  0.00    +0.000 NA
ATOM     18  C   UNL     1      21.958   3.872  50.342  0.00  0.00    +0.000 A 
ATOM     19  C   UNL     1      22.820   4.774  50.987  0.00  0.00    +0.000 A 
ATOM     20  C   UNL     1      22.906   4.837  52.488  0.00  0.00    +0.000 C 
BRANCH  14  22
ATOM     21  C   UNL     1      24.117   7.850  50.638  0.00  0.00    +0.000 C 
ATOM     22  O   UNL     1      24.469   6.477  50.808  0.00  0.00    +0.000 OA
ENDBRANCH  14  22
ENDBRANCH  13  18
ENDBRANCH  11  13
ENDBRANCH   1  11
BRANCH   5  23
ATOM     23  O   UNL     1      27.834   0.976  54.260  0.00  0.00    +0.000 OA
BRANCH  23  24
ATOM     24  C   UNL     1      28.734  -0.014  54.776  0.00  0.00    +0.000 C 
BRANCH  24  25
ATOM     25  C   UNL     1      29.600  -0.706  53.727  0.00  0.00    +0.000 C 
ATOM     26  F   UNL     1      30.230   0.156  52.903  0.00  0.00    +0.000 F 
ATOM     27  F   UNL     1      30.554  -1.461  54.326  0.00  0.00    +0.000 F 
ATOM     28  F   UNL     1      28.861  -1.539  52.958  0.00  0.00    +0.000 F 
ENDBRANCH  24  25
ENDBRANCH  23  24
ENDBRANCH   5  23
TORSDOF 7
ENDMDL
MODEL 6
REMARK VINA RESULT:    -7.330      4.131      6.759
REMARK INTER + INTRA:         -11.220
REMARK INTER:                 -10.465
REMARK INTRA:                  -0.755
REMARK UNBOUND:                -0.890
REMARK  Name = 
REMARK  9 active torsions:
REMARK  status: ('A' for Active; 'I' for Inactive)
REMARK    1  A    between atoms: C_1  and  O_2
REMARK    2  A    between atoms: O_2  and  C_3
REMARK    3  A    between atoms: C_7  and  C_8
REMARK    4  A    between atoms: C_8  and  S_9
REMARK    5  A    between atoms: S_9  and  C_11
REMARK    6  A    between atoms: C_15  and  O_16
REMARK    7  A    between atoms: O_16  and  C_17
REMARK    8  A    between atoms: C_17  and  C_18
REMARK    9  A    between atoms: C_26  and  C_27
REMARK                            x       y       z     vdW  Elec       q    Type
REMARK                         _______ _______ _______ _____ _____    ______ ____
ROOT
ATOM      1  C   UNL     1      22.857   1.916  52.034  0.00  0.00    +0.000 A 
ATOM      2  N   UNL     1      23.198   1.266  53.125  0.00  0.00    +0.000 NA
ATOM      3  C   UNL     1      24.562   1.099  53.037  0.00  0.00    +0.000 A 
ATOM      4  C   UNL     1      25.444   0.428  53.895  0.00  0.00    +0.000 A 
ATOM      5  C   UNL     1      26.816   0.425  53.600  0.00  0.00    +0.000 A 
ATOM      6  C   UNL     1      27.295   1.086  52.466  0.00  0.00    +0.000 A 
ATOM      7  C   UNL     1      26.425   1.744  51.582  0.00  0.00    +0.000 A 
ATOM      8  C   UNL     1      25.065   1.714  51.897  0.00  0.00    +0.000 A 
ATOM      9  N   UNL     1      23.951   2.188  51.253  0.00  0.00    +0.000 N 
ATOM     10  H   UNL     1      23.939   2.645  50.380  0.00  0.00    +0.000 HD
ENDROOT
BRANCH   1  11
ATOM     11  S   UNL     1      21.249   2.390  51.582  0.00  0.00    +0.000 S 
ATOM     12  O   UNL     1      21.440   3.552  50.539  0.00  0.00    +0.000 OA
BRANCH  11  13
ATOM     13  C   UNL     1      20.712   0.853  50.784  0.00  0.00    +0.000 C 
BRANCH  13  18
ATOM     14  C   UNL     1      17.533  -0.717  52.203  0.00  0.00    +0.000 A 
ATOM     15  C   UNL     1      18.069  -1.275  53.361  0.00  0.00    +0.000 A 
ATOM     16  C   UNL     1      19.412  -1.091  53.612  0.00  0.00    +0.000 A 
ATOM     17  N   UNL     1      20.239  -0.407  52.798  0.00  0.00    +0.000 NA
ATOM     18  C   UNL     1      19.720   0.110  51.648  0.00  0.00    +0.000 A 
ATOM     19  C   UNL     1      18.366  -0.032  51.302  0.00  0.00    +0.000 A 
ATOM     20  C   UNL     1      17.836   0.482  49.990  0.00  0.00    +0.000 C 
BRANCH  14  22
ATOM     21  C   UNL     1      15.307  -0.106  52.703  0.00  0.00    +0.000 C 
ATOM     22  O   UNL     1      16.206  -0.842  51.874  0.00  0.00    +0.000 OA
ENDBRANCH  14  22
ENDBRANCH  13  18
ENDBRANCH  11  13
ENDBRANCH   1  11
BRANCH   5  23
ATOM     23  O   UNL     1      27.578  -0.319  54.460  0.00  0.00    +0.000 OA
BRANCH  23  24
ATOM     24  C   UNL     1      28.981  -0.030  54.521  0.00  0.00    +0.000 C 
BRANCH  24  25
ATOM     25  C   UNL     1      29.861  -0.921  53.650  0.00  0.00    +0.000 C 
ATOM     26  F   UNL     1      29.180  -1.916  53.046  0.00  0.00    +0.000 F 
ATOM     27  F   UNL     1      30.455  -0.189  52.675  0.00  0.00    +0.000 F 
ATOM     28  F   UNL     1      30.852  -1.488  54.377  0.00  0.00    +0.000 F 
ENDBRANCH  24  25
ENDBRANCH  23  24
ENDBRANCH   5  23
TORSDOF 7
ENDMDL
MODEL 7
REMARK VINA RESULT:    -7.133      3.515      5.281
REMARK INTER + INTRA:         -10.942
REMARK INTER:                  -9.907
REMARK INTRA:                  -1.035
REMARK UNBOUND:                -0.890
REMARK  Name = 
REMARK  9 active torsions:
REMARK  status: ('A' for Active; 'I' for Inactive)
REMARK    1  A    between atoms: C_1  and  O_2
REMARK    2  A    between atoms: O_2  and  C_3
REMARK    3  A    between atoms: C_7  and  C_8
REMARK    4  A    between atoms: C_8  and  S_9
REMARK    5  A    between atoms: S_9  and  C_11
REMARK    6  A    between atoms: C_15  and  O_16
REMARK    7  A    between atoms: O_16  and  C_17
REMARK    8  A    between atoms: C_17  and  C_18
REMARK    9  A    between atoms: C_26  and  C_27
REMARK                            x       y       z     vdW  Elec       q    Type
REMARK                         _______ _______ _______ _____ _____    ______ ____
ROOT
ATOM      1  C   UNL     1      24.882   4.388  50.850  0.00  0.00    +0.000 A 
ATOM      2  N   UNL     1      23.982   3.747  51.562  0.00  0.00    +0.000 NA
ATOM      3  C   UNL     1      24.588   2.570  51.942  0.00  0.00    +0.000 A 
ATOM      4  C   UNL     1      24.075   1.485  52.666  0.00  0.00    +0.000 A 
ATOM      5  C   UNL     1      24.913   0.399  52.957  0.00  0.00    +0.000 A 
ATOM      6  C   UNL     1      26.244   0.400  52.530  0.00  0.00    +0.000 A 
ATOM      7  C   UNL     1      26.770   1.467  51.784  0.00  0.00    +0.000 A 
ATOM      8  C   UNL     1      25.904   2.525  51.499  0.00  0.00    +0.000 A 
ATOM      9  N   UNL     1      26.052   3.675  50.767  0.00  0.00    +0.000 N 
ATOM     10  H   UNL     1      26.858   3.944  50.269  0.00  0.00    +0.000 HD
ENDROOT
BRANCH   1  11
ATOM     11  S   UNL     1      24.676   5.931  50.082  0.00  0.00    +0.000 S 
ATOM     12  O   UNL     1      26.128   6.393  49.689  0.00  0.00    +0.000 OA
BRANCH  11  13
ATOM     13  C   UNL     1      23.723   5.404  48.632  0.00  0.00    +0.000 C 
BRANCH  13  18
ATOM     14  C   UNL     1      20.519   3.381  49.107  0.00  0.00    +0.000 A 
ATOM     15  C   UNL     1      19.783   4.314  49.833  0.00  0.00    +0.000 A 
ATOM     16  C   UNL     1      20.363   5.535  50.102  0.00  0.00    +0.000 A 
ATOM     17  N   UNL     1      21.605   5.877  49.709  0.00  0.00    +0.000 NA
ATOM     18  C   UNL     1      22.338   4.950  49.028  0.00  0.00    +0.000 A 
ATOM     19  C   UNL     1      21.836   3.676  48.714  0.00  0.00    +0.000 A 
ATOM     20  C   UNL     1      22.692   2.646  48.028  0.00  0.00    +0.000 C 
BRANCH  14  22
ATOM     21  C   UNL     1      19.702   1.312  49.901  0.00  0.00    +0.000 C 
ATOM     22  O   UNL     1      20.021   2.143  48.785  0.00  0.00    +0.000 OA
ENDBRANCH  14  22
ENDBRANCH  13  18
ENDBRANCH  11  13
ENDBRANCH   1  11
BRANCH   5  23
ATOM     23  O   UNL     1      24.294  -0.638  53.603  0.00  0.00    +0.000 OA
BRANCH  23  24
ATOM     24  C   UNL     1      22.867  -0.726  53.497  0.00  0.00    +0.000 C 
BRANCH  24  25
ATOM     25  C   UNL     1      22.140  -1.000  54.810  0.00  0.00    +0.000 C 
ATOM     26  F   UNL     1      22.975  -1.216  55.847  0.00  0.00    +0.000 F 
ATOM     27  F   UNL     1      21.351   0.052  55.142  0.00  0.00    +0.000 F 
ATOM     28  F   UNL     1      21.333  -2.081  54.705  0.00  0.00    +0.000 F 
ENDBRANCH  24  25
ENDBRANCH  23  24
ENDBRANCH   5  23
TORSDOF 7
ENDMDL
MODEL 8
REMARK VINA RESULT:    -7.062      2.983      4.262
REMARK INTER + INTRA:         -10.842
REMARK INTER:                  -9.862
REMARK INTRA:                  -0.980
REMARK UNBOUND:                -0.890
REMARK  Name = 
REMARK  9 active torsions:
REMARK  status: ('A' for Active; 'I' for Inactive)
REMARK    1  A    between atoms: C_1  and  O_2
REMARK    2  A    between atoms: O_2  and  C_3
REMARK    3  A    between atoms: C_7  and  C_8
REMARK    4  A    between atoms: C_8  and  S_9
REMARK    5  A    between atoms: S_9  and  C_11
REMARK    6  A    between atoms: C_15  and  O_16
REMARK    7  A    between atoms: O_16  and  C_17
REMARK    8  A    between atoms: C_17  and  C_18
REMARK    9  A    between atoms: C_26  and  C_27
REMARK                            x       y       z     vdW  Elec       q    Type
REMARK                         _______ _______ _______ _____ _____    ______ ____
ROOT
ATOM      1  C   UNL     1      22.471   0.624  52.558  0.00  0.00    +0.000 A 
ATOM      2  N   UNL     1      23.020   0.076  53.619  0.00  0.00    +0.000 NA
ATOM      3  C   UNL     1      24.375   0.272  53.471  0.00  0.00    +0.000 A 
ATOM      4  C   UNL     1      25.440  -0.153  54.276  0.00  0.00    +0.000 A 
ATOM      5  C   UNL     1      26.750   0.205  53.924  0.00  0.00    +0.000 A 
ATOM      6  C   UNL     1      26.987   0.978  52.784  0.00  0.00    +0.000 A 
ATOM      7  C   UNL     1      25.936   1.395  51.951  0.00  0.00    +0.000 A 
ATOM      8  C   UNL     1      24.647   1.007  52.323  0.00  0.00    +0.000 A 
ATOM      9  N   UNL     1      23.419   1.180  51.736  0.00  0.00    +0.000 N 
ATOM     10  H   UNL     1      23.248   1.625  50.875  0.00  0.00    +0.000 HD
ENDROOT
BRANCH   1  11
ATOM     11  S   UNL     1      20.776   0.665  52.184  0.00  0.00    +0.000 S 
ATOM     12  O   UNL     1      20.133  -0.468  53.065  0.00  0.00    +0.000 OA
BRANCH  11  13
ATOM     13  C   UNL     1      20.382   2.316  52.822  0.00  0.00    +0.000 C 
BRANCH  13  18
ATOM     14  C   UNL     1      21.085   5.282  50.521  0.00  0.00    +0.000 A 
ATOM     15  C   UNL     1      20.060   5.085  49.600  0.00  0.00    +0.000 A 
ATOM     16  C   UNL     1      19.204   4.023  49.794  0.00  0.00    +0.000 A 
ATOM     17  N   UNL     1      19.305   3.158  50.822  0.00  0.00    +0.000 NA
ATOM     18  C   UNL     1      20.330   3.332  51.704  0.00  0.00    +0.000 A 
ATOM     19  C   UNL     1      21.257   4.380  51.585  0.00  0.00    +0.000 A 
ATOM     20  C   UNL     1      22.422   4.505  52.529  0.00  0.00    +0.000 C 
BRANCH  14  22
ATOM     21  C   UNL     1      22.695   6.372  49.180  0.00  0.00    +0.000 C 
ATOM     22  O   UNL     1      21.980   6.318  50.414  0.00  0.00    +0.000 OA
ENDBRANCH  14  22
ENDBRANCH  13  18
ENDBRANCH  11  13
ENDBRANCH   1  11
BRANCH   5  23
ATOM     23  O   UNL     1      27.719  -0.322  54.735  0.00  0.00    +0.000 OA
BRANCH  23  24
ATOM     24  C   UNL     1      29.083   0.001  54.432  0.00  0.00    +0.000 C 
BRANCH  24  25
ATOM     25  C   UNL     1      29.833  -1.060  53.633  0.00  0.00    +0.000 C 
ATOM     26  F   UNL     1      30.408  -0.576  52.512  0.00  0.00    +0.000 F 
ATOM     27  F   UNL     1      30.819  -1.610  54.385  0.00  0.00    +0.000 F 
ATOM     28  F   UNL     1      29.008  -2.068  53.264  0.00  0.00    +0.000 F 
ENDBRANCH  24  25
ENDBRANCH  23  24
ENDBRANCH   5  23
TORSDOF 7
ENDMDL
MODEL 9
REMARK VINA RESULT:    -7.057      2.772      4.102
REMARK INTER + INTRA:         -10.836
REMARK INTER:                  -9.823
REMARK INTRA:                  -1.013
REMARK UNBOUND:                -0.890
REMARK  Name = 
REMARK  9 active torsions:
REMARK  status: ('A' for Active; 'I' for Inactive)
REMARK    1  A    between atoms: C_1  and  O_2
REMARK    2  A    between atoms: O_2  and  C_3
REMARK    3  A    between atoms: C_7  and  C_8
REMARK    4  A    between atoms: C_8  and  S_9
REMARK    5  A    between atoms: S_9  and  C_11
REMARK    6  A    between atoms: C_15  and  O_16
REMARK    7  A    between atoms: O_16  and  C_17
REMARK    8  A    between atoms: C_17  and  C_18
REMARK    9  A    between atoms: C_26  and  C_27
REMARK                            x       y       z     vdW  Elec       q    Type
REMARK                         _______ _______ _______ _____ _____    ______ ____
ROOT
ATOM      1  C   UNL     1      25.194   3.540  50.944  0.00  0.00    +0.000 A 
ATOM      2  N   UNL     1      26.268   2.783  50.912  0.00  0.00    +0.000 NA
ATOM      3  C   UNL     1      25.979   1.708  51.723  0.00  0.00    +0.000 A 
ATOM      4  C   UNL     1      26.781   0.621  52.097  0.00  0.00    +0.000 A 
ATOM      5  C   UNL     1      26.240  -0.377  52.922  0.00  0.00    +0.000 A 
ATOM      6  C   UNL     1      24.917  -0.287  53.362  0.00  0.00    +0.000 A 
ATOM      7  C   UNL     1      24.105   0.806  53.018  0.00  0.00    +0.000 A 
ATOM      8  C   UNL     1      24.680   1.788  52.209  0.00  0.00    +0.000 A 
ATOM      9  N   UNL     1      24.217   2.988  51.733  0.00  0.00    +0.000 N 
ATOM     10  H   UNL     1      23.336   3.385  51.925  0.00  0.00    +0.000 HD
ENDROOT
BRANCH   1  11
ATOM     11  S   UNL     1      24.982   5.055  50.123  0.00  0.00    +0.000 S 
ATOM     12  O   UNL     1      24.197   4.703  48.805  0.00  0.00    +0.000 OA
BRANCH  11  13
ATOM     13  C   UNL     1      23.921   5.890  51.333  0.00  0.00    +0.000 C 
BRANCH  13  18
ATOM     14  C   UNL     1      20.721   7.234  49.742  0.00  0.00    +0.000 A 
ATOM     15  C   UNL     1      19.904   6.122  49.933  0.00  0.00    +0.000 A 
ATOM     16  C   UNL     1      20.436   5.026  50.577  0.00  0.00    +0.000 A 
ATOM     17  N   UNL     1      21.704   4.964  51.027  0.00  0.00    +0.000 NA
ATOM     18  C   UNL     1      22.512   6.040  50.809  0.00  0.00    +0.000 A 
ATOM     19  C   UNL     1      22.063   7.199  50.155  0.00  0.00    +0.000 A 
ATOM     20  C   UNL     1      22.997   8.342  49.860  0.00  0.00    +0.000 C 
BRANCH  14  22
ATOM     21  C   UNL     1      19.447   9.216  49.919  0.00  0.00    +0.000 C 
ATOM     22  O   UNL     1      20.275   8.373  49.118  0.00  0.00    +0.000 OA
ENDBRANCH  14  22
ENDBRANCH  13  18
ENDBRANCH  11  13
ENDBRANCH   1  11
BRANCH   5  23
ATOM     23  O   UNL     1      27.127  -1.354  53.286  0.00  0.00    +0.000 OA
BRANCH  23  24
ATOM     24  C   UNL     1      28.474  -1.237  52.809  0.00  0.00    +0.000 C 
BRANCH  24  25
ATOM     25  C   UNL     1      29.472  -0.692  53.827  0.00  0.00    +0.000 C 
ATOM     26  F   UNL     1      30.172   0.367  53.372  0.00  0.00    +0.000 F 
ATOM     27  F   UNL     1      28.830  -0.297  54.954  0.00  0.00    +0.000 F 
ATOM     28  F   UNL     1      30.364  -1.643  54.192  0.00  0.00    +0.000 F 
ENDBRANCH  24  25
ENDBRANCH  23  24
ENDBRANCH   5  23
TORSDOF 7
ENDMDL
