MODEL 1
REMARK VINA RESULT:    -8.833      0.000      0.000
REMARK INTER + INTRA:         -10.478
REMARK INTER:                 -10.124
REMARK INTRA:                  -0.355
REMARK UNBOUND:                -0.355
REMARK  Name = 
REMARK  9 active torsions:
REMARK  status: ('A' for Active; 'I' for Inactive)
REMARK    1  A    between atoms: C_1  and  C_2
REMARK    2  A    between atoms: C_2  and  C_3
REMARK    3  A    between atoms: C_3  and  C_4
REMARK    4  A    between atoms: C_16  and  C_17
REMARK    5  A    between atoms: C_16  and  C_18
REMARK    6  A    between atoms: C_22  and  C_23
REMARK    7  A    between atoms: C_22  and  C_24
REMARK    8  A    between atoms: C_25  and  C_26
REMARK    9  A    between atoms: C_27  and  O_28
REMARK                            x       y       z     vdW  Elec       q    Type
REMARK                         _______ _______ _______ _____ _____    ______ ____
ROOT
ATOM      1  C   UNL     1      22.282   1.350  52.861  0.00  0.00    +0.000 A 
ATOM      2  C   UNL     1      22.013   0.409  53.798  0.00  0.00    +0.000 A 
ATOM      3  C   UNL     1      22.842  -0.763  54.036  0.00  0.00    +0.000 A 
ATOM      4  O   UNL     1      22.560  -1.610  54.879  0.00  0.00    +0.000 OA
ATOM      5  O   UNL     1      23.911  -0.885  53.212  0.00  0.00    +0.000 OA
ATOM      6  C   UNL     1      24.407   0.336  52.769  0.00  0.00    +0.000 A 
ATOM      7  C   UNL     1      25.727   0.567  53.051  0.00  0.00    +0.000 A 
ATOM      8  C   UNL     1      26.445   1.393  52.218  0.00  0.00    +0.000 A 
ATOM      9  C   UNL     1      25.733   2.176  51.296  0.00  0.00    +0.000 A 
ATOM     10  C   UNL     1      24.311   2.250  51.382  0.00  0.00    +0.000 A 
ATOM     11  C   UNL     1      23.622   1.325  52.205  0.00  0.00    +0.000 A 
ATOM     12  O   UNL     1      23.606   3.183  50.648  0.00  0.00    +0.000 OA
ATOM     13  C   UNL     1      24.347   4.209  49.927  0.00  0.00    +0.000 C 
ATOM     14  C   UNL     1      23.632   4.459  48.590  0.00  0.00    +0.000 C 
ATOM     15  C   UNL     1      24.321   5.504  50.749  0.00  0.00    +0.000 C 
ATOM     16  C   UNL     1      25.783   3.874  49.640  0.00  0.00    +0.000 C 
ATOM     17  C   UNL     1      26.454   2.939  50.290  0.00  0.00    +0.000 C 
ATOM     18  O   UNL     1      27.815   1.419  52.258  0.00  0.00    +0.000 OA
ATOM     19  C   UNL     1      28.464   0.860  53.429  0.00  0.00    +0.000 C 
ATOM     20  C   UNL     1      28.706   2.034  54.403  0.00  0.00    +0.000 C 
ATOM     21  C   UNL     1      29.836   0.349  52.967  0.00  0.00    +0.000 C 
ATOM     22  C   UNL     1      27.704  -0.319  54.112  0.00  0.00    +0.000 C 
ATOM     23  C   UNL     1      27.676  -1.637  53.306  0.00  0.00    +0.000 C 
ATOM     24  C   UNL     1      26.268   0.074  54.346  0.00  0.00    +0.000 C 
ENDROOT
BRANCH  24  25
ATOM     25  O   UNL     1      26.103   1.139  55.278  0.00  0.00    +0.000 OA
ATOM     26  H   UNL     1      26.319   1.982  54.848  0.00  0.00    +0.000 HD
ENDBRANCH  24  25
BRANCH   1  27
ATOM     27  C   UNL     1      21.348   2.519  52.809  0.00  0.00    +0.000 C 
BRANCH  27  29
ATOM     28  C   UNL     1      20.199   1.560  50.700  0.00  0.00    +0.000 C 
ATOM     29  C   UNL     1      20.047   2.263  52.049  0.00  0.00    +0.000 C 
ENDBRANCH  27  29
ENDBRANCH   1  27
TORSDOF 3
ENDMDL
MODEL 2
REMARK VINA RESULT:    -8.356      2.188      4.838
REMARK INTER + INTRA:          -9.932
REMARK INTER:                  -9.570
REMARK INTRA:                  -0.362
REMARK UNBOUND:                -0.355
REMARK  Name = 
REMARK  9 active torsions:
REMARK  status: ('A' for Active; 'I' for Inactive)
REMARK    1  A    between atoms: C_1  and  C_2
REMARK    2  A    between atoms: C_2  and  C_3
REMARK    3  A    between atoms: C_3  and  C_4
REMARK    4  A    between atoms: C_16  and  C_17
REMARK    5  A    between atoms: C_16  and  C_18
REMARK    6  A    between atoms: C_22  and  C_23
REMARK    7  A    between atoms: C_22  and  C_24
REMARK    8  A    between atoms: C_25  and  C_26
REMARK    9  A    between atoms: C_27  and  O_28
REMARK                            x       y       z     vdW  Elec       q    Type
REMARK                         _______ _______ _______ _____ _____    ______ ____
ROOT
ATOM      1  C   UNL     1      22.467  -0.050  53.452  0.00  0.00    +0.000 A 
ATOM      2  C   UNL     1      23.658  -0.246  54.068  0.00  0.00    +0.000 A 
ATOM      3  C   UNL     1      24.948  -0.015  53.435  0.00  0.00    +0.000 A 
ATOM      4  O   UNL     1      26.012  -0.222  54.013  0.00  0.00    +0.000 OA
ATOM      5  O   UNL     1      24.889   0.380  52.140  0.00  0.00    +0.000 OA
ATOM      6  C   UNL     1      23.739   1.099  51.836  0.00  0.00    +0.000 A 
ATOM      7  C   UNL     1      23.952   2.349  51.318  0.00  0.00    +0.000 A 
ATOM      8  C   UNL     1      23.004   2.888  50.482  0.00  0.00    +0.000 A 
ATOM      9  C   UNL     1      21.748   2.263  50.423  0.00  0.00    +0.000 A 
ATOM     10  C   UNL     1      21.426   1.238  51.362  0.00  0.00    +0.000 A 
ATOM     11  C   UNL     1      22.461   0.673  52.147  0.00  0.00    +0.000 A 
ATOM     12  O   UNL     1      20.132   0.771  51.481  0.00  0.00    +0.000 OA
ATOM     13  C   UNL     1      19.069   1.466  50.768  0.00  0.00    +0.000 C 
ATOM     14  C   UNL     1      18.074   0.414  50.256  0.00  0.00    +0.000 C 
ATOM     15  C   UNL     1      18.344   2.395  51.750  0.00  0.00    +0.000 C 
ATOM     16  C   UNL     1      19.523   2.296  49.601  0.00  0.00    +0.000 C 
ATOM     17  C   UNL     1      20.772   2.697  49.438  0.00  0.00    +0.000 C 
ATOM     18  O   UNL     1      23.289   3.975  49.697  0.00  0.00    +0.000 OA
ATOM     19  C   UNL     1      24.458   4.764  50.040  0.00  0.00    +0.000 C 
ATOM     20  C   UNL     1      23.963   5.915  50.944  0.00  0.00    +0.000 C 
ATOM     21  C   UNL     1      24.965   5.386  48.732  0.00  0.00    +0.000 C 
ATOM     22  C   UNL     1      25.629   3.969  50.695  0.00  0.00    +0.000 C 
ATOM     23  C   UNL     1      26.370   2.996  49.750  0.00  0.00    +0.000 C 
ATOM     24  C   UNL     1      25.100   3.141  51.838  0.00  0.00    +0.000 C 
ENDROOT
BRANCH  24  25
ATOM     25  O   UNL     1      24.594   3.910  52.925  0.00  0.00    +0.000 OA
ATOM     26  H   UNL     1      25.058   3.663  53.740  0.00  0.00    +0.000 HD
ENDBRANCH  24  25
BRANCH   1  27
ATOM     27  C   UNL     1      21.244  -0.278  54.287  0.00  0.00    +0.000 C 
BRANCH  27  29
ATOM     28  C   UNL     1      19.058  -1.506  53.653  0.00  0.00    +0.000 C 
ATOM     29  C   UNL     1      20.536  -1.608  54.030  0.00  0.00    +0.000 C 
ENDBRANCH  27  29
ENDBRANCH   1  27
TORSDOF 3
ENDMDL
MODEL 3
REMARK VINA RESULT:    -8.339      2.169      5.964
REMARK INTER + INTRA:          -9.912
REMARK INTER:                  -9.561
REMARK INTRA:                  -0.351
REMARK UNBOUND:                -0.355
REMARK  Name = 
REMARK  9 active torsions:
REMARK  status: ('A' for Active; 'I' for Inactive)
REMARK    1  A    between atoms: C_1  and  C_2
REMARK    2  A    between atoms: C_2  and  C_3
REMARK    3  A    between atoms: C_3  and  C_4
REMARK    4  A    between atoms: C_16  and  C_17
REMARK    5  A    between atoms: C_16  and  C_18
REMARK    6  A    between atoms: C_22  and  C_23
REMARK    7  A    between atoms: C_22  and  C_24
REMARK    8  A    between atoms: C_25  and  C_26
REMARK    9  A    between atoms: C_27  and  O_28
REMARK                            x       y       z     vdW  Elec       q    Type
REMARK                         _______ _______ _______ _____ _____    ______ ____
ROOT
ATOM      1  C   UNL     1      21.521  -0.242  53.119  0.00  0.00    +0.000 A 
ATOM      2  C   UNL     1      20.188  -0.390  52.923  0.00  0.00    +0.000 A 
ATOM      3  C   UNL     1      19.328   0.646  52.370  0.00  0.00    +0.000 A 
ATOM      4  O   UNL     1      18.119   0.489  52.224  0.00  0.00    +0.000 OA
ATOM      5  O   UNL     1      19.949   1.817  52.091  0.00  0.00    +0.000 OA
ATOM      6  C   UNL     1      21.288   1.665  51.755  0.00  0.00    +0.000 A 
ATOM      7  C   UNL     1      21.645   2.167  50.532  0.00  0.00    +0.000 A 
ATOM      8  C   UNL     1      22.939   2.591  50.344  0.00  0.00    +0.000 A 
ATOM      9  C   UNL     1      23.895   2.232  51.306  0.00  0.00    +0.000 A 
ATOM     10  C   UNL     1      23.554   1.287  52.321  0.00  0.00    +0.000 A 
ATOM     11  C   UNL     1      22.193   0.943  52.512  0.00  0.00    +0.000 A 
ATOM     12  O   UNL     1      24.528   0.741  53.133  0.00  0.00    +0.000 OA
ATOM     13  C   UNL     1      25.927   1.002  52.820  0.00  0.00    +0.000 C 
ATOM     14  C   UNL     1      26.684   1.177  54.145  0.00  0.00    +0.000 C 
ATOM     15  C   UNL     1      26.500  -0.213  52.081  0.00  0.00    +0.000 C 
ATOM     16  C   UNL     1      26.173   2.216  51.970  0.00  0.00    +0.000 C 
ATOM     17  C   UNL     1      25.235   2.790  51.236  0.00  0.00    +0.000 C 
ATOM     18  O   UNL     1      23.277   3.376  49.272  0.00  0.00    +0.000 OA
ATOM     19  C   UNL     1      22.347   3.431  48.160  0.00  0.00    +0.000 C 
ATOM     20  C   UNL     1      22.808   2.361  47.145  0.00  0.00    +0.000 C 
ATOM     21  C   UNL     1      22.534   4.805  47.501  0.00  0.00    +0.000 C 
ATOM     22  C   UNL     1      20.843   3.267  48.540  0.00  0.00    +0.000 C 
ATOM     23  C   UNL     1      20.229   4.455  49.314  0.00  0.00    +0.000 C 
ATOM     24  C   UNL     1      20.673   2.050  49.411  0.00  0.00    +0.000 C 
ENDROOT
BRANCH  24  25
ATOM     25  O   UNL     1      20.968   0.821  48.754  0.00  0.00    +0.000 OA
ATOM     26  H   UNL     1      21.277   1.002  47.853  0.00  0.00    +0.000 HD
ENDBRANCH  24  25
BRANCH   1  27
ATOM     27  C   UNL     1      22.251  -1.443  53.637  0.00  0.00    +0.000 C 
BRANCH  27  29
ATOM     28  C   UNL     1      23.900  -1.374  55.628  0.00  0.00    +0.000 C 
ATOM     29  C   UNL     1      22.450  -1.463  55.152  0.00  0.00    +0.000 C 
ENDBRANCH  27  29
ENDBRANCH   1  27
TORSDOF 3
ENDMDL
MODEL 4
REMARK VINA RESULT:    -8.274      1.839      5.603
REMARK INTER + INTRA:          -9.838
REMARK INTER:                  -9.588
REMARK INTRA:                  -0.250
REMARK UNBOUND:                -0.355
REMARK  Name = 
REMARK  9 active torsions:
REMARK  status: ('A' for Active; 'I' for Inactive)
REMARK    1  A    between atoms: C_1  and  C_2
REMARK    2  A    between atoms: C_2  and  C_3
REMARK    3  A    between atoms: C_3  and  C_4
REMARK    4  A    between atoms: C_16  and  C_17
REMARK    5  A    between atoms: C_16  and  C_18
REMARK    6  A    between atoms: C_22  and  C_23
REMARK    7  A    between atoms: C_22  and  C_24
REMARK    8  A    between atoms: C_25  and  C_26
REMARK    9  A    between atoms: C_27  and  O_28
REMARK                            x       y       z     vdW  Elec       q    Type
REMARK                         _______ _______ _______ _____ _____    ______ ____
ROOT
ATOM      1  C   UNL     1      21.506   0.275  52.821  0.00  0.00    +0.000 A 
ATOM      2  C   UNL     1      20.263   0.577  52.375  0.00  0.00    +0.000 A 
ATOM      3  C   UNL     1      19.776   1.935  52.182  0.00  0.00    +0.000 A 
ATOM      4  O   UNL     1      18.635   2.176  51.796  0.00  0.00    +0.000 OA
ATOM      5  O   UNL     1      20.651   2.911  52.524  0.00  0.00    +0.000 OA
ATOM      6  C   UNL     1      21.981   2.538  52.369  0.00  0.00    +0.000 A 
ATOM      7  C   UNL     1      22.721   3.342  51.543  0.00  0.00    +0.000 A 
ATOM      8  C   UNL     1      24.076   3.438  51.756  0.00  0.00    +0.000 A 
ATOM      9  C   UNL     1      24.674   2.503  52.615  0.00  0.00    +0.000 A 
ATOM     10  C   UNL     1      23.921   1.380  53.070  0.00  0.00    +0.000 A 
ATOM     11  C   UNL     1      22.516   1.371  52.883  0.00  0.00    +0.000 A 
ATOM     12  O   UNL     1      24.540   0.330  53.718  0.00  0.00    +0.000 OA
ATOM     13  C   UNL     1      25.996   0.299  53.767  0.00  0.00    +0.000 C 
ATOM     14  C   UNL     1      26.413  -0.241  55.144  0.00  0.00    +0.000 C 
ATOM     15  C   UNL     1      26.505  -0.661  52.685  0.00  0.00    +0.000 C 
ATOM     16  C   UNL     1      26.667   1.627  53.558  0.00  0.00    +0.000 C 
ATOM     17  C   UNL     1      26.068   2.663  52.996  0.00  0.00    +0.000 C 
ATOM     18  O   UNL     1      24.812   4.442  51.182  0.00  0.00    +0.000 OA
ATOM     19  C   UNL     1      24.220   5.156  50.066  0.00  0.00    +0.000 C 
ATOM     20  C   UNL     1      24.718   4.456  48.781  0.00  0.00    +0.000 C 
ATOM     21  C   UNL     1      24.816   6.570  50.085  0.00  0.00    +0.000 C 
ATOM     22  C   UNL     1      22.665   5.275  50.101  0.00  0.00    +0.000 C 
ATOM     23  C   UNL     1      22.104   6.209  51.197  0.00  0.00    +0.000 C 
ATOM     24  C   UNL     1      22.059   3.917  50.340  0.00  0.00    +0.000 C 
ENDROOT
BRANCH  24  25
ATOM     25  O   UNL     1      22.281   2.989  49.282  0.00  0.00    +0.000 OA
ATOM     26  H   UNL     1      22.584   3.464  48.493  0.00  0.00    +0.000 HD
ENDBRANCH  24  25
BRANCH   1  27
ATOM     27  C   UNL     1      21.849  -1.182  52.893  0.00  0.00    +0.000 C 
BRANCH  27  29
ATOM     28  C   UNL     1      22.621  -1.511  55.339  0.00  0.00    +0.000 C 
ATOM     29  C   UNL     1      21.593  -1.830  54.253  0.00  0.00    +0.000 C 
ENDBRANCH  27  29
ENDBRANCH   1  27
TORSDOF 3
ENDMDL
MODEL 5
REMARK VINA RESULT:    -7.736      1.993      7.040
REMARK INTER + INTRA:          -9.221
REMARK INTER:                  -8.858
REMARK INTRA:                  -0.363
REMARK UNBOUND:                -0.355
REMARK  Name = 
REMARK  9 active torsions:
REMARK  status: ('A' for Active; 'I' for Inactive)
REMARK    1  A    between atoms: C_1  and  C_2
REMARK    2  A    between atoms: C_2  and  C_3
REMARK    3  A    between atoms: C_3  and  C_4
REMARK    4  A    between atoms: C_16  and  C_17
REMARK    5  A    between atoms: C_16  and  C_18
REMARK    6  A    between atoms: C_22  and  C_23
REMARK    7  A    between atoms: C_22  and  C_24
REMARK    8  A    between atoms: C_25  and  C_26
REMARK    9  A    between atoms: C_27  and  O_28
REMARK                            x       y       z     vdW  Elec       q    Type
REMARK                         _______ _______ _______ _____ _____    ______ ____
ROOT
ATOM      1  C   UNL     1      25.149   1.961  52.206  0.00  0.00    +0.000 A 
ATOM      2  C   UNL     1      26.017   2.801  51.592  0.00  0.00    +0.000 A 
ATOM      3  C   UNL     1      25.896   3.223  50.204  0.00  0.00    +0.000 A 
ATOM      4  O   UNL     1      26.712   3.969  49.670  0.00  0.00    +0.000 OA
ATOM      5  O   UNL     1      24.855   2.678  49.529  0.00  0.00    +0.000 OA
ATOM      6  C   UNL     1      23.770   2.374  50.341  0.00  0.00    +0.000 A 
ATOM      7  C   UNL     1      22.588   2.966  49.982  0.00  0.00    +0.000 A 
ATOM      8  C   UNL     1      21.409   2.335  50.304  0.00  0.00    +0.000 A 
ATOM      9  C   UNL     1      21.461   1.274  51.221  0.00  0.00    +0.000 A 
ATOM     10  C   UNL     1      22.669   1.017  51.936  0.00  0.00    +0.000 A 
ATOM     11  C   UNL     1      23.867   1.645  51.512  0.00  0.00    +0.000 A 
ATOM     12  O   UNL     1      22.686   0.141  53.003  0.00  0.00    +0.000 OA
ATOM     13  C   UNL     1      21.419  -0.375  53.503  0.00  0.00    +0.000 C 
ATOM     14  C   UNL     1      21.631  -1.843  53.905  0.00  0.00    +0.000 C 
ATOM     15  C   UNL     1      21.020   0.424  54.750  0.00  0.00    +0.000 C 
ATOM     16  C   UNL     1      20.277  -0.312  52.530  0.00  0.00    +0.000 C 
ATOM     17  C   UNL     1      20.272   0.475  51.467  0.00  0.00    +0.000 C 
ATOM     18  O   UNL     1      20.227   2.702  49.715  0.00  0.00    +0.000 OA
ATOM     19  C   UNL     1      20.180   3.991  49.050  0.00  0.00    +0.000 C 
ATOM     20  C   UNL     1      19.638   5.002  50.085  0.00  0.00    +0.000 C 
ATOM     21  C   UNL     1      19.136   3.868  47.931  0.00  0.00    +0.000 C 
ATOM     22  C   UNL     1      21.525   4.465  48.419  0.00  0.00    +0.000 C 
ATOM     23  C   UNL     1      21.984   3.668  47.177  0.00  0.00    +0.000 C 
ATOM     24  C   UNL     1      22.629   4.350  49.438  0.00  0.00    +0.000 C 
ENDROOT
BRANCH  24  25
ATOM     25  O   UNL     1      22.480   5.222  50.555  0.00  0.00    +0.000 OA
ATOM     26  H   UNL     1      23.320   5.676  50.726  0.00  0.00    +0.000 HD
ENDBRANCH  24  25
BRANCH   1  27
ATOM     27  C   UNL     1      25.401   1.693  53.658  0.00  0.00    +0.000 C 
BRANCH  27  29
ATOM     28  C   UNL     1      26.179  -0.700  53.065  0.00  0.00    +0.000 C 
ATOM     29  C   UNL     1      26.366   0.542  53.936  0.00  0.00    +0.000 C 
ENDBRANCH  27  29
ENDBRANCH   1  27
TORSDOF 3
ENDMDL
MODEL 6
REMARK VINA RESULT:    -7.666      1.792      6.317
REMARK INTER + INTRA:          -9.141
REMARK INTER:                  -8.853
REMARK INTRA:                  -0.288
REMARK UNBOUND:                -0.355
REMARK  Name = 
REMARK  9 active torsions:
REMARK  status: ('A' for Active; 'I' for Inactive)
REMARK    1  A    between atoms: C_1  and  C_2
REMARK    2  A    between atoms: C_2  and  C_3
REMARK    3  A    between atoms: C_3  and  C_4
REMARK    4  A    between atoms: C_16  and  C_17
REMARK    5  A    between atoms: C_16  and  C_18
REMARK    6  A    between atoms: C_22  and  C_23
REMARK    7  A    between atoms: C_22  and  C_24
REMARK    8  A    between atoms: C_25  and  C_26
REMARK    9  A    between atoms: C_27  and  O_28
REMARK                            x       y       z     vdW  Elec       q    Type
REMARK                         _______ _______ _______ _____ _____    ______ ____
ROOT
ATOM      1  C   UNL     1      24.324   3.436  50.187  0.00  0.00    +0.000 A 
ATOM      2  C   UNL     1      23.381   4.127  49.501  0.00  0.00    +0.000 A 
ATOM      3  C   UNL     1      22.094   3.574  49.107  0.00  0.00    +0.000 A 
ATOM      4  O   UNL     1      21.269   4.220  48.467  0.00  0.00    +0.000 OA
ATOM      5  O   UNL     1      21.903   2.275  49.440  0.00  0.00    +0.000 OA
ATOM      6  C   UNL     1      22.590   1.893  50.586  0.00  0.00    +0.000 A 
ATOM      7  C   UNL     1      21.812   1.378  51.590  0.00  0.00    +0.000 A 
ATOM      8  C   UNL     1      22.373   0.479  52.465  0.00  0.00    +0.000 A 
ATOM      9  C   UNL     1      23.770   0.348  52.467  0.00  0.00    +0.000 A 
ATOM     10  C   UNL     1      24.567   1.274  51.729  0.00  0.00    +0.000 A 
ATOM     11  C   UNL     1      23.938   2.127  50.789  0.00  0.00    +0.000 A 
ATOM     12  O   UNL     1      25.936   1.317  51.895  0.00  0.00    +0.000 OA
ATOM     13  C   UNL     1      26.536   0.532  52.967  0.00  0.00    +0.000 C 
ATOM     14  C   UNL     1      27.870  -0.032  52.454  0.00  0.00    +0.000 C 
ATOM     15  C   UNL     1      26.816   1.459  54.156  0.00  0.00    +0.000 C 
ATOM     16  C   UNL     1      25.698  -0.612  53.463  0.00  0.00    +0.000 C 
ATOM     17  C   UNL     1      24.395  -0.700  53.257  0.00  0.00    +0.000 C 
ATOM     18  O   UNL     1      21.590  -0.296  53.281  0.00  0.00    +0.000 OA
ATOM     19  C   UNL     1      20.211   0.113  53.475  0.00  0.00    +0.000 C 
ATOM     20  C   UNL     1      20.182   0.974  54.758  0.00  0.00    +0.000 C 
ATOM     21  C   UNL     1      19.411  -1.167  53.756  0.00  0.00    +0.000 C 
ATOM     22  C   UNL     1      19.557   0.847  52.264  0.00  0.00    +0.000 C 
ATOM     23  C   UNL     1      19.283  -0.041  51.028  0.00  0.00    +0.000 C 
ATOM     24  C   UNL     1      20.459   1.962  51.802  0.00  0.00    +0.000 C 
ENDROOT
BRANCH  24  25
ATOM     25  O   UNL     1      20.622   3.008  52.755  0.00  0.00    +0.000 OA
ATOM     26  H   UNL     1      21.300   2.755  53.401  0.00  0.00    +0.000 HD
ENDBRANCH  24  25
BRANCH   1  27
ATOM     27  C   UNL     1      25.561   4.195  50.561  0.00  0.00    +0.000 C 
BRANCH  27  29
ATOM     28  C   UNL     1      27.116   5.161  48.734  0.00  0.00    +0.000 C 
ATOM     29  C   UNL     1      26.750   3.975  49.627  0.00  0.00    +0.000 C 
ENDBRANCH  27  29
ENDBRANCH   1  27
TORSDOF 3
ENDMDL
MODEL 7
REMARK VINA RESULT:    -7.635      2.627      4.536
REMARK INTER + INTRA:          -9.105
REMARK INTER:                  -8.813
REMARK INTRA:                  -0.293
REMARK UNBOUND:                -0.355
REMARK  Name = 
REMARK  9 active torsions:
REMARK  status: ('A' for Active; 'I' for Inactive)
REMARK    1  A    between atoms: C_1  and  C_2
REMARK    2  A    between atoms: C_2  and  C_3
REMARK    3  A    between atoms: C_3  and  C_4
REMARK    4  A    between atoms: C_16  and  C_17
REMARK    5  A    between atoms: C_16  and  C_18
REMARK    6  A    between atoms: C_22  and  C_23
REMARK    7  A    between atoms: C_22  and  C_24
REMARK    8  A    between atoms: C_25  and  C_26
REMARK    9  A    between atoms: C_27  and  O_28
REMARK                            x       y       z     vdW  Elec       q    Type
REMARK                         _______ _______ _______ _____ _____    ______ ____
ROOT
ATOM      1  C   UNL     1      22.630   6.398  50.493  0.00  0.00    +0.000 A 
ATOM      2  C   UNL     1      21.572   5.960  51.218  0.00  0.00    +0.000 A 
ATOM      3  C   UNL     1      21.290   4.556  51.478  0.00  0.00    +0.000 A 
ATOM      4  O   UNL     1      20.310   4.190  52.122  0.00  0.00    +0.000 OA
ATOM      5  O   UNL     1      22.150   3.683  50.901  0.00  0.00    +0.000 OA
ATOM      6  C   UNL     1      23.431   4.196  50.740  0.00  0.00    +0.000 A 
ATOM      7  C   UNL     1      24.430   3.471  51.334  0.00  0.00    +0.000 A 
ATOM      8  C   UNL     1      25.694   3.523  50.794  0.00  0.00    +0.000 A 
ATOM      9  C   UNL     1      25.963   4.523  49.847  0.00  0.00    +0.000 A 
ATOM     10  C   UNL     1      25.009   5.562  49.627  0.00  0.00    +0.000 A 
ATOM     11  C   UNL     1      23.701   5.418  50.151  0.00  0.00    +0.000 A 
ATOM     12  O   UNL     1      25.339   6.678  48.884  0.00  0.00    +0.000 OA
ATOM     13  C   UNL     1      26.727   6.866  48.482  0.00  0.00    +0.000 C 
ATOM     14  C   UNL     1      26.735   7.458  47.065  0.00  0.00    +0.000 C 
ATOM     15  C   UNL     1      27.384   7.867  49.439  0.00  0.00    +0.000 C 
ATOM     16  C   UNL     1      27.562   5.617  48.477  0.00  0.00    +0.000 C 
ATOM     17  C   UNL     1      27.229   4.518  49.133  0.00  0.00    +0.000 C 
ATOM     18  O   UNL     1      26.647   2.601  51.137  0.00  0.00    +0.000 OA
ATOM     19  C   UNL     1      26.425   1.819  52.340  0.00  0.00    +0.000 C 
ATOM     20  C   UNL     1      27.148   2.559  53.487  0.00  0.00    +0.000 C 
ATOM     21  C   UNL     1      27.140   0.478  52.129  0.00  0.00    +0.000 C 
ATOM     22  C   UNL     1      24.930   1.532  52.680  0.00  0.00    +0.000 C 
ATOM     23  C   UNL     1      24.216   0.551  51.724  0.00  0.00    +0.000 C 
ATOM     24  C   UNL     1      24.147   2.819  52.641  0.00  0.00    +0.000 C 
ENDROOT
BRANCH  24  25
ATOM     25  O   UNL     1      24.525   3.758  53.644  0.00  0.00    +0.000 OA
ATOM     26  H   UNL     1      24.261   3.425  54.516  0.00  0.00    +0.000 HD
ENDBRANCH  24  25
BRANCH   1  27
ATOM     27  C   UNL     1      22.792   7.884  50.389  0.00  0.00    +0.000 C 
BRANCH  27  29
ATOM     28  C   UNL     1      20.805   8.988  49.156  0.00  0.00    +0.000 C 
ATOM     29  C   UNL     1      22.251   8.495  49.097  0.00  0.00    +0.000 C 
ENDBRANCH  27  29
ENDBRANCH   1  27
TORSDOF 3
ENDMDL
MODEL 8
REMARK VINA RESULT:    -7.441      3.338      8.383
REMARK INTER + INTRA:          -8.883
REMARK INTER:                  -8.561
REMARK INTRA:                  -0.322
REMARK UNBOUND:                -0.355
REMARK  Name = 
REMARK  9 active torsions:
REMARK  status: ('A' for Active; 'I' for Inactive)
REMARK    1  A    between atoms: C_1  and  C_2
REMARK    2  A    between atoms: C_2  and  C_3
REMARK    3  A    between atoms: C_3  and  C_4
REMARK    4  A    between atoms: C_16  and  C_17
REMARK    5  A    between atoms: C_16  and  C_18
REMARK    6  A    between atoms: C_22  and  C_23
REMARK    7  A    between atoms: C_22  and  C_24
REMARK    8  A    between atoms: C_25  and  C_26
REMARK    9  A    between atoms: C_27  and  O_28
REMARK                            x       y       z     vdW  Elec       q    Type
REMARK                         _______ _______ _______ _____ _____    ______ ____
ROOT
ATOM      1  C   UNL     1      22.674   1.665  50.285  0.00  0.00    +0.000 A 
ATOM      2  C   UNL     1      22.841   2.494  49.226  0.00  0.00    +0.000 A 
ATOM      3  C   UNL     1      21.849   2.686  48.179  0.00  0.00    +0.000 A 
ATOM      4  O   UNL     1      22.039   3.429  47.220  0.00  0.00    +0.000 OA
ATOM      5  O   UNL     1      20.730   1.933  48.306  0.00  0.00    +0.000 OA
ATOM      6  C   UNL     1      20.413   1.636  49.625  0.00  0.00    +0.000 A 
ATOM      7  C   UNL     1      19.165   2.031  50.030  0.00  0.00    +0.000 A 
ATOM      8  C   UNL     1      18.543   1.327  51.034  0.00  0.00    +0.000 A 
ATOM      9  C   UNL     1      19.318   0.430  51.785  0.00  0.00    +0.000 A 
ATOM     10  C   UNL     1      20.736   0.420  51.629  0.00  0.00    +0.000 A 
ATOM     11  C   UNL     1      21.313   1.107  50.532  0.00  0.00    +0.000 A 
ATOM     12  O   UNL     1      21.539  -0.277  52.509  0.00  0.00    +0.000 OA
ATOM     13  C   UNL     1      20.933  -0.850  53.704  0.00  0.00    +0.000 C 
ATOM     14  C   UNL     1      21.602  -2.208  53.971  0.00  0.00    +0.000 C 
ATOM     15  C   UNL     1      21.213   0.079  54.892  0.00  0.00    +0.000 C 
ATOM     16  C   UNL     1      19.448  -1.063  53.625  0.00  0.00    +0.000 C 
ATOM     17  C   UNL     1      18.673  -0.451  52.745  0.00  0.00    +0.000 C 
ATOM     18  O   UNL     1      17.200   1.467  51.268  0.00  0.00    +0.000 OA
ATOM     19  C   UNL     1      16.536   2.628  50.703  0.00  0.00    +0.000 C 
ATOM     20  C   UNL     1      16.541   3.716  51.799  0.00  0.00    +0.000 C 
ATOM     21  C   UNL     1      15.076   2.222  50.459  0.00  0.00    +0.000 C 
ATOM     22  C   UNL     1      17.134   3.149  49.360  0.00  0.00    +0.000 C 
ATOM     23  C   UNL     1      16.904   2.229  48.139  0.00  0.00    +0.000 C 
ATOM     24  C   UNL     1      18.625   3.313  49.501  0.00  0.00    +0.000 C 
ENDROOT
BRANCH  24  25
ATOM     25  O   UNL     1      19.012   4.321  50.431  0.00  0.00    +0.000 OA
ATOM     26  H   UNL     1      19.022   3.948  51.326  0.00  0.00    +0.000 HD
ENDBRANCH  24  25
BRANCH   1  27
ATOM     27  C   UNL     1      23.780   1.650  51.295  0.00  0.00    +0.000 C 
BRANCH  27  29
ATOM     28  C   UNL     1      24.766   2.830  53.375  0.00  0.00    +0.000 C 
ATOM     29  C   UNL     1      23.533   2.525  52.524  0.00  0.00    +0.000 C 
ENDBRANCH  27  29
ENDBRANCH   1  27
TORSDOF 3
ENDMDL
MODEL 9
REMARK VINA RESULT:    -5.978      3.056      6.279
REMARK INTER + INTRA:          -7.207
REMARK INTER:                  -7.008
REMARK INTRA:                  -0.199
REMARK UNBOUND:                -0.355
REMARK  Name = 
REMARK  9 active torsions:
REMARK  status: ('A' for Active; 'I' for Inactive)
REMARK    1  A    between atoms: C_1  and  C_2
REMARK    2  A    between atoms: C_2  and  C_3
REMARK    3  A    between atoms: C_3  and  C_4
REMARK    4  A    between atoms: C_16  and  C_17
REMARK    5  A    between atoms: C_16  and  C_18
REMARK    6  A    between atoms: C_22  and  C_23
REMARK    7  A    between atoms: C_22  and  C_24
REMARK    8  A    between atoms: C_25  and  C_26
REMARK    9  A    between atoms: C_27  and  O_28
REMARK                            x       y       z     vdW  Elec       q    Type
REMARK                         _______ _______ _______ _____ _____    ______ ____
ROOT
ATOM      1  C   UNL     1      23.636   2.508  50.728  0.00  0.00    +0.000 A 
ATOM      2  C   UNL     1      24.764   2.328  51.457  0.00  0.00    +0.000 A 
ATOM      3  C   UNL     1      26.086   2.762  51.030  0.00  0.00    +0.000 A 
ATOM      4  O   UNL     1      27.093   2.566  51.705  0.00  0.00    +0.000 OA
ATOM      5  O   UNL     1      26.132   3.338  49.805  0.00  0.00    +0.000 OA
ATOM      6  C   UNL     1      24.955   3.991  49.459  0.00  0.00    +0.000 A 
ATOM      7  C   UNL     1      25.092   5.318  49.148  0.00  0.00    +0.000 A 
ATOM      8  C   UNL     1      24.192   5.890  48.280  0.00  0.00    +0.000 A 
ATOM      9  C   UNL     1      23.024   5.173  47.978  0.00  0.00    +0.000 A 
ATOM     10  C   UNL     1      22.708   3.995  48.719  0.00  0.00    +0.000 A 
ATOM     11  C   UNL     1      23.701   3.413  49.544  0.00  0.00    +0.000 A 
ATOM     12  O   UNL     1      21.465   3.404  48.609  0.00  0.00    +0.000 OA
ATOM     13  C   UNL     1      20.422   4.102  47.869  0.00  0.00    +0.000 C 
ATOM     14  C   UNL     1      19.606   3.054  47.096  0.00  0.00    +0.000 C 
ATOM     15  C   UNL     1      19.497   4.807  48.869  0.00  0.00    +0.000 C 
ATOM     16  C   UNL     1      20.915   5.132  46.893  0.00  0.00    +0.000 C 
ATOM     17  C   UNL     1      22.125   5.662  46.946  0.00  0.00    +0.000 C 
ATOM     18  O   UNL     1      24.449   7.102  47.694  0.00  0.00    +0.000 OA
ATOM     19  C   UNL     1      25.482   7.931  48.287  0.00  0.00    +0.000 C 
ATOM     20  C   UNL     1      24.771   8.888  49.270  0.00  0.00    +0.000 C 
ATOM     21  C   UNL     1      26.066   8.782  47.151  0.00  0.00    +0.000 C 
ATOM     22  C   UNL     1      26.649   7.153  48.970  0.00  0.00    +0.000 C 
ATOM     23  C   UNL     1      27.590   6.400  48.002  0.00  0.00    +0.000 C 
ATOM     24  C   UNL     1      26.085   6.122  49.912  0.00  0.00    +0.000 C 
ENDROOT
BRANCH  24  25
ATOM     25  O   UNL     1      25.381   6.673  51.022  0.00  0.00    +0.000 OA
ATOM     26  H   UNL     1      25.717   6.284  51.844  0.00  0.00    +0.000 HD
ENDBRANCH  24  25
BRANCH   1  27
ATOM     27  C   UNL     1      22.358   2.052  51.363  0.00  0.00    +0.000 C 
BRANCH  27  29
ATOM     28  C   UNL     1      22.327   0.317  53.280  0.00  0.00    +0.000 C 
ATOM     29  C   UNL     1      22.340   0.580  51.774  0.00  0.00    +0.000 C 
ENDBRANCH  27  29
ENDBRANCH   1  27
TORSDOF 3
ENDMDL
