MODEL 1
REMARK VINA RESULT:    -8.832      0.000      0.000
REMARK INTER + INTRA:         -13.752
REMARK INTER:                 -12.962
REMARK INTRA:                  -0.790
REMARK UNBOUND:                -0.790
REMARK  Name = 
REMARK  12 active torsions:
REMARK  status: ('A' for Active; 'I' for Inactive)
REMARK    1  A    between atoms: C_1  and  C_2
REMARK    2  A    between atoms: C_3  and  C_4
REMARK    3  A    between atoms: C_5  and  C_6
REMARK    4  A    between atoms: C_6  and  O_8
REMARK    5  A    between atoms: O_8  and  C_9
REMARK    6  A    between atoms: C_9  and  C_10
REMARK    7  A    between atoms: C_9  and  C_15
REMARK    8  A    between atoms: C_10  and  C_11
REMARK    9  A    between atoms: C_12  and  C_13
REMARK   10  A    between atoms: C_12  and  C_14
REMARK   11  A    between atoms: C_20  and  O_21
REMARK   12  A    between atoms: C_24  and  O_25
REMARK                            x       y       z     vdW  Elec       q    Type
REMARK                         _______ _______ _______ _____ _____    ______ ____
ROOT
ATOM      1  C   UNL     1      24.876   0.287  52.691  0.00  0.00    +0.000 C 
ATOM      2  C   UNL     1      25.199  -1.009  52.589  0.00  0.00    +0.000 C 
ATOM      3  C   UNL     1      26.602  -1.455  52.575  0.00  0.00    +0.000 C 
ATOM      4  O   UNL     1      26.899  -2.600  52.261  0.00  0.00    +0.000 OA
ATOM      5  C   UNL     1      27.619  -0.513  53.072  0.00  0.00    +0.000 A 
ATOM      6  C   UNL     1      28.885  -0.973  53.450  0.00  0.00    +0.000 A 
ATOM      7  C   UNL     1      29.810  -0.102  54.021  0.00  0.00    +0.000 A 
ATOM      8  C   UNL     1      29.474   1.236  54.228  0.00  0.00    +0.000 A 
ATOM      9  C   UNL     1      28.217   1.701  53.838  0.00  0.00    +0.000 A 
ATOM     10  C   UNL     1      27.293   0.834  53.233  0.00  0.00    +0.000 A 
ATOM     11  C   UNL     1      25.970   1.301  52.766  0.00  0.00    +0.000 C 
ATOM     12  O   UNL     1      25.770   2.464  52.445  0.00  0.00    +0.000 OA
ENDROOT
BRANCH   6  13
ATOM     13  O   UNL     1      29.277  -2.276  53.312  0.00  0.00    +0.000 OA
ATOM     14  H   UNL     1      29.610  -2.581  52.491  0.00  0.00    +0.000 HD
ENDBRANCH   6  13
BRANCH   9  15
ATOM     15  O   UNL     1      27.883   2.997  54.104  0.00  0.00    +0.000 OA
ATOM     16  H   UNL     1      28.392   3.695  53.741  0.00  0.00    +0.000 HD
ENDBRANCH   9  15
BRANCH   1  17
ATOM     17  C   UNL     1      23.480   0.821  52.902  0.00  0.00    +0.000 C 
BRANCH  17  18
ATOM     18  O   UNL     1      22.516  -0.274  52.973  0.00  0.00    +0.000 OA
BRANCH  18  19
ATOM     19  C   UNL     1      21.330   0.049  53.563  0.00  0.00    +0.000 C 
ATOM     20  O   UNL     1      21.186   0.401  54.726  0.00  0.00    +0.000 OA
BRANCH  19  22
ATOM     21  C   UNL     1      18.931  -0.700  53.088  0.00  0.00    +0.000 C 
ATOM     22  C   UNL     1      20.133  -0.218  52.734  0.00  0.00    +0.000 C 
BRANCH  21  25
ATOM     23  C   UNL     1      16.749  -0.265  49.922  0.00  0.00    +0.000 C 
ATOM     24  C   UNL     1      17.820  -0.090  50.958  0.00  0.00    +0.000 C 
ATOM     25  C   UNL     1      17.827  -0.729  52.139  0.00  0.00    +0.000 C 
ENDBRANCH  21  25
ENDBRANCH  19  22
ENDBRANCH  18  19
ENDBRANCH  17  18
BRANCH  17  26
ATOM     26  C   UNL     1      23.023   1.996  52.009  0.00  0.00    +0.000 C 
BRANCH  26  27
ATOM     27  C   UNL     1      22.990   2.134  50.509  0.00  0.00    +0.000 C 
ATOM     28  C   UNL     1      22.238   1.792  49.444  0.00  0.00    +0.000 C 
ATOM     29  C   UNL     1      22.718   2.228  48.069  0.00  0.00    +0.000 C 
ATOM     30  C   UNL     1      20.959   1.014  49.410  0.00  0.00    +0.000 C 
ENDBRANCH  26  27
ENDBRANCH  17  26
ENDBRANCH   1  17
TORSDOF 9
ENDMDL
MODEL 2
REMARK VINA RESULT:    -8.790      2.791      7.836
REMARK INTER + INTRA:         -13.690
REMARK INTER:                 -12.110
REMARK INTRA:                  -1.580
REMARK UNBOUND:                -0.790
REMARK  Name = 
REMARK  12 active torsions:
REMARK  status: ('A' for Active; 'I' for Inactive)
REMARK    1  A    between atoms: C_1  and  C_2
REMARK    2  A    between atoms: C_3  and  C_4
REMARK    3  A    between atoms: C_5  and  C_6
REMARK    4  A    between atoms: C_6  and  O_8
REMARK    5  A    between atoms: O_8  and  C_9
REMARK    6  A    between atoms: C_9  and  C_10
REMARK    7  A    between atoms: C_9  and  C_15
REMARK    8  A    between atoms: C_10  and  C_11
REMARK    9  A    between atoms: C_12  and  C_13
REMARK   10  A    between atoms: C_12  and  C_14
REMARK   11  A    between atoms: C_20  and  O_21
REMARK   12  A    between atoms: C_24  and  O_25
REMARK                            x       y       z     vdW  Elec       q    Type
REMARK                         _______ _______ _______ _____ _____    ______ ____
ROOT
ATOM      1  C   UNL     1      22.290   1.619  52.883  0.00  0.00    +0.000 C 
ATOM      2  C   UNL     1      22.403   0.489  53.594  0.00  0.00    +0.000 C 
ATOM      3  C   UNL     1      21.221  -0.298  53.983  0.00  0.00    +0.000 C 
ATOM      4  O   UNL     1      21.302  -1.195  54.811  0.00  0.00    +0.000 OA
ATOM      5  C   UNL     1      19.969  -0.051  53.248  0.00  0.00    +0.000 A 
ATOM      6  C   UNL     1      18.933  -0.990  53.279  0.00  0.00    +0.000 A 
ATOM      7  C   UNL     1      17.793  -0.808  52.499  0.00  0.00    +0.000 A 
ATOM      8  C   UNL     1      17.682   0.311  51.675  0.00  0.00    +0.000 A 
ATOM      9  C   UNL     1      18.707   1.258  51.654  0.00  0.00    +0.000 A 
ATOM     10  C   UNL     1      19.844   1.095  52.462  0.00  0.00    +0.000 A 
ATOM     11  C   UNL     1      20.929   2.099  52.500  0.00  0.00    +0.000 C 
ATOM     12  O   UNL     1      20.731   3.277  52.237  0.00  0.00    +0.000 OA
ENDROOT
BRANCH   6  13
ATOM     13  O   UNL     1      18.981  -2.130  54.035  0.00  0.00    +0.000 OA
ATOM     14  H   UNL     1      18.300  -2.770  53.962  0.00  0.00    +0.000 HD
ENDBRANCH   6  13
BRANCH   9  15
ATOM     15  O   UNL     1      18.611   2.314  50.796  0.00  0.00    +0.000 OA
ATOM     16  H   UNL     1      19.125   2.329  50.013  0.00  0.00    +0.000 HD
ENDBRANCH   9  15
BRANCH   1  17
ATOM     17  C   UNL     1      23.443   2.385  52.281  0.00  0.00    +0.000 C 
BRANCH  17  18
ATOM     18  O   UNL     1      23.822   1.817  50.991  0.00  0.00    +0.000 OA
BRANCH  18  19
ATOM     19  C   UNL     1      23.608   2.636  49.922  0.00  0.00    +0.000 C 
ATOM     20  O   UNL     1      22.599   2.657  49.232  0.00  0.00    +0.000 OA
BRANCH  19  22
ATOM     21  C   UNL     1      26.087   3.258  49.794  0.00  0.00    +0.000 C 
ATOM     22  C   UNL     1      24.786   3.433  49.508  0.00  0.00    +0.000 C 
BRANCH  21  25
ATOM     23  C   UNL     1      28.049   6.202  48.228  0.00  0.00    +0.000 C 
ATOM     24  C   UNL     1      26.939   5.334  48.742  0.00  0.00    +0.000 C 
ATOM     25  C   UNL     1      27.110   4.065  49.143  0.00  0.00    +0.000 C 
ENDBRANCH  21  25
ENDBRANCH  19  22
ENDBRANCH  18  19
ENDBRANCH  17  18
BRANCH  17  26
ATOM     26  C   UNL     1      24.645   2.702  53.198  0.00  0.00    +0.000 C 
BRANCH  26  27
ATOM     27  C   UNL     1      25.743   1.811  53.721  0.00  0.00    +0.000 C 
ATOM     28  C   UNL     1      26.506   0.765  53.348  0.00  0.00    +0.000 C 
ATOM     29  C   UNL     1      27.524   0.239  54.348  0.00  0.00    +0.000 C 
ATOM     30  C   UNL     1      26.497   0.011  52.054  0.00  0.00    +0.000 C 
ENDBRANCH  26  27
ENDBRANCH  17  26
ENDBRANCH   1  17
TORSDOF 9
ENDMDL
MODEL 3
REMARK VINA RESULT:    -8.651      3.925      7.759
REMARK INTER + INTRA:         -13.486
REMARK INTER:                 -11.393
REMARK INTRA:                  -2.094
REMARK UNBOUND:                -0.790
REMARK  Name = 
REMARK  12 active torsions:
REMARK  status: ('A' for Active; 'I' for Inactive)
REMARK    1  A    between atoms: C_1  and  C_2
REMARK    2  A    between atoms: C_3  and  C_4
REMARK    3  A    between atoms: C_5  and  C_6
REMARK    4  A    between atoms: C_6  and  O_8
REMARK    5  A    between atoms: O_8  and  C_9
REMARK    6  A    between atoms: C_9  and  C_10
REMARK    7  A    between atoms: C_9  and  C_15
REMARK    8  A    between atoms: C_10  and  C_11
REMARK    9  A    between atoms: C_12  and  C_13
REMARK   10  A    between atoms: C_12  and  C_14
REMARK   11  A    between atoms: C_20  and  O_21
REMARK   12  A    between atoms: C_24  and  O_25
REMARK                            x       y       z     vdW  Elec       q    Type
REMARK                         _______ _______ _______ _____ _____    ______ ____
ROOT
ATOM      1  C   UNL     1      22.930   3.271  50.537  0.00  0.00    +0.000 C 
ATOM      2  C   UNL     1      22.734   3.271  49.212  0.00  0.00    +0.000 C 
ATOM      3  C   UNL     1      22.675   4.525  48.441  0.00  0.00    +0.000 C 
ATOM      4  O   UNL     1      22.278   4.540  47.284  0.00  0.00    +0.000 OA
ATOM      5  C   UNL     1      23.231   5.735  49.072  0.00  0.00    +0.000 A 
ATOM      6  C   UNL     1      23.565   6.848  48.293  0.00  0.00    +0.000 A 
ATOM      7  C   UNL     1      24.190   7.951  48.872  0.00  0.00    +0.000 A 
ATOM      8  C   UNL     1      24.494   7.946  50.232  0.00  0.00    +0.000 A 
ATOM      9  C   UNL     1      24.149   6.844  51.014  0.00  0.00    +0.000 A 
ATOM     10  C   UNL     1      23.491   5.743  50.442  0.00  0.00    +0.000 A 
ATOM     11  C   UNL     1      23.069   4.577  51.247  0.00  0.00    +0.000 C 
ATOM     12  O   UNL     1      22.834   4.667  52.444  0.00  0.00    +0.000 OA
ENDROOT
BRANCH   6  13
ATOM     13  O   UNL     1      23.331   6.915  46.947  0.00  0.00    +0.000 OA
ATOM     14  H   UNL     1      24.000   6.662  46.341  0.00  0.00    +0.000 HD
ENDBRANCH   6  13
BRANCH   9  15
ATOM     15  O   UNL     1      24.510   6.830  52.330  0.00  0.00    +0.000 OA
ATOM     16  H   UNL     1      24.730   7.631  52.763  0.00  0.00    +0.000 HD
ENDBRANCH   9  15
BRANCH   1  17
ATOM     17  C   UNL     1      23.190   2.043  51.375  0.00  0.00    +0.000 C 
BRANCH  17  18
ATOM     18  O   UNL     1      24.525   1.512  51.111  0.00  0.00    +0.000 OA
BRANCH  18  19
ATOM     19  C   UNL     1      25.531   2.135  51.786  0.00  0.00    +0.000 C 
ATOM     20  O   UNL     1      25.635   2.206  53.003  0.00  0.00    +0.000 OA
BRANCH  19  22
ATOM     21  C   UNL     1      26.281   3.419  49.705  0.00  0.00    +0.000 C 
ATOM     22  C   UNL     1      26.462   2.909  50.934  0.00  0.00    +0.000 C 
BRANCH  21  25
ATOM     23  C   UNL     1      28.072   6.472  48.142  0.00  0.00    +0.000 C 
ATOM     24  C   UNL     1      27.013   5.514  48.602  0.00  0.00    +0.000 C 
ATOM     25  C   UNL     1      27.276   4.298  49.106  0.00  0.00    +0.000 C 
ENDBRANCH  21  25
ENDBRANCH  19  22
ENDBRANCH  18  19
ENDBRANCH  17  18
BRANCH  17  26
ATOM     26  C   UNL     1      22.088   0.962  51.419  0.00  0.00    +0.000 C 
BRANCH  26  27
ATOM     27  C   UNL     1      21.689   0.010  52.517  0.00  0.00    +0.000 C 
ATOM     28  C   UNL     1      22.218  -0.668  53.555  0.00  0.00    +0.000 C 
ATOM     29  C   UNL     1      21.284  -1.537  54.381  0.00  0.00    +0.000 C 
ATOM     30  C   UNL     1      23.638  -0.700  54.028  0.00  0.00    +0.000 C 
ENDBRANCH  26  27
ENDBRANCH  17  26
ENDBRANCH   1  17
TORSDOF 9
ENDMDL
MODEL 4
REMARK VINA RESULT:    -8.502      2.965      5.545
REMARK INTER + INTRA:         -13.268
REMARK INTER:                 -11.759
REMARK INTRA:                  -1.508
REMARK UNBOUND:                -0.790
REMARK  Name = 
REMARK  12 active torsions:
REMARK  status: ('A' for Active; 'I' for Inactive)
REMARK    1  A    between atoms: C_1  and  C_2
REMARK    2  A    between atoms: C_3  and  C_4
REMARK    3  A    between atoms: C_5  and  C_6
REMARK    4  A    between atoms: C_6  and  O_8
REMARK    5  A    between atoms: O_8  and  C_9
REMARK    6  A    between atoms: C_9  and  C_10
REMARK    7  A    between atoms: C_9  and  C_15
REMARK    8  A    between atoms: C_10  and  C_11
REMARK    9  A    between atoms: C_12  and  C_13
REMARK   10  A    between atoms: C_12  and  C_14
REMARK   11  A    between atoms: C_20  and  O_21
REMARK   12  A    between atoms: C_24  and  O_25
REMARK                            x       y       z     vdW  Elec       q    Type
REMARK                         _______ _______ _______ _____ _____    ______ ____
ROOT
ATOM      1  C   UNL     1      24.250   1.934  51.512  0.00  0.00    +0.000 C 
ATOM      2  C   UNL     1      23.577   1.092  52.307  0.00  0.00    +0.000 C 
ATOM      3  C   UNL     1      24.274   0.182  53.231  0.00  0.00    +0.000 C 
ATOM      4  O   UNL     1      23.681  -0.732  53.788  0.00  0.00    +0.000 OA
ATOM      5  C   UNL     1      25.677   0.490  53.558  0.00  0.00    +0.000 A 
ATOM      6  C   UNL     1      26.280  -0.071  54.689  0.00  0.00    +0.000 A 
ATOM      7  C   UNL     1      27.570   0.302  55.059  0.00  0.00    +0.000 A 
ATOM      8  C   UNL     1      28.265   1.247  54.306  0.00  0.00    +0.000 A 
ATOM      9  C   UNL     1      27.673   1.797  53.169  0.00  0.00    +0.000 A 
ATOM     10  C   UNL     1      26.385   1.401  52.774  0.00  0.00    +0.000 A 
ATOM     11  C   UNL     1      25.743   1.928  51.551  0.00  0.00    +0.000 C 
ATOM     12  O   UNL     1      26.396   2.338  50.601  0.00  0.00    +0.000 OA
ENDROOT
BRANCH   6  13
ATOM     13  O   UNL     1      25.650  -0.978  55.498  0.00  0.00    +0.000 OA
ATOM     14  H   UNL     1      24.972  -0.695  56.080  0.00  0.00    +0.000 HD
ENDBRANCH   6  13
BRANCH   9  15
ATOM     15  O   UNL     1      28.343   2.766  52.480  0.00  0.00    +0.000 OA
ATOM     16  H   UNL     1      28.184   2.884  51.563  0.00  0.00    +0.000 HD
ENDBRANCH   9  15
BRANCH   1  17
ATOM     17  C   UNL     1      23.626   3.026  50.677  0.00  0.00    +0.000 C 
BRANCH  17  18
ATOM     18  O   UNL     1      23.255   4.165  51.512  0.00  0.00    +0.000 OA
BRANCH  18  19
ATOM     19  C   UNL     1      23.534   5.384  50.970  0.00  0.00    +0.000 C 
ATOM     20  O   UNL     1      22.751   6.319  50.880  0.00  0.00    +0.000 OA
BRANCH  19  22
ATOM     21  C   UNL     1      25.172   5.939  49.085  0.00  0.00    +0.000 C 
ATOM     22  C   UNL     1      24.854   5.479  50.306  0.00  0.00    +0.000 C 
BRANCH  21  25
ATOM     23  C   UNL     1      28.870   5.266  48.169  0.00  0.00    +0.000 C 
ATOM     24  C   UNL     1      27.489   5.130  48.738  0.00  0.00    +0.000 C 
ATOM     25  C   UNL     1      26.563   6.101  48.686  0.00  0.00    +0.000 C 
ENDBRANCH  21  25
ENDBRANCH  19  22
ENDBRANCH  18  19
ENDBRANCH  17  18
BRANCH  17  26
ATOM     26  C   UNL     1      22.533   2.614  49.666  0.00  0.00    +0.000 C 
BRANCH  26  27
ATOM     27  C   UNL     1      21.209   1.926  49.878  0.00  0.00    +0.000 C 
ATOM     28  C   UNL     1      20.198   1.854  50.767  0.00  0.00    +0.000 C 
ATOM     29  C   UNL     1      19.034   0.932  50.442  0.00  0.00    +0.000 C 
ATOM     30  C   UNL     1      20.050   2.565  52.076  0.00  0.00    +0.000 C 
ENDBRANCH  26  27
ENDBRANCH  17  26
ENDBRANCH   1  17
TORSDOF 9
ENDMDL
MODEL 5
REMARK VINA RESULT:    -8.363      2.791      4.058
REMARK INTER + INTRA:         -13.065
REMARK INTER:                 -11.780
REMARK INTRA:                  -1.285
REMARK UNBOUND:                -0.790
REMARK  Name = 
REMARK  12 active torsions:
REMARK  status: ('A' for Active; 'I' for Inactive)
REMARK    1  A    between atoms: C_1  and  C_2
REMARK    2  A    between atoms: C_3  and  C_4
REMARK    3  A    between atoms: C_5  and  C_6
REMARK    4  A    between atoms: C_6  and  O_8
REMARK    5  A    between atoms: O_8  and  C_9
REMARK    6  A    between atoms: C_9  and  C_10
REMARK    7  A    between atoms: C_9  and  C_15
REMARK    8  A    between atoms: C_10  and  C_11
REMARK    9  A    between atoms: C_12  and  C_13
REMARK   10  A    between atoms: C_12  and  C_14
REMARK   11  A    between atoms: C_20  and  O_21
REMARK   12  A    between atoms: C_24  and  O_25
REMARK                            x       y       z     vdW  Elec       q    Type
REMARK                         _______ _______ _______ _____ _____    ______ ____
ROOT
ATOM      1  C   UNL     1      24.433   2.135  51.403  0.00  0.00    +0.000 C 
ATOM      2  C   UNL     1      23.661   1.314  52.126  0.00  0.00    +0.000 C 
ATOM      3  C   UNL     1      24.240   0.315  53.040  0.00  0.00    +0.000 C 
ATOM      4  O   UNL     1      23.553  -0.574  53.525  0.00  0.00    +0.000 OA
ATOM      5  C   UNL     1      25.643   0.502  53.448  0.00  0.00    +0.000 A 
ATOM      6  C   UNL     1      26.144  -0.150  54.580  0.00  0.00    +0.000 A 
ATOM      7  C   UNL     1      27.437   0.109  55.028  0.00  0.00    +0.000 A 
ATOM      8  C   UNL     1      28.238   1.030  54.353  0.00  0.00    +0.000 A 
ATOM      9  C   UNL     1      27.747   1.670  53.215  0.00  0.00    +0.000 A 
ATOM     10  C   UNL     1      26.455   1.389  52.741  0.00  0.00    +0.000 A 
ATOM     11  C   UNL     1      25.918   2.014  51.514  0.00  0.00    +0.000 C 
ATOM     12  O   UNL     1      26.647   2.413  50.616  0.00  0.00    +0.000 OA
ENDROOT
BRANCH   6  13
ATOM     13  O   UNL     1      25.409  -1.039  55.315  0.00  0.00    +0.000 OA
ATOM     14  H   UNL     1      25.005  -1.774  54.895  0.00  0.00    +0.000 HD
ENDBRANCH   6  13
BRANCH   9  15
ATOM     15  O   UNL     1      28.521   2.614  52.605  0.00  0.00    +0.000 OA
ATOM     16  H   UNL     1      28.690   3.429  53.034  0.00  0.00    +0.000 HD
ENDBRANCH   9  15
BRANCH   1  17
ATOM     17  C   UNL     1      23.935   3.304  50.590  0.00  0.00    +0.000 C 
BRANCH  17  18
ATOM     18  O   UNL     1      23.874   2.958  49.173  0.00  0.00    +0.000 OA
BRANCH  18  19
ATOM     19  C   UNL     1      22.678   3.220  48.573  0.00  0.00    +0.000 C 
ATOM     20  O   UNL     1      22.489   4.047  47.692  0.00  0.00    +0.000 OA
BRANCH  19  22
ATOM     21  C   UNL     1      21.183   1.233  49.174  0.00  0.00    +0.000 C 
ATOM     22  C   UNL     1      21.516   2.534  49.184  0.00  0.00    +0.000 C 
BRANCH  21  25
ATOM     23  C   UNL     1      19.010   0.007  52.132  0.00  0.00    +0.000 C 
ATOM     24  C   UNL     1      20.185   0.354  51.266  0.00  0.00    +0.000 C 
ATOM     25  C   UNL     1      20.078   0.738  49.984  0.00  0.00    +0.000 C 
ENDBRANCH  21  25
ENDBRANCH  19  22
ENDBRANCH  18  19
ENDBRANCH  17  18
BRANCH  17  26
ATOM     26  C   UNL     1      24.568   4.686  50.865  0.00  0.00    +0.000 C 
BRANCH  26  27
ATOM     27  C   UNL     1      25.149   5.706  49.919  0.00  0.00    +0.000 C 
ATOM     28  C   UNL     1      26.177   5.871  49.063  0.00  0.00    +0.000 C 
ATOM     29  C   UNL     1      26.277   7.196  48.325  0.00  0.00    +0.000 C 
ATOM     30  C   UNL     1      27.279   4.915  48.725  0.00  0.00    +0.000 C 
ENDBRANCH  26  27
ENDBRANCH  17  26
ENDBRANCH   1  17
TORSDOF 9
ENDMDL
MODEL 6
REMARK VINA RESULT:    -8.255      2.554      5.193
REMARK INTER + INTRA:         -12.906
REMARK INTER:                 -11.228
REMARK INTRA:                  -1.678
REMARK UNBOUND:                -0.790
REMARK  Name = 
REMARK  12 active torsions:
REMARK  status: ('A' for Active; 'I' for Inactive)
REMARK    1  A    between atoms: C_1  and  C_2
REMARK    2  A    between atoms: C_3  and  C_4
REMARK    3  A    between atoms: C_5  and  C_6
REMARK    4  A    between atoms: C_6  and  O_8
REMARK    5  A    between atoms: O_8  and  C_9
REMARK    6  A    between atoms: C_9  and  C_10
REMARK    7  A    between atoms: C_9  and  C_15
REMARK    8  A    between atoms: C_10  and  C_11
REMARK    9  A    between atoms: C_12  and  C_13
REMARK   10  A    between atoms: C_12  and  C_14
REMARK   11  A    between atoms: C_20  and  O_21
REMARK   12  A    between atoms: C_24  and  O_25
REMARK                            x       y       z     vdW  Elec       q    Type
REMARK                         _______ _______ _______ _____ _____    ______ ____
ROOT
ATOM      1  C   UNL     1      21.864   0.420  52.496  0.00  0.00    +0.000 C 
ATOM      2  C   UNL     1      21.673  -0.470  53.478  0.00  0.00    +0.000 C 
ATOM      3  C   UNL     1      22.803  -1.060  54.216  0.00  0.00    +0.000 C 
ATOM      4  O   UNL     1      22.645  -2.026  54.950  0.00  0.00    +0.000 OA
ATOM      5  C   UNL     1      24.100  -0.367  54.136  0.00  0.00    +0.000 A 
ATOM      6  C   UNL     1      25.098  -0.622  55.083  0.00  0.00    +0.000 A 
ATOM      7  C   UNL     1      26.283   0.110  55.072  0.00  0.00    +0.000 A 
ATOM      8  C   UNL     1      26.478   1.109  54.120  0.00  0.00    +0.000 A 
ATOM      9  C   UNL     1      25.491   1.356  53.165  0.00  0.00    +0.000 A 
ATOM     10  C   UNL     1      24.308   0.599  53.152  0.00  0.00    +0.000 A 
ATOM     11  C   UNL     1      23.260   0.801  52.128  0.00  0.00    +0.000 C 
ATOM     12  O   UNL     1      23.515   1.254  51.020  0.00  0.00    +0.000 OA
ENDROOT
BRANCH   6  13
ATOM     13  O   UNL     1      24.968  -1.562  56.069  0.00  0.00    +0.000 OA
ATOM     14  H   UNL     1      25.352  -1.413  56.911  0.00  0.00    +0.000 HD
ENDBRANCH   6  13
BRANCH   9  15
ATOM     15  O   UNL     1      25.671   2.379  52.280  0.00  0.00    +0.000 OA
ATOM     16  H   UNL     1      26.536   2.617  52.010  0.00  0.00    +0.000 HD
ENDBRANCH   9  15
BRANCH   1  17
ATOM     17  C   UNL     1      20.773   1.212  51.818  0.00  0.00    +0.000 C 
BRANCH  17  18
ATOM     18  O   UNL     1      20.288   2.275  52.693  0.00  0.00    +0.000 OA
BRANCH  18  19
ATOM     19  C   UNL     1      20.056   3.465  52.071  0.00  0.00    +0.000 C 
ATOM     20  O   UNL     1      18.958   3.903  51.757  0.00  0.00    +0.000 OA
BRANCH  19  22
ATOM     21  C   UNL     1      22.378   4.513  52.302  0.00  0.00    +0.000 C 
ATOM     22  C   UNL     1      21.274   4.173  51.616  0.00  0.00    +0.000 C 
BRANCH  21  25
ATOM     23  C   UNL     1      24.945   6.931  50.710  0.00  0.00    +0.000 C 
ATOM     24  C   UNL     1      23.677   6.349  51.259  0.00  0.00    +0.000 C 
ATOM     25  C   UNL     1      23.542   5.063  51.620  0.00  0.00    +0.000 C 
ENDBRANCH  21  25
ENDBRANCH  19  22
ENDBRANCH  18  19
ENDBRANCH  17  18
BRANCH  17  26
ATOM     26  C   UNL     1      19.647   0.420  51.117  0.00  0.00    +0.000 C 
BRANCH  26  27
ATOM     27  C   UNL     1      18.260   0.063  51.586  0.00  0.00    +0.000 C 
ATOM     28  C   UNL     1      17.629  -0.739  52.467  0.00  0.00    +0.000 C 
ATOM     29  C   UNL     1      16.110  -0.681  52.513  0.00  0.00    +0.000 C 
ATOM     30  C   UNL     1      18.219  -1.717  53.433  0.00  0.00    +0.000 C 
ENDBRANCH  26  27
ENDBRANCH  17  26
ENDBRANCH   1  17
TORSDOF 9
ENDMDL
MODEL 7
REMARK VINA RESULT:    -8.245      3.163      6.803
REMARK INTER + INTRA:         -12.891
REMARK INTER:                 -12.075
REMARK INTRA:                  -0.816
REMARK UNBOUND:                -0.790
REMARK  Name = 
REMARK  12 active torsions:
REMARK  status: ('A' for Active; 'I' for Inactive)
REMARK    1  A    between atoms: C_1  and  C_2
REMARK    2  A    between atoms: C_3  and  C_4
REMARK    3  A    between atoms: C_5  and  C_6
REMARK    4  A    between atoms: C_6  and  O_8
REMARK    5  A    between atoms: O_8  and  C_9
REMARK    6  A    between atoms: C_9  and  C_10
REMARK    7  A    between atoms: C_9  and  C_15
REMARK    8  A    between atoms: C_10  and  C_11
REMARK    9  A    between atoms: C_12  and  C_13
REMARK   10  A    between atoms: C_12  and  C_14
REMARK   11  A    between atoms: C_20  and  O_21
REMARK   12  A    between atoms: C_24  and  O_25
REMARK                            x       y       z     vdW  Elec       q    Type
REMARK                         _______ _______ _______ _____ _____    ______ ____
ROOT
ATOM      1  C   UNL     1      23.647   2.989  51.225  0.00  0.00    +0.000 C 
ATOM      2  C   UNL     1      24.928   2.915  50.843  0.00  0.00    +0.000 C 
ATOM      3  C   UNL     1      25.596   4.036  50.161  0.00  0.00    +0.000 C 
ATOM      4  O   UNL     1      26.683   3.892  49.618  0.00  0.00    +0.000 OA
ATOM      5  C   UNL     1      24.967   5.365  50.265  0.00  0.00    +0.000 A 
ATOM      6  C   UNL     1      25.706   6.521  49.992  0.00  0.00    +0.000 A 
ATOM      7  C   UNL     1      25.146   7.780  50.194  0.00  0.00    +0.000 A 
ATOM      8  C   UNL     1      23.844   7.895  50.680  0.00  0.00    +0.000 A 
ATOM      9  C   UNL     1      23.099   6.744  50.939  0.00  0.00    +0.000 A 
ATOM     10  C   UNL     1      23.649   5.472  50.707  0.00  0.00    +0.000 A 
ATOM     11  C   UNL     1      22.874   4.232  50.927  0.00  0.00    +0.000 C 
ATOM     12  O   UNL     1      21.653   4.211  50.864  0.00  0.00    +0.000 OA
ENDROOT
BRANCH   6  13
ATOM     13  O   UNL     1      27.000   6.491  49.546  0.00  0.00    +0.000 OA
ATOM     14  H   UNL     1      27.410   7.279  49.246  0.00  0.00    +0.000 HD
ENDBRANCH   6  13
BRANCH   9  15
ATOM     15  O   UNL     1      21.850   6.874  51.473  0.00  0.00    +0.000 OA
ATOM     16  H   UNL     1      21.683   7.535  52.116  0.00  0.00    +0.000 HD
ENDBRANCH   9  15
BRANCH   1  17
ATOM     17  C   UNL     1      22.938   1.975  52.088  0.00  0.00    +0.000 C 
BRANCH  17  18
ATOM     18  O   UNL     1      23.789   1.561  53.201  0.00  0.00    +0.000 OA
BRANCH  18  19
ATOM     19  C   UNL     1      23.777   0.223  53.460  0.00  0.00    +0.000 C 
ATOM     20  O   UNL     1      22.825  -0.410  53.895  0.00  0.00    +0.000 OA
BRANCH  19  22
ATOM     21  C   UNL     1      26.143  -0.141  52.556  0.00  0.00    +0.000 C 
ATOM     22  C   UNL     1      25.095  -0.443  53.340  0.00  0.00    +0.000 C 
BRANCH  21  25
ATOM     23  C   UNL     1      29.744  -1.079  53.613  0.00  0.00    +0.000 C 
ATOM     24  C   UNL     1      28.498  -0.302  53.312  0.00  0.00    +0.000 C 
ATOM     25  C   UNL     1      27.417  -0.828  52.715  0.00  0.00    +0.000 C 
ENDBRANCH  21  25
ENDBRANCH  19  22
ENDBRANCH  18  19
ENDBRANCH  17  18
BRANCH  17  26
ATOM     26  C   UNL     1      22.231   0.800  51.376  0.00  0.00    +0.000 C 
BRANCH  26  27
ATOM     27  C   UNL     1      20.768   0.541  51.126  0.00  0.00    +0.000 C 
ATOM     28  C   UNL     1      19.662   0.098  51.757  0.00  0.00    +0.000 C 
ATOM     29  C   UNL     1      18.368   0.044  50.961  0.00  0.00    +0.000 C 
ATOM     30  C   UNL     1      19.514  -0.372  53.170  0.00  0.00    +0.000 C 
ENDBRANCH  26  27
ENDBRANCH  17  26
ENDBRANCH   1  17
TORSDOF 9
ENDMDL
MODEL 8
REMARK VINA RESULT:    -8.153      3.156      6.059
REMARK INTER + INTRA:         -12.756
REMARK INTER:                 -11.689
REMARK INTRA:                  -1.067
REMARK UNBOUND:                -0.790
REMARK  Name = 
REMARK  12 active torsions:
REMARK  status: ('A' for Active; 'I' for Inactive)
REMARK    1  A    between atoms: C_1  and  C_2
REMARK    2  A    between atoms: C_3  and  C_4
REMARK    3  A    between atoms: C_5  and  C_6
REMARK    4  A    between atoms: C_6  and  O_8
REMARK    5  A    between atoms: O_8  and  C_9
REMARK    6  A    between atoms: C_9  and  C_10
REMARK    7  A    between atoms: C_9  and  C_15
REMARK    8  A    between atoms: C_10  and  C_11
REMARK    9  A    between atoms: C_12  and  C_13
REMARK   10  A    between atoms: C_12  and  C_14
REMARK   11  A    between atoms: C_20  and  O_21
REMARK   12  A    between atoms: C_24  and  O_25
REMARK                            x       y       z     vdW  Elec       q    Type
REMARK                         _______ _______ _______ _____ _____    ______ ____
ROOT
ATOM      1  C   UNL     1      25.359   2.607  50.808  0.00  0.00    +0.000 C 
ATOM      2  C   UNL     1      26.452   2.995  50.138  0.00  0.00    +0.000 C 
ATOM      3  C   UNL     1      26.541   4.326  49.514  0.00  0.00    +0.000 C 
ATOM      4  O   UNL     1      27.434   4.596  48.722  0.00  0.00    +0.000 OA
ATOM      5  C   UNL     1      25.593   5.356  49.973  0.00  0.00    +0.000 A 
ATOM      6  C   UNL     1      25.848   6.710  49.730  0.00  0.00    +0.000 A 
ATOM      7  C   UNL     1      25.009   7.690  50.257  0.00  0.00    +0.000 A 
ATOM      8  C   UNL     1      23.914   7.325  51.038  0.00  0.00    +0.000 A 
ATOM      9  C   UNL     1      23.649   5.974  51.269  0.00  0.00    +0.000 A 
ATOM     10  C   UNL     1      24.473   4.982  50.715  0.00  0.00    +0.000 A 
ATOM     11  C   UNL     1      24.198   3.541  50.900  0.00  0.00    +0.000 C 
ATOM     12  O   UNL     1      23.070   3.119  51.114  0.00  0.00    +0.000 OA
ENDROOT
BRANCH   6  13
ATOM     13  O   UNL     1      26.920   7.150  49.003  0.00  0.00    +0.000 OA
ATOM     14  H   UNL     1      27.217   6.658  48.262  0.00  0.00    +0.000 HD
ENDBRANCH   6  13
BRANCH   9  15
ATOM     15  O   UNL     1      22.610   5.637  52.087  0.00  0.00    +0.000 OA
ATOM     16  H   UNL     1      21.898   5.128  51.753  0.00  0.00    +0.000 HD
ENDBRANCH   9  15
BRANCH   1  17
ATOM     17  C   UNL     1      25.249   1.348  51.633  0.00  0.00    +0.000 C 
BRANCH  17  18
ATOM     18  O   UNL     1      24.745   1.651  52.970  0.00  0.00    +0.000 OA
BRANCH  18  19
ATOM     19  C   UNL     1      24.071   0.630  53.570  0.00  0.00    +0.000 C 
ATOM     20  O   UNL     1      24.568  -0.229  54.284  0.00  0.00    +0.000 OA
BRANCH  19  22
ATOM     21  C   UNL     1      21.560   0.278  53.914  0.00  0.00    +0.000 C 
ATOM     22  C   UNL     1      22.652   0.503  53.165  0.00  0.00    +0.000 C 
BRANCH  21  25
ATOM     23  C   UNL     1      18.518  -0.072  51.549  0.00  0.00    +0.000 C 
ATOM     24  C   UNL     1      19.921  -0.001  52.077  0.00  0.00    +0.000 C 
ATOM     25  C   UNL     1      20.227   0.355  53.334  0.00  0.00    +0.000 C 
ENDBRANCH  21  25
ENDBRANCH  19  22
ENDBRANCH  18  19
ENDBRANCH  17  18
BRANCH  17  26
ATOM     26  C   UNL     1      26.454   0.383  51.627  0.00  0.00    +0.000 C 
BRANCH  26  27
ATOM     27  C   UNL     1      27.551   0.175  52.640  0.00  0.00    +0.000 C 
ATOM     28  C   UNL     1      28.396   0.874  53.424  0.00  0.00    +0.000 C 
ATOM     29  C   UNL     1      29.353   0.091  54.307  0.00  0.00    +0.000 C 
ATOM     30  C   UNL     1      28.544   2.358  53.552  0.00  0.00    +0.000 C 
ENDBRANCH  26  27
ENDBRANCH  17  26
ENDBRANCH   1  17
TORSDOF 9
ENDMDL
MODEL 9
REMARK VINA RESULT:    -8.147      3.086      5.179
REMARK INTER + INTRA:         -12.746
REMARK INTER:                 -10.736
REMARK INTRA:                  -2.010
REMARK UNBOUND:                -0.790
REMARK  Name = 
REMARK  12 active torsions:
REMARK  status: ('A' for Active; 'I' for Inactive)
REMARK    1  A    between atoms: C_1  and  C_2
REMARK    2  A    between atoms: C_3  and  C_4
REMARK    3  A    between atoms: C_5  and  C_6
REMARK    4  A    between atoms: C_6  and  O_8
REMARK    5  A    between atoms: O_8  and  C_9
REMARK    6  A    between atoms: C_9  and  C_10
REMARK    7  A    between atoms: C_9  and  C_15
REMARK    8  A    between atoms: C_10  and  C_11
REMARK    9  A    between atoms: C_12  and  C_13
REMARK   10  A    between atoms: C_12  and  C_14
REMARK   11  A    between atoms: C_20  and  O_21
REMARK   12  A    between atoms: C_24  and  O_25
REMARK                            x       y       z     vdW  Elec       q    Type
REMARK                         _______ _______ _______ _____ _____    ______ ____
ROOT
ATOM      1  C   UNL     1      24.434   3.344  51.268  0.00  0.00    +0.000 C 
ATOM      2  C   UNL     1      25.612   2.708  51.306  0.00  0.00    +0.000 C 
ATOM      3  C   UNL     1      25.867   1.613  52.256  0.00  0.00    +0.000 C 
ATOM      4  O   UNL     1      26.999   1.187  52.443  0.00  0.00    +0.000 OA
ATOM      5  C   UNL     1      24.698   0.966  52.876  0.00  0.00    +0.000 A 
ATOM      6  C   UNL     1      24.819  -0.295  53.469  0.00  0.00    +0.000 A 
ATOM      7  C   UNL     1      23.694  -0.954  53.960  0.00  0.00    +0.000 A 
ATOM      8  C   UNL     1      22.436  -0.362  53.853  0.00  0.00    +0.000 A 
ATOM      9  C   UNL     1      22.315   0.903  53.276  0.00  0.00    +0.000 A 
ATOM     10  C   UNL     1      23.450   1.585  52.809  0.00  0.00    +0.000 A 
ATOM     11  C   UNL     1      23.366   2.944  52.233  0.00  0.00    +0.000 C 
ATOM     12  O   UNL     1      22.469   3.720  52.531  0.00  0.00    +0.000 OA
ENDROOT
BRANCH   6  13
ATOM     13  O   UNL     1      26.012  -0.957  53.580  0.00  0.00    +0.000 OA
ATOM     14  H   UNL     1      26.084  -1.701  54.146  0.00  0.00    +0.000 HD
ENDBRANCH   6  13
BRANCH   9  15
ATOM     15  O   UNL     1      21.070   1.441  53.123  0.00  0.00    +0.000 OA
ATOM     16  H   UNL     1      20.970   2.366  53.019  0.00  0.00    +0.000 HD
ENDBRANCH   9  15
BRANCH   1  17
ATOM     17  C   UNL     1      24.018   4.340  50.215  0.00  0.00    +0.000 C 
BRANCH  17  18
ATOM     18  O   UNL     1      24.006   3.719  48.893  0.00  0.00    +0.000 OA
BRANCH  18  19
ATOM     19  C   UNL     1      22.798   3.743  48.263  0.00  0.00    +0.000 C 
ATOM     20  O   UNL     1      22.456   4.549  47.408  0.00  0.00    +0.000 OA
BRANCH  19  22
ATOM     21  C   UNL     1      21.916   1.488  49.089  0.00  0.00    +0.000 C 
ATOM     22  C   UNL     1      21.797   2.796  48.806  0.00  0.00    +0.000 C 
BRANCH  21  25
ATOM     23  C   UNL     1      18.480   0.434  50.524  0.00  0.00    +0.000 C 
ATOM     24  C   UNL     1      19.608   1.247  49.960  0.00  0.00    +0.000 C 
ATOM     25  C   UNL     1      20.850   0.773  49.779  0.00  0.00    +0.000 C 
ENDBRANCH  21  25
ENDBRANCH  19  22
ENDBRANCH  18  19
ENDBRANCH  17  18
BRANCH  17  26
ATOM     26  C   UNL     1      24.692   5.730  50.241  0.00  0.00    +0.000 C 
BRANCH  26  27
ATOM     27  C   UNL     1      25.790   6.306  49.383  0.00  0.00    +0.000 C 
ATOM     28  C   UNL     1      26.927   5.942  48.758  0.00  0.00    +0.000 C 
ATOM     29  C   UNL     1      27.680   7.011  47.982  0.00  0.00    +0.000 C 
ATOM     30  C   UNL     1      27.587   4.599  48.719  0.00  0.00    +0.000 C 
ENDBRANCH  26  27
ENDBRANCH  17  26
ENDBRANCH   1  17
TORSDOF 9
ENDMDL
