MODEL 1
REMARK VINA RESULT:    -9.946      0.000      0.000
REMARK INTER + INTRA:         -13.145
REMARK INTER:                 -12.272
REMARK INTRA:                  -0.873
REMARK UNBOUND:                -0.873
REMARK  Name = 
REMARK  4 active torsions:
REMARK  status: ('A' for Active; 'I' for Inactive)
REMARK    1  A    between atoms: C_2  and  C_4
REMARK    2  A    between atoms: C_7  and  C_8
REMARK    3  A    between atoms: C_10  and  C_11
REMARK    4  A    between atoms: C_20  and  C_21
REMARK                            x       y       z     vdW  Elec       q    Type
REMARK                         _______ _______ _______ _____ _____    ______ ____
ROOT
ATOM      1  C   UNL     1      22.615   0.853  52.099  0.00  0.00    +0.000 A 
ATOM      2  N   UNL     1      23.755   0.323  52.518  0.00  0.00    +0.000 NA
ATOM      3  C   UNL     1      24.755   1.183  52.100  0.00  0.00    +0.000 A 
ATOM      4  C   UNL     1      24.236   2.175  51.283  0.00  0.00    +0.000 A 
ATOM      5  N   UNL     1      22.877   1.987  51.371  0.00  0.00    +0.000 N 
ATOM      6  H   UNL     1      22.196   2.575  50.972  0.00  0.00    +0.000 HD
ENDROOT
BRANCH   3   7
ATOM      7  C   UNL     1      26.141   1.043  52.541  0.00  0.00    +0.000 A 
ATOM      8  C   UNL     1      26.832   2.130  53.138  0.00  0.00    +0.000 A 
ATOM      9  C   UNL     1      28.157   2.021  53.561  0.00  0.00    +0.000 A 
ATOM     10  C   UNL     1      28.735   0.780  53.478  0.00  0.00    +0.000 A 
ATOM     11  C   UNL     1      28.066  -0.300  52.944  0.00  0.00    +0.000 A 
ATOM     12  C   UNL     1      26.785  -0.197  52.440  0.00  0.00    +0.000 A 
ATOM     13  O   UNL     1      28.805  -1.441  53.025  0.00  0.00    +0.000 OA
ATOM     14  C   UNL     1      29.893  -0.984  53.860  0.00  0.00    +0.000 C 
ATOM     15  O   UNL     1      29.966   0.451  53.948  0.00  0.00    +0.000 OA
ENDBRANCH   3   7
BRANCH   1  19
ATOM     16  C   UNL     1      18.677  -0.696  52.789  0.00  0.00    +0.000 A 
ATOM     17  C   UNL     1      18.945   0.067  51.649  0.00  0.00    +0.000 A 
ATOM     18  C   UNL     1      20.223   0.583  51.433  0.00  0.00    +0.000 A 
ATOM     19  C   UNL     1      21.265   0.341  52.343  0.00  0.00    +0.000 A 
ATOM     20  C   UNL     1      20.984  -0.417  53.491  0.00  0.00    +0.000 A 
ATOM     21  C   UNL     1      19.706  -0.947  53.710  0.00  0.00    +0.000 A 
BRANCH  16  23
ATOM     22  O   UNL     1      16.306  -0.566  52.824  0.00  0.00    +0.000 OA
ATOM     23  C   UNL     1      17.310  -1.244  52.956  0.00  0.00    +0.000 C 
ATOM     24  O   UNL     1      17.284  -2.544  53.317  0.00  0.00    +0.000 OA
ENDBRANCH  16  23
ENDBRANCH   1  19
BRANCH   4  25
ATOM     25  C   UNL     1      24.816   3.274  50.528  0.00  0.00    +0.000 A 
ATOM     26  C   UNL     1      25.931   3.104  49.716  0.00  0.00    +0.000 A 
ATOM     27  C   UNL     1      26.562   4.230  49.202  0.00  0.00    +0.000 A 
ATOM     28  C   UNL     1      26.024   5.482  49.461  0.00  0.00    +0.000 A 
ATOM     29  C   UNL     1      24.864   5.554  50.220  0.00  0.00    +0.000 A 
ATOM     30  N   UNL     1      24.245   4.478  50.761  0.00  0.00    +0.000 NA
ENDBRANCH   4  25
TORSDOF 4
ENDMDL
MODEL 2
REMARK VINA RESULT:    -9.682      3.619      8.376
REMARK INTER + INTRA:         -12.819
REMARK INTER:                 -12.272
REMARK INTRA:                  -0.547
REMARK UNBOUND:                -0.873
REMARK  Name = 
REMARK  4 active torsions:
REMARK  status: ('A' for Active; 'I' for Inactive)
REMARK    1  A    between atoms: C_2  and  C_4
REMARK    2  A    between atoms: C_7  and  C_8
REMARK    3  A    between atoms: C_10  and  C_11
REMARK    4  A    between atoms: C_20  and  C_21
REMARK                            x       y       z     vdW  Elec       q    Type
REMARK                         _______ _______ _______ _____ _____    ______ ____
ROOT
ATOM      1  C   UNL     1      26.074   3.719  50.357  0.00  0.00    +0.000 A 
ATOM      2  N   UNL     1      24.890   3.134  50.457  0.00  0.00    +0.000 NA
ATOM      3  C   UNL     1      25.038   2.123  51.391  0.00  0.00    +0.000 A 
ATOM      4  C   UNL     1      26.368   1.989  51.757  0.00  0.00    +0.000 A 
ATOM      5  N   UNL     1      26.979   3.061  51.153  0.00  0.00    +0.000 N 
ATOM      6  H   UNL     1      27.923   3.317  51.271  0.00  0.00    +0.000 HD
ENDROOT
BRANCH   3   7
ATOM      7  C   UNL     1      23.900   1.375  51.920  0.00  0.00    +0.000 A 
ATOM      8  C   UNL     1      22.725   1.186  51.147  0.00  0.00    +0.000 A 
ATOM      9  C   UNL     1      21.624   0.481  51.634  0.00  0.00    +0.000 A 
ATOM     10  C   UNL     1      21.766  -0.122  52.857  0.00  0.00    +0.000 A 
ATOM     11  C   UNL     1      22.915   0.011  53.606  0.00  0.00    +0.000 A 
ATOM     12  C   UNL     1      23.985   0.775  53.183  0.00  0.00    +0.000 A 
ATOM     13  O   UNL     1      22.860  -0.726  54.750  0.00  0.00    +0.000 OA
ATOM     14  C   UNL     1      21.655  -1.487  54.508  0.00  0.00    +0.000 C 
ATOM     15  O   UNL     1      20.856  -0.945  53.440  0.00  0.00    +0.000 OA
ENDBRANCH   3   7
BRANCH   1  19
ATOM     16  C   UNL     1      27.104   7.146  47.996  0.00  0.00    +0.000 A 
ATOM     17  C   UNL     1      25.924   7.137  48.747  0.00  0.00    +0.000 A 
ATOM     18  C   UNL     1      25.583   6.015  49.504  0.00  0.00    +0.000 A 
ATOM     19  C   UNL     1      26.414   4.883  49.536  0.00  0.00    +0.000 A 
ATOM     20  C   UNL     1      27.591   4.898  48.770  0.00  0.00    +0.000 A 
ATOM     21  C   UNL     1      27.946   6.024  48.016  0.00  0.00    +0.000 A 
BRANCH  16  23
ATOM     22  O   UNL     1      26.591   9.186  46.893  0.00  0.00    +0.000 OA
ATOM     23  C   UNL     1      27.433   8.374  47.233  0.00  0.00    +0.000 C 
ATOM     24  O   UNL     1      28.739   8.479  46.906  0.00  0.00    +0.000 OA
ENDBRANCH  16  23
ENDBRANCH   1  19
BRANCH   4  25
ATOM     25  C   UNL     1      27.093   1.074  52.624  0.00  0.00    +0.000 A 
ATOM     26  C   UNL     1      27.822   1.518  53.722  0.00  0.00    +0.000 A 
ATOM     27  C   UNL     1      28.663   0.625  54.372  0.00  0.00    +0.000 A 
ATOM     28  C   UNL     1      28.702  -0.696  53.947  0.00  0.00    +0.000 A 
ATOM     29  C   UNL     1      27.885  -1.070  52.890  0.00  0.00    +0.000 A 
ATOM     30  N   UNL     1      27.078  -0.216  52.216  0.00  0.00    +0.000 NA
ENDBRANCH   4  25
TORSDOF 4
ENDMDL
MODEL 3
REMARK VINA RESULT:    -9.571      2.545      4.787
REMARK INTER + INTRA:         -12.683
REMARK INTER:                 -11.988
REMARK INTRA:                  -0.694
REMARK UNBOUND:                -0.873
REMARK  Name = 
REMARK  4 active torsions:
REMARK  status: ('A' for Active; 'I' for Inactive)
REMARK    1  A    between atoms: C_2  and  C_4
REMARK    2  A    between atoms: C_7  and  C_8
REMARK    3  A    between atoms: C_10  and  C_11
REMARK    4  A    between atoms: C_20  and  C_21
REMARK                            x       y       z     vdW  Elec       q    Type
REMARK                         _______ _______ _______ _____ _____    ______ ____
ROOT
ATOM      1  C   UNL     1      23.009   0.803  52.500  0.00  0.00    +0.000 A 
ATOM      2  N   UNL     1      23.197   1.931  51.831  0.00  0.00    +0.000 NA
ATOM      3  C   UNL     1      24.568   2.106  51.749  0.00  0.00    +0.000 A 
ATOM      4  C   UNL     1      25.227   1.154  52.511  0.00  0.00    +0.000 A 
ATOM      5  N   UNL     1      24.223   0.301  52.901  0.00  0.00    +0.000 N 
ATOM      6  H   UNL     1      24.354  -0.542  53.394  0.00  0.00    +0.000 HD
ENDROOT
BRANCH   3   7
ATOM      7  C   UNL     1      25.175   3.139  50.913  0.00  0.00    +0.000 A 
ATOM      8  C   UNL     1      26.298   2.851  50.095  0.00  0.00    +0.000 A 
ATOM      9  C   UNL     1      26.898   3.822  49.293  0.00  0.00    +0.000 A 
ATOM     10  C   UNL     1      26.286   5.048  49.242  0.00  0.00    +0.000 A 
ATOM     11  C   UNL     1      25.168   5.336  49.993  0.00  0.00    +0.000 A 
ATOM     12  C   UNL     1      24.607   4.418  50.859  0.00  0.00    +0.000 A 
ATOM     13  O   UNL     1      24.692   6.585  49.732  0.00  0.00    +0.000 OA
ATOM     14  C   UNL     1      25.506   6.936  48.591  0.00  0.00    +0.000 C 
ATOM     15  O   UNL     1      26.649   6.076  48.432  0.00  0.00    +0.000 OA
ENDBRANCH   3   7
BRANCH   1  19
ATOM     16  C   UNL     1      19.274  -1.127  53.336  0.00  0.00    +0.000 A 
ATOM     17  C   UNL     1      19.354  -0.147  52.342  0.00  0.00    +0.000 A 
ATOM     18  C   UNL     1      20.567   0.492  52.081  0.00  0.00    +0.000 A 
ATOM     19  C   UNL     1      21.728   0.159  52.798  0.00  0.00    +0.000 A 
ATOM     20  C   UNL     1      21.636  -0.819  53.802  0.00  0.00    +0.000 A 
ATOM     21  C   UNL     1      20.424  -1.470  54.063  0.00  0.00    +0.000 A 
BRANCH  16  23
ATOM     22  O   UNL     1      17.868  -2.919  54.010  0.00  0.00    +0.000 OA
ATOM     23  C   UNL     1      17.967  -1.793  53.553  0.00  0.00    +0.000 C 
ATOM     24  O   UNL     1      16.908  -1.060  53.150  0.00  0.00    +0.000 OA
ENDBRANCH  16  23
ENDBRANCH   1  19
BRANCH   4  25
ATOM     25  C   UNL     1      26.622   0.906  52.838  0.00  0.00    +0.000 A 
ATOM     26  C   UNL     1      27.206  -0.346  52.683  0.00  0.00    +0.000 A 
ATOM     27  C   UNL     1      28.469  -0.566  53.217  0.00  0.00    +0.000 A 
ATOM     28  C   UNL     1      29.134   0.486  53.831  0.00  0.00    +0.000 A 
ATOM     29  C   UNL     1      28.506   1.723  53.876  0.00  0.00    +0.000 A 
ATOM     30  N   UNL     1      27.264   1.961  53.392  0.00  0.00    +0.000 NA
ENDBRANCH   4  25
TORSDOF 4
ENDMDL
MODEL 4
REMARK VINA RESULT:    -9.428      3.617      8.476
REMARK INTER + INTRA:         -12.506
REMARK INTER:                 -11.802
REMARK INTRA:                  -0.704
REMARK UNBOUND:                -0.873
REMARK  Name = 
REMARK  4 active torsions:
REMARK  status: ('A' for Active; 'I' for Inactive)
REMARK    1  A    between atoms: C_2  and  C_4
REMARK    2  A    between atoms: C_7  and  C_8
REMARK    3  A    between atoms: C_10  and  C_11
REMARK    4  A    between atoms: C_20  and  C_21
REMARK                            x       y       z     vdW  Elec       q    Type
REMARK                         _______ _______ _______ _____ _____    ______ ____
ROOT
ATOM      1  C   UNL     1      25.912   3.769  50.257  0.00  0.00    +0.000 A 
ATOM      2  N   UNL     1      24.724   3.207  50.424  0.00  0.00    +0.000 NA
ATOM      3  C   UNL     1      24.918   2.150  51.296  0.00  0.00    +0.000 A 
ATOM      4  C   UNL     1      26.269   1.967  51.549  0.00  0.00    +0.000 A 
ATOM      5  N   UNL     1      26.859   3.052  50.947  0.00  0.00    +0.000 N 
ATOM      6  H   UNL     1      27.816   3.281  51.001  0.00  0.00    +0.000 HD
ENDROOT
BRANCH   3   7
ATOM      7  C   UNL     1      23.805   1.405  51.880  0.00  0.00    +0.000 A 
ATOM      8  C   UNL     1      23.861   0.936  53.218  0.00  0.00    +0.000 A 
ATOM      9  C   UNL     1      22.813   0.217  53.794  0.00  0.00    +0.000 A 
ATOM     10  C   UNL     1      21.672   0.077  53.046  0.00  0.00    +0.000 A 
ATOM     11  C   UNL     1      21.580   0.564  51.761  0.00  0.00    +0.000 A 
ATOM     12  C   UNL     1      22.634   1.203  51.138  0.00  0.00    +0.000 A 
ATOM     13  O   UNL     1      20.338   0.371  51.236  0.00  0.00    +0.000 OA
ATOM     14  C   UNL     1      19.630  -0.082  52.412  0.00  0.00    +0.000 C 
ATOM     15  O   UNL     1      20.512  -0.482  53.477  0.00  0.00    +0.000 OA
ENDBRANCH   3   7
BRANCH   1  19
ATOM     16  C   UNL     1      26.837   7.284  47.983  0.00  0.00    +0.000 A 
ATOM     17  C   UNL     1      25.616   7.180  48.655  0.00  0.00    +0.000 A 
ATOM     18  C   UNL     1      25.309   6.029  49.383  0.00  0.00    +0.000 A 
ATOM     19  C   UNL     1      26.218   4.962  49.464  0.00  0.00    +0.000 A 
ATOM     20  C   UNL     1      27.438   5.070  48.777  0.00  0.00    +0.000 A 
ATOM     21  C   UNL     1      27.757   6.226  48.053  0.00  0.00    +0.000 A 
BRANCH  16  23
ATOM     22  O   UNL     1      28.246   8.856  46.894  0.00  0.00    +0.000 OA
ATOM     23  C   UNL     1      27.124   8.539  47.248  0.00  0.00    +0.000 C 
ATOM     24  O   UNL     1      26.038   9.319  47.058  0.00  0.00    +0.000 OA
ENDBRANCH  16  23
ENDBRANCH   1  19
BRANCH   4  25
ATOM     25  C   UNL     1      27.035   0.996  52.313  0.00  0.00    +0.000 A 
ATOM     26  C   UNL     1      26.862  -0.374  52.150  0.00  0.00    +0.000 A 
ATOM     27  C   UNL     1      27.460  -1.237  53.059  0.00  0.00    +0.000 A 
ATOM     28  C   UNL     1      28.262  -0.709  54.061  0.00  0.00    +0.000 A 
ATOM     29  C   UNL     1      28.441   0.666  54.104  0.00  0.00    +0.000 A 
ATOM     30  N   UNL     1      27.846   1.534  53.253  0.00  0.00    +0.000 NA
ENDBRANCH   4  25
TORSDOF 4
ENDMDL
MODEL 5
REMARK VINA RESULT:    -9.133      3.625      7.187
REMARK INTER + INTRA:         -12.142
REMARK INTER:                 -11.462
REMARK INTRA:                  -0.681
REMARK UNBOUND:                -0.873
REMARK  Name = 
REMARK  4 active torsions:
REMARK  status: ('A' for Active; 'I' for Inactive)
REMARK    1  A    between atoms: C_2  and  C_4
REMARK    2  A    between atoms: C_7  and  C_8
REMARK    3  A    between atoms: C_10  and  C_11
REMARK    4  A    between atoms: C_20  and  C_21
REMARK                            x       y       z     vdW  Elec       q    Type
REMARK                         _______ _______ _______ _____ _____    ______ ____
ROOT
ATOM      1  C   UNL     1      25.637   3.309  50.575  0.00  0.00    +0.000 A 
ATOM      2  N   UNL     1      26.635   2.590  51.066  0.00  0.00    +0.000 NA
ATOM      3  C   UNL     1      26.051   1.533  51.742  0.00  0.00    +0.000 A 
ATOM      4  C   UNL     1      24.674   1.688  51.795  0.00  0.00    +0.000 A 
ATOM      5  N   UNL     1      24.440   2.770  50.980  0.00  0.00    +0.000 N 
ATOM      6  H   UNL     1      23.551   3.108  50.727  0.00  0.00    +0.000 HD
ENDROOT
BRANCH   3   7
ATOM      7  C   UNL     1      26.829   0.408  52.256  0.00  0.00    +0.000 A 
ATOM      8  C   UNL     1      26.461  -0.931  51.963  0.00  0.00    +0.000 A 
ATOM      9  C   UNL     1      27.186  -2.020  52.448  0.00  0.00    +0.000 A 
ATOM     10  C   UNL     1      28.341  -1.741  53.132  0.00  0.00    +0.000 A 
ATOM     11  C   UNL     1      28.741  -0.448  53.389  0.00  0.00    +0.000 A 
ATOM     12  C   UNL     1      27.996   0.646  52.994  0.00  0.00    +0.000 A 
ATOM     13  O   UNL     1      29.947  -0.408  54.020  0.00  0.00    +0.000 OA
ATOM     14  C   UNL     1      30.335  -1.797  53.920  0.00  0.00    +0.000 C 
ATOM     15  O   UNL     1      29.236  -2.662  53.574  0.00  0.00    +0.000 OA
ENDBRANCH   3   7
BRANCH   1  19
ATOM     16  C   UNL     1      25.967   6.835  48.158  0.00  0.00    +0.000 A 
ATOM     17  C   UNL     1      24.738   6.479  48.721  0.00  0.00    +0.000 A 
ATOM     18  C   UNL     1      24.628   5.323  49.495  0.00  0.00    +0.000 A 
ATOM     19  C   UNL     1      25.743   4.503  49.733  0.00  0.00    +0.000 A 
ATOM     20  C   UNL     1      26.971   4.863  49.155  0.00  0.00    +0.000 A 
ATOM     21  C   UNL     1      27.091   6.026  48.384  0.00  0.00    +0.000 A 
BRANCH  16  23
ATOM     22  O   UNL     1      25.042   8.653  46.940  0.00  0.00    +0.000 OA
ATOM     23  C   UNL     1      26.034   8.087  47.367  0.00  0.00    +0.000 C 
ATOM     24  O   UNL     1      27.292   8.510  47.122  0.00  0.00    +0.000 OA
ENDBRANCH  16  23
ENDBRANCH   1  19
BRANCH   4  25
ATOM     25  C   UNL     1      23.593   0.942  52.416  0.00  0.00    +0.000 A 
ATOM     26  C   UNL     1      23.758   0.270  53.623  0.00  0.00    +0.000 A 
ATOM     27  C   UNL     1      22.760  -0.598  54.046  0.00  0.00    +0.000 A 
ATOM     28  C   UNL     1      21.604  -0.720  53.287  0.00  0.00    +0.000 A 
ATOM     29  C   UNL     1      21.492   0.046  52.135  0.00  0.00    +0.000 A 
ATOM     30  N   UNL     1      22.460   0.876  51.680  0.00  0.00    +0.000 NA
ENDBRANCH   4  25
TORSDOF 4
ENDMDL
MODEL 6
REMARK VINA RESULT:    -8.728      3.638      6.408
REMARK INTER + INTRA:         -11.642
REMARK INTER:                 -10.899
REMARK INTRA:                  -0.743
REMARK UNBOUND:                -0.873
REMARK  Name = 
REMARK  4 active torsions:
REMARK  status: ('A' for Active; 'I' for Inactive)
REMARK    1  A    between atoms: C_2  and  C_4
REMARK    2  A    between atoms: C_7  and  C_8
REMARK    3  A    between atoms: C_10  and  C_11
REMARK    4  A    between atoms: C_20  and  C_21
REMARK                            x       y       z     vdW  Elec       q    Type
REMARK                         _______ _______ _______ _____ _____    ______ ____
ROOT
ATOM      1  C   UNL     1      23.331   3.634  52.008  0.00  0.00    +0.000 A 
ATOM      2  N   UNL     1      24.562   3.188  52.213  0.00  0.00    +0.000 NA
ATOM      3  C   UNL     1      24.428   1.918  52.744  0.00  0.00    +0.000 A 
ATOM      4  C   UNL     1      23.096   1.638  53.011  0.00  0.00    +0.000 A 
ATOM      5  N   UNL     1      22.427   2.704  52.460  0.00  0.00    +0.000 N 
ATOM      6  H   UNL     1      21.447   2.789  52.399  0.00  0.00    +0.000 HD
ENDROOT
BRANCH   3   7
ATOM      7  C   UNL     1      25.568   1.021  52.922  0.00  0.00    +0.000 A 
ATOM      8  C   UNL     1      25.717  -0.140  52.119  0.00  0.00    +0.000 A 
ATOM      9  C   UNL     1      26.794  -1.013  52.275  0.00  0.00    +0.000 A 
ATOM     10  C   UNL     1      27.768  -0.644  53.167  0.00  0.00    +0.000 A 
ATOM     11  C   UNL     1      27.664   0.502  53.924  0.00  0.00    +0.000 A 
ATOM     12  C   UNL     1      26.568   1.338  53.850  0.00  0.00    +0.000 A 
ATOM     13  O   UNL     1      28.774   0.704  54.688  0.00  0.00    +0.000 OA
ATOM     14  C   UNL     1      29.645  -0.316  54.150  0.00  0.00    +0.000 C 
ATOM     15  O   UNL     1      28.941  -1.298  53.368  0.00  0.00    +0.000 OA
ENDBRANCH   3   7
BRANCH   1  19
ATOM     16  C   UNL     1      22.220   7.355  50.193  0.00  0.00    +0.000 A 
ATOM     17  C   UNL     1      23.484   7.203  50.772  0.00  0.00    +0.000 A 
ATOM     18  C   UNL     1      23.839   5.996  51.376  0.00  0.00    +0.000 A 
ATOM     19  C   UNL     1      22.946   4.912  51.406  0.00  0.00    +0.000 A 
ATOM     20  C   UNL     1      21.675   5.078  50.832  0.00  0.00    +0.000 A 
ATOM     21  C   UNL     1      21.315   6.283  50.216  0.00  0.00    +0.000 A 
BRANCH  16  23
ATOM     22  O   UNL     1      22.725   9.284  48.902  0.00  0.00    +0.000 OA
ATOM     23  C   UNL     1      21.905   8.649  49.540  0.00  0.00    +0.000 C 
ATOM     24  O   UNL     1      20.644   9.079  49.764  0.00  0.00    +0.000 OA
ENDBRANCH  16  23
ENDBRANCH   1  19
BRANCH   4  25
ATOM     25  C   UNL     1      22.398   0.517  53.617  0.00  0.00    +0.000 A 
ATOM     26  C   UNL     1      23.054  -0.423  54.404  0.00  0.00    +0.000 A 
ATOM     27  C   UNL     1      22.377  -1.581  54.766  0.00  0.00    +0.000 A 
ATOM     28  C   UNL     1      21.051  -1.734  54.388  0.00  0.00    +0.000 A 
ATOM     29  C   UNL     1      20.452  -0.711  53.666  0.00  0.00    +0.000 A 
ATOM     30  N   UNL     1      21.094   0.414  53.271  0.00  0.00    +0.000 NA
ENDBRANCH   4  25
TORSDOF 4
ENDMDL
MODEL 7
REMARK VINA RESULT:    -8.718      2.201      4.522
REMARK INTER + INTRA:         -11.630
REMARK INTER:                 -10.720
REMARK INTRA:                  -0.911
REMARK UNBOUND:                -0.873
REMARK  Name = 
REMARK  4 active torsions:
REMARK  status: ('A' for Active; 'I' for Inactive)
REMARK    1  A    between atoms: C_2  and  C_4
REMARK    2  A    between atoms: C_7  and  C_8
REMARK    3  A    between atoms: C_10  and  C_11
REMARK    4  A    between atoms: C_20  and  C_21
REMARK                            x       y       z     vdW  Elec       q    Type
REMARK                         _______ _______ _______ _____ _____    ______ ____
ROOT
ATOM      1  C   UNL     1      21.941   1.107  52.041  0.00  0.00    +0.000 A 
ATOM      2  N   UNL     1      22.227   2.270  51.475  0.00  0.00    +0.000 NA
ATOM      3  C   UNL     1      23.599   2.420  51.573  0.00  0.00    +0.000 A 
ATOM      4  C   UNL     1      24.146   1.406  52.344  0.00  0.00    +0.000 A 
ATOM      5  N   UNL     1      23.090   0.553  52.552  0.00  0.00    +0.000 N 
ATOM      6  H   UNL     1      23.147  -0.322  53.001  0.00  0.00    +0.000 HD
ENDROOT
BRANCH   3   7
ATOM      7  C   UNL     1      24.319   3.490  50.887  0.00  0.00    +0.000 A 
ATOM      8  C   UNL     1      23.990   4.852  51.109  0.00  0.00    +0.000 A 
ATOM      9  C   UNL     1      24.661   5.890  50.461  0.00  0.00    +0.000 A 
ATOM     10  C   UNL     1      25.732   5.543  49.679  0.00  0.00    +0.000 A 
ATOM     11  C   UNL     1      26.097   4.229  49.485  0.00  0.00    +0.000 A 
ATOM     12  C   UNL     1      25.397   3.180  50.047  0.00  0.00    +0.000 A 
ATOM     13  O   UNL     1      27.226   4.125  48.731  0.00  0.00    +0.000 OA
ATOM     14  C   UNL     1      27.627   5.512  48.675  0.00  0.00    +0.000 C 
ATOM     15  O   UNL     1      26.576   6.415  49.068  0.00  0.00    +0.000 OA
ENDBRANCH   3   7
BRANCH   1  19
ATOM     16  C   UNL     1      18.064  -0.696  52.347  0.00  0.00    +0.000 A 
ATOM     17  C   UNL     1      19.023  -0.915  53.340  0.00  0.00    +0.000 A 
ATOM     18  C   UNL     1      20.290  -0.339  53.232  0.00  0.00    +0.000 A 
ATOM     19  C   UNL     1      20.624   0.474  52.137  0.00  0.00    +0.000 A 
ATOM     20  C   UNL     1      19.658   0.679  51.139  0.00  0.00    +0.000 A 
ATOM     21  C   UNL     1      18.381   0.113  51.246  0.00  0.00    +0.000 A 
BRANCH  16  23
ATOM     22  O   UNL     1      16.568  -2.444  52.937  0.00  0.00    +0.000 OA
ATOM     23  C   UNL     1      16.726  -1.308  52.525  0.00  0.00    +0.000 C 
ATOM     24  O   UNL     1      15.707  -0.511  52.140  0.00  0.00    +0.000 OA
ENDBRANCH  16  23
ENDBRANCH   1  19
BRANCH   4  25
ATOM     25  C   UNL     1      25.486   1.107  52.822  0.00  0.00    +0.000 A 
ATOM     26  C   UNL     1      26.244   2.038  53.524  0.00  0.00    +0.000 A 
ATOM     27  C   UNL     1      27.587   1.768  53.757  0.00  0.00    +0.000 A 
ATOM     28  C   UNL     1      28.112   0.553  53.339  0.00  0.00    +0.000 A 
ATOM     29  C   UNL     1      27.265  -0.349  52.712  0.00  0.00    +0.000 A 
ATOM     30  N   UNL     1      25.961  -0.102  52.443  0.00  0.00    +0.000 NA
ENDBRANCH   4  25
TORSDOF 4
ENDMDL
MODEL 8
REMARK VINA RESULT:    -8.559      1.799      7.894
REMARK INTER + INTRA:         -11.434
REMARK INTER:                 -10.616
REMARK INTRA:                  -0.818
REMARK UNBOUND:                -0.873
REMARK  Name = 
REMARK  4 active torsions:
REMARK  status: ('A' for Active; 'I' for Inactive)
REMARK    1  A    between atoms: C_2  and  C_4
REMARK    2  A    between atoms: C_7  and  C_8
REMARK    3  A    between atoms: C_10  and  C_11
REMARK    4  A    between atoms: C_20  and  C_21
REMARK                            x       y       z     vdW  Elec       q    Type
REMARK                         _______ _______ _______ _____ _____    ______ ____
ROOT
ATOM      1  C   UNL     1      24.425   0.894  52.219  0.00  0.00    +0.000 A 
ATOM      2  N   UNL     1      23.262   0.305  52.454  0.00  0.00    +0.000 NA
ATOM      3  C   UNL     1      22.293   1.140  51.927  0.00  0.00    +0.000 A 
ATOM      4  C   UNL     1      22.858   2.331  51.496  0.00  0.00    +0.000 A 
ATOM      5  N   UNL     1      24.209   2.110  51.617  0.00  0.00    +0.000 N 
ATOM      6  H   UNL     1      24.914   2.729  51.320  0.00  0.00    +0.000 HD
ENDROOT
BRANCH   3   7
ATOM      7  C   UNL     1      20.892   0.740  51.815  0.00  0.00    +0.000 A 
ATOM      8  C   UNL     1      20.168   0.941  50.612  0.00  0.00    +0.000 A 
ATOM      9  C   UNL     1      18.828   0.573  50.485  0.00  0.00    +0.000 A 
ATOM     10  C   UNL     1      18.267  -0.098  51.541  0.00  0.00    +0.000 A 
ATOM     11  C   UNL     1      18.966  -0.344  52.702  0.00  0.00    +0.000 A 
ATOM     12  C   UNL     1      20.266   0.087  52.884  0.00  0.00    +0.000 A 
ATOM     13  O   UNL     1      18.236  -1.081  53.585  0.00  0.00    +0.000 OA
ATOM     14  C   UNL     1      17.112  -1.440  52.751  0.00  0.00    +0.000 C 
ATOM     15  O   UNL     1      17.021  -0.639  51.558  0.00  0.00    +0.000 OA
ENDBRANCH   3   7
BRANCH   1  19
ATOM     16  C   UNL     1      28.305  -0.637  53.209  0.00  0.00    +0.000 A 
ATOM     17  C   UNL     1      28.068   0.740  53.217  0.00  0.00    +0.000 A 
ATOM     18  C   UNL     1      26.809   1.239  52.880  0.00  0.00    +0.000 A 
ATOM     19  C   UNL     1      25.756   0.374  52.538  0.00  0.00    +0.000 A 
ATOM     20  C   UNL     1      26.007  -1.008  52.522  0.00  0.00    +0.000 A 
ATOM     21  C   UNL     1      27.265  -1.516  52.868  0.00  0.00    +0.000 A 
BRANCH  16  23
ATOM     22  O   UNL     1      30.581  -0.359  53.829  0.00  0.00    +0.000 OA
ATOM     23  C   UNL     1      29.653  -1.115  53.602  0.00  0.00    +0.000 C 
ATOM     24  O   UNL     1      29.767  -2.460  53.632  0.00  0.00    +0.000 OA
ENDBRANCH  16  23
ENDBRANCH   1  19
BRANCH   4  25
ATOM     25  C   UNL     1      22.324   3.562  50.937  0.00  0.00    +0.000 A 
ATOM     26  C   UNL     1      22.289   3.797  49.567  0.00  0.00    +0.000 A 
ATOM     27  C   UNL     1      21.974   5.072  49.115  0.00  0.00    +0.000 A 
ATOM     28  C   UNL     1      21.641   6.052  50.039  0.00  0.00    +0.000 A 
ATOM     29  C   UNL     1      21.628   5.710  51.384  0.00  0.00    +0.000 A 
ATOM     30  N   UNL     1      21.961   4.486  51.858  0.00  0.00    +0.000 NA
ENDBRANCH   4  25
TORSDOF 4
ENDMDL
MODEL 9
REMARK VINA RESULT:    -8.383      2.733      7.905
REMARK INTER + INTRA:         -11.216
REMARK INTER:                 -10.355
REMARK INTRA:                  -0.861
REMARK UNBOUND:                -0.873
REMARK  Name = 
REMARK  4 active torsions:
REMARK  status: ('A' for Active; 'I' for Inactive)
REMARK    1  A    between atoms: C_2  and  C_4
REMARK    2  A    between atoms: C_7  and  C_8
REMARK    3  A    between atoms: C_10  and  C_11
REMARK    4  A    between atoms: C_20  and  C_21
REMARK                            x       y       z     vdW  Elec       q    Type
REMARK                         _______ _______ _______ _____ _____    ______ ____
ROOT
ATOM      1  C   UNL     1      25.000   2.142  52.122  0.00  0.00    +0.000 A 
ATOM      2  N   UNL     1      23.717   1.820  52.049  0.00  0.00    +0.000 NA
ATOM      3  C   UNL     1      23.062   2.949  51.588  0.00  0.00    +0.000 A 
ATOM      4  C   UNL     1      23.934   4.026  51.522  0.00  0.00    +0.000 A 
ATOM      5  N   UNL     1      25.160   3.464  51.785  0.00  0.00    +0.000 N 
ATOM      6  H   UNL     1      26.023   3.938  51.739  0.00  0.00    +0.000 HD
ENDROOT
BRANCH   3   7
ATOM      7  C   UNL     1      21.657   2.929  51.189  0.00  0.00    +0.000 A 
ATOM      8  C   UNL     1      20.624   3.123  52.142  0.00  0.00    +0.000 A 
ATOM      9  C   UNL     1      19.275   3.103  51.784  0.00  0.00    +0.000 A 
ATOM     10  C   UNL     1      18.989   2.997  50.447  0.00  0.00    +0.000 A 
ATOM     11  C   UNL     1      19.980   2.853  49.500  0.00  0.00    +0.000 A 
ATOM     12  C   UNL     1      21.317   2.784  49.838  0.00  0.00    +0.000 A 
ATOM     13  O   UNL     1      19.471   2.836  48.237  0.00  0.00    +0.000 OA
ATOM     14  C   UNL     1      18.100   3.205  48.507  0.00  0.00    +0.000 C 
ATOM     15  O   UNL     1      17.750   3.079  49.898  0.00  0.00    +0.000 OA
ENDBRANCH   3   7
BRANCH   1  19
ATOM     16  C   UNL     1      28.264  -0.425  53.187  0.00  0.00    +0.000 A 
ATOM     17  C   UNL     1      27.029  -0.970  52.821  0.00  0.00    +0.000 A 
ATOM     18  C   UNL     1      25.963  -0.133  52.489  0.00  0.00    +0.000 A 
ATOM     19  C   UNL     1      26.108   1.264  52.505  0.00  0.00    +0.000 A 
ATOM     20  C   UNL     1      27.348   1.802  52.884  0.00  0.00    +0.000 A 
ATOM     21  C   UNL     1      28.426   0.969  53.209  0.00  0.00    +0.000 A 
BRANCH  16  23
ATOM     22  O   UNL     1      30.436  -0.990  53.964  0.00  0.00    +0.000 OA
ATOM     23  C   UNL     1      29.371  -1.360  53.503  0.00  0.00    +0.000 C 
ATOM     24  O   UNL     1      29.107  -2.645  53.183  0.00  0.00    +0.000 OA
ENDBRANCH  16  23
ENDBRANCH   1  19
BRANCH   4  25
ATOM     25  C   UNL     1      23.784   5.431  51.184  0.00  0.00    +0.000 A 
ATOM     26  C   UNL     1      22.561   6.086  51.272  0.00  0.00    +0.000 A 
ATOM     27  C   UNL     1      22.442   7.358  50.728  0.00  0.00    +0.000 A 
ATOM     28  C   UNL     1      23.562   7.961  50.172  0.00  0.00    +0.000 A 
ATOM     29  C   UNL     1      24.762   7.264  50.193  0.00  0.00    +0.000 A 
ATOM     30  N   UNL     1      24.902   6.011  50.687  0.00  0.00    +0.000 NA
ENDBRANCH   4  25
TORSDOF 4
ENDMDL
