MODEL 1
REMARK VINA RESULT:    -9.324      0.000      0.000
REMARK INTER + INTRA:         -11.732
REMARK INTER:                 -11.232
REMARK INTRA:                  -0.499
REMARK UNBOUND:                -0.499
REMARK  Name = 
REMARK  9 active torsions:
REMARK  status: ('A' for Active; 'I' for Inactive)
REMARK    1  A    between atoms: C_1  and  C_2
REMARK    2  A    between atoms: C_2  and  C_3
REMARK    3  A    between atoms: C_3  and  C_4
REMARK    4  A    between atoms: C_16  and  C_17
REMARK    5  A    between atoms: C_16  and  C_18
REMARK    6  A    between atoms: C_22  and  C_23
REMARK    7  A    between atoms: C_23  and  C_24
REMARK    8  A    between atoms: C_25  and  C_26
REMARK    9  A    between atoms: C_27  and  O_28
REMARK                            x       y       z     vdW  Elec       q    Type
REMARK                         _______ _______ _______ _____ _____    ______ ____
ROOT
ATOM      1  C   UNL     1      22.244   1.001  52.583  0.00  0.00    +0.000 A 
ATOM      2  C   UNL     1      21.061   1.539  52.216  0.00  0.00    +0.000 A 
ATOM      3  C   UNL     1      20.836   2.975  52.120  0.00  0.00    +0.000 A 
ATOM      4  O   UNL     1      19.711   3.445  52.027  0.00  0.00    +0.000 OA
ATOM      5  O   UNL     1      21.957   3.750  52.135  0.00  0.00    +0.000 OA
ATOM      6  C   UNL     1      23.160   3.076  51.934  0.00  0.00    +0.000 A 
ATOM      7  C   UNL     1      23.998   3.589  50.976  0.00  0.00    +0.000 A 
ATOM      8  C   UNL     1      25.349   3.313  51.087  0.00  0.00    +0.000 A 
ATOM      9  C   UNL     1      25.785   2.371  52.039  0.00  0.00    +0.000 A 
ATOM     10  C   UNL     1      24.829   1.557  52.701  0.00  0.00    +0.000 A 
ATOM     11  C   UNL     1      23.456   1.874  52.565  0.00  0.00    +0.000 A 
ATOM     12  O   UNL     1      25.216   0.495  53.495  0.00  0.00    +0.000 OA
ATOM     13  C   UNL     1      26.624   0.114  53.530  0.00  0.00    +0.000 C 
ATOM     14  C   UNL     1      27.003  -0.229  54.983  0.00  0.00    +0.000 C 
ATOM     15  C   UNL     1      26.797  -1.143  52.664  0.00  0.00    +0.000 C 
ATOM     16  C   UNL     1      27.593   1.159  53.034  0.00  0.00    +0.000 C 
ATOM     17  C   UNL     1      27.204   2.209  52.313  0.00  0.00    +0.000 C 
ATOM     18  O   UNL     1      26.264   3.976  50.305  0.00  0.00    +0.000 OA
ATOM     19  C   UNL     1      25.772   4.673  49.140  0.00  0.00    +0.000 C 
ATOM     20  C   UNL     1      24.380   5.312  49.299  0.00  0.00    +0.000 C 
ATOM     21  C   UNL     1      24.308   6.475  50.306  0.00  0.00    +0.000 C 
ATOM     22  C   UNL     1      23.456   4.197  49.714  0.00  0.00    +0.000 C 
ENDROOT
BRANCH  19  23
ATOM     23  C   UNL     1      26.794   5.731  48.746  0.00  0.00    +0.000 C 
ATOM     24  C   UNL     1      28.173   5.127  48.475  0.00  0.00    +0.000 C 
ENDBRANCH  19  23
BRANCH  22  25
ATOM     25  O   UNL     1      22.112   4.658  49.728  0.00  0.00    +0.000 OA
ATOM     26  H   UNL     1      22.053   5.464  50.264  0.00  0.00    +0.000 HD
ENDBRANCH  22  25
BRANCH   1  27
ATOM     27  C   UNL     1      22.309  -0.493  52.646  0.00  0.00    +0.000 C 
BRANCH  27  29
ATOM     28  C   UNL     1      22.460  -1.059  55.093  0.00  0.00    +0.000 C 
ATOM     29  C   UNL     1      21.566  -1.041  53.863  0.00  0.00    +0.000 C 
ENDBRANCH  27  29
ENDBRANCH   1  27
TORSDOF 4
ENDMDL
MODEL 2
REMARK VINA RESULT:    -8.665      1.638      5.491
REMARK INTER + INTRA:         -10.937
REMARK INTER:                 -10.735
REMARK INTRA:                  -0.202
REMARK UNBOUND:                -0.499
REMARK  Name = 
REMARK  9 active torsions:
REMARK  status: ('A' for Active; 'I' for Inactive)
REMARK    1  A    between atoms: C_1  and  C_2
REMARK    2  A    between atoms: C_2  and  C_3
REMARK    3  A    between atoms: C_3  and  C_4
REMARK    4  A    between atoms: C_16  and  C_17
REMARK    5  A    between atoms: C_16  and  C_18
REMARK    6  A    between atoms: C_22  and  C_23
REMARK    7  A    between atoms: C_23  and  C_24
REMARK    8  A    between atoms: C_25  and  C_26
REMARK    9  A    between atoms: C_27  and  O_28
REMARK                            x       y       z     vdW  Elec       q    Type
REMARK                         _______ _______ _______ _____ _____    ______ ____
ROOT
ATOM      1  C   UNL     1      21.590   1.563  52.715  0.00  0.00    +0.000 A 
ATOM      2  C   UNL     1      21.235   0.592  53.584  0.00  0.00    +0.000 A 
ATOM      3  C   UNL     1      21.877  -0.715  53.623  0.00  0.00    +0.000 A 
ATOM      4  O   UNL     1      21.389  -1.652  54.238  0.00  0.00    +0.000 OA
ATOM      5  O   UNL     1      23.051  -0.816  52.939  0.00  0.00    +0.000 OA
ATOM      6  C   UNL     1      23.631   0.392  52.555  0.00  0.00    +0.000 A 
ATOM      7  C   UNL     1      24.957   0.562  52.870  0.00  0.00    +0.000 A 
ATOM      8  C   UNL     1      25.693   1.445  52.100  0.00  0.00    +0.000 A 
ATOM      9  C   UNL     1      25.030   2.271  51.172  0.00  0.00    +0.000 A 
ATOM     10  C   UNL     1      23.613   2.354  51.202  0.00  0.00    +0.000 A 
ATOM     11  C   UNL     1      22.895   1.431  52.001  0.00  0.00    +0.000 A 
ATOM     12  O   UNL     1      22.932   3.288  50.448  0.00  0.00    +0.000 OA
ATOM     13  C   UNL     1      23.690   4.304  49.724  0.00  0.00    +0.000 C 
ATOM     14  C   UNL     1      23.052   4.497  48.336  0.00  0.00    +0.000 C 
ATOM     15  C   UNL     1      23.584   5.622  50.505  0.00  0.00    +0.000 C 
ATOM     16  C   UNL     1      25.155   3.998  49.521  0.00  0.00    +0.000 C 
ATOM     17  C   UNL     1      25.792   3.059  50.216  0.00  0.00    +0.000 C 
ATOM     18  O   UNL     1      27.062   1.492  52.209  0.00  0.00    +0.000 OA
ATOM     19  C   UNL     1      27.665   0.887  53.373  0.00  0.00    +0.000 C 
ATOM     20  C   UNL     1      26.955  -0.376  53.896  0.00  0.00    +0.000 C 
ATOM     21  C   UNL     1      27.013  -1.592  52.952  0.00  0.00    +0.000 C 
ATOM     22  C   UNL     1      25.526   0.026  54.152  0.00  0.00    +0.000 C 
ENDROOT
BRANCH  19  23
ATOM     23  C   UNL     1      29.121   0.578  53.054  0.00  0.00    +0.000 C 
ATOM     24  C   UNL     1      29.743  -0.377  54.075  0.00  0.00    +0.000 C 
ENDBRANCH  19  23
BRANCH  22  25
ATOM     25  O   UNL     1      24.829  -1.034  54.791  0.00  0.00    +0.000 OA
ATOM     26  H   UNL     1      23.978  -1.174  54.348  0.00  0.00    +0.000 HD
ENDBRANCH  22  25
BRANCH   1  27
ATOM     27  C   UNL     1      20.823   2.846  52.794  0.00  0.00    +0.000 C 
BRANCH  27  29
ATOM     28  C   UNL     1      19.635   4.131  50.987  0.00  0.00    +0.000 C 
ATOM     29  C   UNL     1      19.644   2.861  51.823  0.00  0.00    +0.000 C 
ENDBRANCH  27  29
ENDBRANCH   1  27
TORSDOF 4
ENDMDL
MODEL 3
REMARK VINA RESULT:    -8.487      1.617      7.156
REMARK INTER + INTRA:         -10.723
REMARK INTER:                 -10.314
REMARK INTRA:                  -0.409
REMARK UNBOUND:                -0.499
REMARK  Name = 
REMARK  9 active torsions:
REMARK  status: ('A' for Active; 'I' for Inactive)
REMARK    1  A    between atoms: C_1  and  C_2
REMARK    2  A    between atoms: C_2  and  C_3
REMARK    3  A    between atoms: C_3  and  C_4
REMARK    4  A    between atoms: C_16  and  C_17
REMARK    5  A    between atoms: C_16  and  C_18
REMARK    6  A    between atoms: C_22  and  C_23
REMARK    7  A    between atoms: C_23  and  C_24
REMARK    8  A    between atoms: C_25  and  C_26
REMARK    9  A    between atoms: C_27  and  O_28
REMARK                            x       y       z     vdW  Elec       q    Type
REMARK                         _______ _______ _______ _____ _____    ______ ____
ROOT
ATOM      1  C   UNL     1      25.576   2.869  50.884  0.00  0.00    +0.000 A 
ATOM      2  C   UNL     1      26.598   2.059  51.233  0.00  0.00    +0.000 A 
ATOM      3  C   UNL     1      26.692   1.410  52.534  0.00  0.00    +0.000 A 
ATOM      4  O   UNL     1      27.727   0.886  52.917  0.00  0.00    +0.000 OA
ATOM      5  O   UNL     1      25.554   1.424  53.282  0.00  0.00    +0.000 OA
ATOM      6  C   UNL     1      24.388   1.774  52.603  0.00  0.00    +0.000 A 
ATOM      7  C   UNL     1      23.314   0.932  52.753  0.00  0.00    +0.000 A 
ATOM      8  C   UNL     1      22.050   1.460  52.561  0.00  0.00    +0.000 A 
ATOM      9  C   UNL     1      21.917   2.759  52.032  0.00  0.00    +0.000 A 
ATOM     10  C   UNL     1      23.057   3.411  51.493  0.00  0.00    +0.000 A 
ATOM     11  C   UNL     1      24.334   2.840  51.715  0.00  0.00    +0.000 A 
ATOM     12  O   UNL     1      22.944   4.596  50.795  0.00  0.00    +0.000 OA
ATOM     13  C   UNL     1      21.614   5.107  50.478  0.00  0.00    +0.000 C 
ATOM     14  C   UNL     1      21.611   6.632  50.687  0.00  0.00    +0.000 C 
ATOM     15  C   UNL     1      21.332   4.811  48.998  0.00  0.00    +0.000 C 
ATOM     16  C   UNL     1      20.484   4.526  51.293  0.00  0.00    +0.000 C 
ATOM     17  C   UNL     1      20.617   3.410  52.006  0.00  0.00    +0.000 C 
ATOM     18  O   UNL     1      20.933   0.743  52.915  0.00  0.00    +0.000 OA
ATOM     19  C   UNL     1      21.087  -0.675  53.137  0.00  0.00    +0.000 C 
ATOM     20  C   UNL     1      22.429  -1.097  53.765  0.00  0.00    +0.000 C 
ATOM     21  C   UNL     1      22.652  -0.615  55.211  0.00  0.00    +0.000 C 
ATOM     22  C   UNL     1      23.501  -0.554  52.857  0.00  0.00    +0.000 C 
ENDROOT
BRANCH  19  23
ATOM     23  C   UNL     1      19.929  -1.155  54.002  0.00  0.00    +0.000 C 
ATOM     24  C   UNL     1      18.589  -1.063  53.271  0.00  0.00    +0.000 C 
ENDBRANCH  19  23
BRANCH  22  25
ATOM     25  O   UNL     1      24.775  -1.033  53.267  0.00  0.00    +0.000 OA
ATOM     26  H   UNL     1      25.469  -0.555  52.788  0.00  0.00    +0.000 HD
ENDBRANCH  22  25
BRANCH   1  27
ATOM     27  C   UNL     1      25.634   3.469  49.514  0.00  0.00    +0.000 C 
BRANCH  27  29
ATOM     28  C   UNL     1      27.570   4.874  48.733  0.00  0.00    +0.000 C 
ATOM     29  C   UNL     1      26.274   4.855  49.530  0.00  0.00    +0.000 C 
ENDBRANCH  27  29
ENDBRANCH   1  27
TORSDOF 4
ENDMDL
MODEL 4
REMARK VINA RESULT:    -8.299      1.571      5.856
REMARK INTER + INTRA:         -10.497
REMARK INTER:                  -9.927
REMARK INTRA:                  -0.570
REMARK UNBOUND:                -0.499
REMARK  Name = 
REMARK  9 active torsions:
REMARK  status: ('A' for Active; 'I' for Inactive)
REMARK    1  A    between atoms: C_1  and  C_2
REMARK    2  A    between atoms: C_2  and  C_3
REMARK    3  A    between atoms: C_3  and  C_4
REMARK    4  A    between atoms: C_16  and  C_17
REMARK    5  A    between atoms: C_16  and  C_18
REMARK    6  A    between atoms: C_22  and  C_23
REMARK    7  A    between atoms: C_23  and  C_24
REMARK    8  A    between atoms: C_25  and  C_26
REMARK    9  A    between atoms: C_27  and  O_28
REMARK                            x       y       z     vdW  Elec       q    Type
REMARK                         _______ _______ _______ _____ _____    ______ ____
ROOT
ATOM      1  C   UNL     1      22.914   4.580  49.398  0.00  0.00    +0.000 A 
ATOM      2  C   UNL     1      23.971   5.345  49.050  0.00  0.00    +0.000 A 
ATOM      3  C   UNL     1      25.070   5.644  49.958  0.00  0.00    +0.000 A 
ATOM      4  O   UNL     1      25.884   6.523  49.714  0.00  0.00    +0.000 OA
ATOM      5  O   UNL     1      25.130   4.879  51.083  0.00  0.00    +0.000 OA
ATOM      6  C   UNL     1      24.338   3.732  51.077  0.00  0.00    +0.000 A 
ATOM      7  C   UNL     1      24.958   2.556  51.420  0.00  0.00    +0.000 A 
ATOM      8  C   UNL     1      24.171   1.537  51.926  0.00  0.00    +0.000 A 
ATOM      9  C   UNL     1      22.769   1.662  51.884  0.00  0.00    +0.000 A 
ATOM     10  C   UNL     1      22.185   2.709  51.124  0.00  0.00    +0.000 A 
ATOM     11  C   UNL     1      23.025   3.736  50.626  0.00  0.00    +0.000 A 
ATOM     12  O   UNL     1      20.825   2.760  50.895  0.00  0.00    +0.000 OA
ATOM     13  C   UNL     1      19.994   1.636  51.316  0.00  0.00    +0.000 C 
ATOM     14  C   UNL     1      18.691   2.188  51.922  0.00  0.00    +0.000 C 
ATOM     15  C   UNL     1      19.648   0.809  50.069  0.00  0.00    +0.000 C 
ATOM     16  C   UNL     1      20.620   0.709  52.330  0.00  0.00    +0.000 C 
ATOM     17  C   UNL     1      21.927   0.703  52.583  0.00  0.00    +0.000 C 
ATOM     18  O   UNL     1      24.747   0.429  52.498  0.00  0.00    +0.000 OA
ATOM     19  C   UNL     1      26.145   0.185  52.233  0.00  0.00    +0.000 C 
ATOM     20  C   UNL     1      27.016   1.450  52.101  0.00  0.00    +0.000 C 
ATOM     21  C   UNL     1      27.170   2.272  53.395  0.00  0.00    +0.000 C 
ATOM     22  C   UNL     1      26.379   2.282  51.019  0.00  0.00    +0.000 C 
ENDROOT
BRANCH  19  23
ATOM     23  C   UNL     1      26.693  -0.717  53.330  0.00  0.00    +0.000 C 
ATOM     24  C   UNL     1      27.176  -2.061  52.782  0.00  0.00    +0.000 C 
ENDBRANCH  19  23
BRANCH  22  25
ATOM     25  O   UNL     1      27.205   3.396  50.712  0.00  0.00    +0.000 OA
ATOM     26  H   UNL     1      26.708   4.216  50.857  0.00  0.00    +0.000 HD
ENDBRANCH  22  25
BRANCH   1  27
ATOM     27  C   UNL     1      21.861   4.377  48.355  0.00  0.00    +0.000 C 
BRANCH  27  29
ATOM     28  C   UNL     1      22.314   2.006  47.644  0.00  0.00    +0.000 C 
ATOM     29  C   UNL     1      22.348   3.469  47.228  0.00  0.00    +0.000 C 
ENDBRANCH  27  29
ENDBRANCH   1  27
TORSDOF 4
ENDMDL
MODEL 5
REMARK VINA RESULT:    -7.980      1.823      4.924
REMARK INTER + INTRA:         -10.112
REMARK INTER:                  -9.546
REMARK INTRA:                  -0.566
REMARK UNBOUND:                -0.499
REMARK  Name = 
REMARK  9 active torsions:
REMARK  status: ('A' for Active; 'I' for Inactive)
REMARK    1  A    between atoms: C_1  and  C_2
REMARK    2  A    between atoms: C_2  and  C_3
REMARK    3  A    between atoms: C_3  and  C_4
REMARK    4  A    between atoms: C_16  and  C_17
REMARK    5  A    between atoms: C_16  and  C_18
REMARK    6  A    between atoms: C_22  and  C_23
REMARK    7  A    between atoms: C_23  and  C_24
REMARK    8  A    between atoms: C_25  and  C_26
REMARK    9  A    between atoms: C_27  and  O_28
REMARK                            x       y       z     vdW  Elec       q    Type
REMARK                         _______ _______ _______ _____ _____    ______ ____
ROOT
ATOM      1  C   UNL     1      22.713   0.047  53.420  0.00  0.00    +0.000 A 
ATOM      2  C   UNL     1      23.912  -0.196  53.992  0.00  0.00    +0.000 A 
ATOM      3  C   UNL     1      25.167  -0.166  53.254  0.00  0.00    +0.000 A 
ATOM      4  O   UNL     1      26.200  -0.621  53.723  0.00  0.00    +0.000 OA
ATOM      5  O   UNL     1      25.111   0.406  52.018  0.00  0.00    +0.000 OA
ATOM      6  C   UNL     1      23.961   1.147  51.748  0.00  0.00    +0.000 A 
ATOM      7  C   UNL     1      24.151   2.414  51.254  0.00  0.00    +0.000 A 
ATOM      8  C   UNL     1      23.131   2.972  50.505  0.00  0.00    +0.000 A 
ATOM      9  C   UNL     1      21.882   2.323  50.446  0.00  0.00    +0.000 A 
ATOM     10  C   UNL     1      21.617   1.242  51.328  0.00  0.00    +0.000 A 
ATOM     11  C   UNL     1      22.689   0.696  52.075  0.00  0.00    +0.000 A 
ATOM     12  O   UNL     1      20.352   0.701  51.441  0.00  0.00    +0.000 OA
ATOM     13  C   UNL     1      19.240   1.350  50.753  0.00  0.00    +0.000 C 
ATOM     14  C   UNL     1      18.337   0.261  50.145  0.00  0.00    +0.000 C 
ATOM     15  C   UNL     1      18.432   2.137  51.795  0.00  0.00    +0.000 C 
ATOM     16  C   UNL     1      19.627   2.302  49.647  0.00  0.00    +0.000 C 
ATOM     17  C   UNL     1      20.863   2.778  49.514  0.00  0.00    +0.000 C 
ATOM     18  O   UNL     1      23.339   4.130  49.796  0.00  0.00    +0.000 OA
ATOM     19  C   UNL     1      24.494   4.928  50.135  0.00  0.00    +0.000 C 
ATOM     20  C   UNL     1      25.737   4.128  50.568  0.00  0.00    +0.000 C 
ATOM     21  C   UNL     1      26.374   3.265  49.463  0.00  0.00    +0.000 C 
ATOM     22  C   UNL     1      25.295   3.266  51.722  0.00  0.00    +0.000 C 
ENDROOT
BRANCH  19  23
ATOM     23  C   UNL     1      24.830   5.817  48.945  0.00  0.00    +0.000 C 
ATOM     24  C   UNL     1      23.610   6.079  48.060  0.00  0.00    +0.000 C 
ENDBRANCH  19  23
BRANCH  22  25
ATOM     25  O   UNL     1      26.416   2.610  52.297  0.00  0.00    +0.000 OA
ATOM     26  H   UNL     1      26.118   1.821  52.774  0.00  0.00    +0.000 HD
ENDBRANCH  22  25
BRANCH   1  27
ATOM     27  C   UNL     1      21.515  -0.036  54.313  0.00  0.00    +0.000 C 
BRANCH  27  29
ATOM     28  C   UNL     1      19.464  -1.405  53.816  0.00  0.00    +0.000 C 
ATOM     29  C   UNL     1      20.902  -1.435  54.309  0.00  0.00    +0.000 C 
ENDBRANCH  27  29
ENDBRANCH   1  27
TORSDOF 4
ENDMDL
MODEL 6
REMARK VINA RESULT:    -7.712      1.976      5.829
REMARK INTER + INTRA:          -9.789
REMARK INTER:                  -9.259
REMARK INTRA:                  -0.530
REMARK UNBOUND:                -0.499
REMARK  Name = 
REMARK  9 active torsions:
REMARK  status: ('A' for Active; 'I' for Inactive)
REMARK    1  A    between atoms: C_1  and  C_2
REMARK    2  A    between atoms: C_2  and  C_3
REMARK    3  A    between atoms: C_3  and  C_4
REMARK    4  A    between atoms: C_16  and  C_17
REMARK    5  A    between atoms: C_16  and  C_18
REMARK    6  A    between atoms: C_22  and  C_23
REMARK    7  A    between atoms: C_23  and  C_24
REMARK    8  A    between atoms: C_25  and  C_26
REMARK    9  A    between atoms: C_27  and  O_28
REMARK                            x       y       z     vdW  Elec       q    Type
REMARK                         _______ _______ _______ _____ _____    ______ ____
ROOT
ATOM      1  C   UNL     1      24.088   3.581  49.730  0.00  0.00    +0.000 A 
ATOM      2  C   UNL     1      23.336   4.236  48.820  0.00  0.00    +0.000 A 
ATOM      3  C   UNL     1      22.235   3.612  48.099  0.00  0.00    +0.000 A 
ATOM      4  O   UNL     1      21.729   4.136  47.118  0.00  0.00    +0.000 OA
ATOM      5  O   UNL     1      21.808   2.416  48.595  0.00  0.00    +0.000 OA
ATOM      6  C   UNL     1      22.259   2.098  49.875  0.00  0.00    +0.000 A 
ATOM      7  C   UNL     1      21.305   1.707  50.781  0.00  0.00    +0.000 A 
ATOM      8  C   UNL     1      21.709   0.912  51.839  0.00  0.00    +0.000 A 
ATOM      9  C   UNL     1      23.084   0.703  52.060  0.00  0.00    +0.000 A 
ATOM     10  C   UNL     1      24.031   1.486  51.348  0.00  0.00    +0.000 A 
ATOM     11  C   UNL     1      23.577   2.284  50.269  0.00  0.00    +0.000 A 
ATOM     12  O   UNL     1      25.374   1.455  51.665  0.00  0.00    +0.000 OA
ATOM     13  C   UNL     1      25.805   0.718  52.850  0.00  0.00    +0.000 C 
ATOM     14  C   UNL     1      27.104  -0.036  52.513  0.00  0.00    +0.000 C 
ATOM     15  C   UNL     1      26.097   1.737  53.961  0.00  0.00    +0.000 C 
ATOM     16  C   UNL     1      24.813  -0.285  53.387  0.00  0.00    +0.000 C 
ATOM     17  C   UNL     1      23.529  -0.280  53.035  0.00  0.00    +0.000 C 
ATOM     18  O   UNL     1      20.781   0.300  52.647  0.00  0.00    +0.000 OA
ATOM     19  C   UNL     1      19.424   0.789  52.600  0.00  0.00    +0.000 C 
ATOM     20  C   UNL     1      18.950   1.274  51.217  0.00  0.00    +0.000 C 
ATOM     21  C   UNL     1      18.832   0.172  50.146  0.00  0.00    +0.000 C 
ATOM     22  C   UNL     1      19.937   2.326  50.785  0.00  0.00    +0.000 C 
ENDROOT
BRANCH  19  23
ATOM     23  C   UNL     1      18.501  -0.306  53.117  0.00  0.00    +0.000 C 
ATOM     24  C   UNL     1      19.272  -1.559  53.535  0.00  0.00    +0.000 C 
ENDBRANCH  19  23
BRANCH  22  25
ATOM     25  O   UNL     1      19.492   2.950  49.589  0.00  0.00    +0.000 OA
ATOM     26  H   UNL     1      19.531   3.913  49.694  0.00  0.00    +0.000 HD
ENDBRANCH  22  25
BRANCH   1  27
ATOM     27  C   UNL     1      25.191   4.361  50.374  0.00  0.00    +0.000 C 
BRANCH  27  29
ATOM     28  C   UNL     1      26.965   5.225  48.813  0.00  0.00    +0.000 C 
ATOM     29  C   UNL     1      26.541   4.080  49.719  0.00  0.00    +0.000 C 
ENDBRANCH  27  29
ENDBRANCH   1  27
TORSDOF 4
ENDMDL
MODEL 7
REMARK VINA RESULT:    -7.345      1.742      5.079
REMARK INTER + INTRA:          -9.347
REMARK INTER:                  -8.766
REMARK INTRA:                  -0.581
REMARK UNBOUND:                -0.499
REMARK  Name = 
REMARK  9 active torsions:
REMARK  status: ('A' for Active; 'I' for Inactive)
REMARK    1  A    between atoms: C_1  and  C_2
REMARK    2  A    between atoms: C_2  and  C_3
REMARK    3  A    between atoms: C_3  and  C_4
REMARK    4  A    between atoms: C_16  and  C_17
REMARK    5  A    between atoms: C_16  and  C_18
REMARK    6  A    between atoms: C_22  and  C_23
REMARK    7  A    between atoms: C_23  and  C_24
REMARK    8  A    between atoms: C_25  and  C_26
REMARK    9  A    between atoms: C_27  and  O_28
REMARK                            x       y       z     vdW  Elec       q    Type
REMARK                         _______ _______ _______ _____ _____    ______ ____
ROOT
ATOM      1  C   UNL     1      25.303   1.827  52.151  0.00  0.00    +0.000 A 
ATOM      2  C   UNL     1      26.211   2.621  51.542  0.00  0.00    +0.000 A 
ATOM      3  C   UNL     1      26.037   3.137  50.191  0.00  0.00    +0.000 A 
ATOM      4  O   UNL     1      26.962   3.643  49.573  0.00  0.00    +0.000 OA
ATOM      5  O   UNL     1      24.782   3.023  49.673  0.00  0.00    +0.000 OA
ATOM      6  C   UNL     1      23.776   2.717  50.589  0.00  0.00    +0.000 A 
ATOM      7  C   UNL     1      22.660   3.516  50.563  0.00  0.00    +0.000 A 
ATOM      8  C   UNL     1      21.475   2.982  51.038  0.00  0.00    +0.000 A 
ATOM      9  C   UNL     1      21.495   1.741  51.702  0.00  0.00    +0.000 A 
ATOM     10  C   UNL     1      22.740   1.171  52.078  0.00  0.00    +0.000 A 
ATOM     11  C   UNL     1      23.930   1.745  51.568  0.00  0.00    +0.000 A 
ATOM     12  O   UNL     1      22.805   0.060  52.893  0.00  0.00    +0.000 OA
ATOM     13  C   UNL     1      21.577  -0.446  53.501  0.00  0.00    +0.000 C 
ATOM     14  C   UNL     1      21.598  -1.984  53.441  0.00  0.00    +0.000 C 
ATOM     15  C   UNL     1      21.561  -0.009  54.973  0.00  0.00    +0.000 C 
ATOM     16  C   UNL     1      20.294   0.025  52.861  0.00  0.00    +0.000 C 
ATOM     17  C   UNL     1      20.249   1.067  52.033  0.00  0.00    +0.000 C 
ATOM     18  O   UNL     1      20.284   3.635  50.833  0.00  0.00    +0.000 OA
ATOM     19  C   UNL     1      20.337   5.027  50.453  0.00  0.00    +0.000 C 
ATOM     20  C   UNL     1      21.523   5.413  49.548  0.00  0.00    +0.000 C 
ATOM     21  C   UNL     1      21.494   4.794  48.138  0.00  0.00    +0.000 C 
ATOM     22  C   UNL     1      22.765   4.988  50.286  0.00  0.00    +0.000 C 
ENDROOT
BRANCH  19  23
ATOM     23  C   UNL     1      19.021   5.392  49.778  0.00  0.00    +0.000 C 
ATOM     24  C   UNL     1      17.909   4.397  50.113  0.00  0.00    +0.000 C 
ENDBRANCH  19  23
BRANCH  22  25
ATOM     25  O   UNL     1      23.920   5.451  49.602  0.00  0.00    +0.000 OA
ATOM     26  H   UNL     1      23.697   5.628  48.675  0.00  0.00    +0.000 HD
ENDBRANCH  22  25
BRANCH   1  27
ATOM     27  C   UNL     1      25.637   1.369  53.536  0.00  0.00    +0.000 C 
BRANCH  27  29
ATOM     28  C   UNL     1      26.266  -0.947  52.779  0.00  0.00    +0.000 C 
ATOM     29  C   UNL     1      26.722   0.294  53.531  0.00  0.00    +0.000 C 
ENDBRANCH  27  29
ENDBRANCH   1  27
TORSDOF 4
ENDMDL
MODEL 8
REMARK VINA RESULT:    -7.293      1.811      5.459
REMARK INTER + INTRA:          -9.285
REMARK INTER:                  -8.906
REMARK INTRA:                  -0.379
REMARK UNBOUND:                -0.499
REMARK  Name = 
REMARK  9 active torsions:
REMARK  status: ('A' for Active; 'I' for Inactive)
REMARK    1  A    between atoms: C_1  and  C_2
REMARK    2  A    between atoms: C_2  and  C_3
REMARK    3  A    between atoms: C_3  and  C_4
REMARK    4  A    between atoms: C_16  and  C_17
REMARK    5  A    between atoms: C_16  and  C_18
REMARK    6  A    between atoms: C_22  and  C_23
REMARK    7  A    between atoms: C_23  and  C_24
REMARK    8  A    between atoms: C_25  and  C_26
REMARK    9  A    between atoms: C_27  and  O_28
REMARK                            x       y       z     vdW  Elec       q    Type
REMARK                         _______ _______ _______ _____ _____    ______ ____
ROOT
ATOM      1  C   UNL     1      20.814   2.887  51.143  0.00  0.00    +0.000 A 
ATOM      2  C   UNL     1      20.124   1.854  51.672  0.00  0.00    +0.000 A 
ATOM      3  C   UNL     1      20.637   0.491  51.709  0.00  0.00    +0.000 A 
ATOM      4  O   UNL     1      19.914  -0.462  51.964  0.00  0.00    +0.000 OA
ATOM      5  O   UNL     1      21.967   0.354  51.449  0.00  0.00    +0.000 OA
ATOM      6  C   UNL     1      22.713   1.531  51.483  0.00  0.00    +0.000 A 
ATOM      7  C   UNL     1      23.855   1.511  52.245  0.00  0.00    +0.000 A 
ATOM      8  C   UNL     1      24.862   2.403  51.920  0.00  0.00    +0.000 A 
ATOM      9  C   UNL     1      24.609   3.414  50.972  0.00  0.00    +0.000 A 
ATOM     10  C   UNL     1      23.277   3.647  50.542  0.00  0.00    +0.000 A 
ATOM     11  C   UNL     1      22.275   2.709  50.893  0.00  0.00    +0.000 A 
ATOM     12  O   UNL     1      22.954   4.742  49.766  0.00  0.00    +0.000 OA
ATOM     13  C   UNL     1      23.973   5.756  49.513  0.00  0.00    +0.000 C 
ATOM     14  C   UNL     1      23.866   6.203  48.043  0.00  0.00    +0.000 C 
ATOM     15  C   UNL     1      23.679   6.962  50.418  0.00  0.00    +0.000 C 
ATOM     16  C   UNL     1      25.397   5.322  49.763  0.00  0.00    +0.000 C 
ATOM     17  C   UNL     1      25.699   4.234  50.468  0.00  0.00    +0.000 C 
ATOM     18  O   UNL     1      26.108   2.285  52.485  0.00  0.00    +0.000 OA
ATOM     19  C   UNL     1      26.235   1.467  53.668  0.00  0.00    +0.000 C 
ATOM     20  C   UNL     1      25.317   0.231  53.710  0.00  0.00    +0.000 C 
ATOM     21  C   UNL     1      25.628  -0.848  52.655  0.00  0.00    +0.000 C 
ATOM     22  C   UNL     1      23.913   0.749  53.537  0.00  0.00    +0.000 C 
ENDROOT
BRANCH  19  23
ATOM     23  C   UNL     1      27.691   1.045  53.807  0.00  0.00    +0.000 C 
ATOM     24  C   UNL     1      28.652   2.219  53.613  0.00  0.00    +0.000 C 
ENDBRANCH  19  23
BRANCH  22  25
ATOM     25  O   UNL     1      22.979  -0.304  53.726  0.00  0.00    +0.000 OA
ATOM     26  H   UNL     1      23.078  -0.667  54.619  0.00  0.00    +0.000 HD
ENDBRANCH  22  25
BRANCH   1  27
ATOM     27  C   UNL     1      20.142   4.224  51.170  0.00  0.00    +0.000 C 
BRANCH  27  29
ATOM     28  C   UNL     1      17.666   4.365  50.744  0.00  0.00    +0.000 C 
ATOM     29  C   UNL     1      19.047   4.329  50.110  0.00  0.00    +0.000 C 
ENDBRANCH  27  29
ENDBRANCH   1  27
TORSDOF 4
ENDMDL
MODEL 9
REMARK VINA RESULT:    -7.249      2.569      6.140
REMARK INTER + INTRA:          -9.232
REMARK INTER:                  -8.770
REMARK INTRA:                  -0.462
REMARK UNBOUND:                -0.499
REMARK  Name = 
REMARK  9 active torsions:
REMARK  status: ('A' for Active; 'I' for Inactive)
REMARK    1  A    between atoms: C_1  and  C_2
REMARK    2  A    between atoms: C_2  and  C_3
REMARK    3  A    between atoms: C_3  and  C_4
REMARK    4  A    between atoms: C_16  and  C_17
REMARK    5  A    between atoms: C_16  and  C_18
REMARK    6  A    between atoms: C_22  and  C_23
REMARK    7  A    between atoms: C_23  and  C_24
REMARK    8  A    between atoms: C_25  and  C_26
REMARK    9  A    between atoms: C_27  and  O_28
REMARK                            x       y       z     vdW  Elec       q    Type
REMARK                         _______ _______ _______ _____ _____    ______ ____
ROOT
ATOM      1  C   UNL     1      23.232   1.213  52.857  0.00  0.00    +0.000 A 
ATOM      2  C   UNL     1      22.812   0.090  53.479  0.00  0.00    +0.000 A 
ATOM      3  C   UNL     1      21.467  -0.067  54.015  0.00  0.00    +0.000 A 
ATOM      4  O   UNL     1      21.181  -0.978  54.778  0.00  0.00    +0.000 OA
ATOM      5  O   UNL     1      20.557   0.860  53.604  0.00  0.00    +0.000 OA
ATOM      6  C   UNL     1      20.938   1.638  52.512  0.00  0.00    +0.000 A 
ATOM      7  C   UNL     1      20.040   1.725  51.478  0.00  0.00    +0.000 A 
ATOM      8  C   UNL     1      20.111   2.835  50.655  0.00  0.00    +0.000 A 
ATOM      9  C   UNL     1      21.203   3.716  50.776  0.00  0.00    +0.000 A 
ATOM     10  C   UNL     1      22.319   3.336  51.568  0.00  0.00    +0.000 A 
ATOM     11  C   UNL     1      22.205   2.196  52.400  0.00  0.00    +0.000 A 
ATOM     12  O   UNL     1      23.486   4.073  51.565  0.00  0.00    +0.000 OA
ATOM     13  C   UNL     1      23.626   5.175  50.617  0.00  0.00    +0.000 C 
ATOM     14  C   UNL     1      24.307   6.355  51.334  0.00  0.00    +0.000 C 
ATOM     15  C   UNL     1      24.532   4.703  49.471  0.00  0.00    +0.000 C 
ATOM     16  C   UNL     1      22.337   5.680  50.015  0.00  0.00    +0.000 C 
ATOM     17  C   UNL     1      21.203   4.986  50.068  0.00  0.00    +0.000 C 
ATOM     18  O   UNL     1      19.110   3.100  49.751  0.00  0.00    +0.000 OA
ATOM     19  C   UNL     1      18.197   2.029  49.428  0.00  0.00    +0.000 C 
ATOM     20  C   UNL     1      17.868   1.075  50.592  0.00  0.00    +0.000 C 
ATOM     21  C   UNL     1      17.073   1.710  51.749  0.00  0.00    +0.000 C 
ATOM     22  C   UNL     1      19.191   0.551  51.085  0.00  0.00    +0.000 C 
ENDROOT
BRANCH  19  23
ATOM     23  C   UNL     1      16.918   2.640  48.872  0.00  0.00    +0.000 C 
ATOM     24  C   UNL     1      16.906   4.165  49.000  0.00  0.00    +0.000 C 
ENDBRANCH  19  23
BRANCH  22  25
ATOM     25  O   UNL     1      18.980  -0.465  52.056  0.00  0.00    +0.000 OA
ATOM     26  H   UNL     1      18.504  -1.206  51.649  0.00  0.00    +0.000 HD
ENDBRANCH  22  25
BRANCH   1  27
ATOM     27  C   UNL     1      24.649   1.221  52.375  0.00  0.00    +0.000 C 
BRANCH  27  29
ATOM     28  C   UNL     1      26.713  -0.193  52.102  0.00  0.00    +0.000 C 
ATOM     29  C   UNL     1      25.429   0.013  52.891  0.00  0.00    +0.000 C 
ENDBRANCH  27  29
ENDBRANCH   1  27
TORSDOF 4
ENDMDL
