MODEL 1
REMARK VINA RESULT:    -7.955      0.000      0.000
REMARK INTER + INTRA:         -13.200
REMARK INTER:                 -11.210
REMARK INTRA:                  -1.990
REMARK UNBOUND:                -1.990
REMARK  Name = 
REMARK  8 active torsions:
REMARK  status: ('A' for Active; 'I' for Inactive)
REMARK    1  A    between atoms: C_1  and  C_2
REMARK    2  A    between atoms: C_2  and  C_3
REMARK    3  A    between atoms: C_3  and  C_4
REMARK    4  A    between atoms: C_4  and  C_5
REMARK    5  A    between atoms: N_13  and  C_14
REMARK    6  A    between atoms: C_14  and  C_15
REMARK    7  A    between atoms: C_18  and  C_19
REMARK    8  A    between atoms: C_24  and  C_25
REMARK                            x       y       z     vdW  Elec       q    Type
REMARK                         _______ _______ _______ _____ _____    ______ ____
ROOT
ATOM      1  C   UNL     1      24.231   3.159  52.012  0.00  0.00    +0.000 A 
ATOM      2  C   UNL     1      24.335   2.598  53.294  0.00  0.00    +0.000 A 
ATOM      3  C   UNL     1      25.250   1.563  53.564  0.00  0.00    +0.000 A 
ATOM      4  C   UNL     1      26.112   1.068  52.577  0.00  0.00    +0.000 A 
ATOM      5  C   UNL     1      25.955   1.600  51.283  0.00  0.00    +0.000 A 
ATOM      6  C   UNL     1      25.028   2.614  51.001  0.00  0.00    +0.000 A 
ENDROOT
BRANCH   4   7
ATOM      7  C   UNL     1      27.117   0.004  52.849  0.00  0.00    +0.000 A 
ATOM      8  C   UNL     1      26.802  -1.329  52.491  0.00  0.00    +0.000 A 
ATOM      9  C   UNL     1      27.697  -2.389  52.677  0.00  0.00    +0.000 A 
ATOM     10  C   UNL     1      28.936  -2.160  53.255  0.00  0.00    +0.000 A 
ATOM     11  C   UNL     1      29.277  -0.872  53.643  0.00  0.00    +0.000 A 
ATOM     12  C   UNL     1      28.386   0.212  53.442  0.00  0.00    +0.000 A 
BRANCH  12  13
ATOM     13  C   UNL     1      28.898   1.557  53.816  0.00  0.00    +0.000 C 
ATOM     14  O   UNL     1      28.815   2.588  53.179  0.00  0.00    +0.000 OA
ATOM     15  O   UNL     1      29.502   1.534  55.022  0.00  0.00    +0.000 OA
ENDBRANCH  12  13
ENDBRANCH   4   7
BRANCH   1  16
ATOM     16  C   UNL     1      23.266   4.278  51.704  0.00  0.00    +0.000 C 
BRANCH  16  25
ATOM     17  C   UNL     1      20.940   3.325  51.229  0.00  0.00    +0.000 A 
ATOM     18  N   UNL     1      20.074   3.358  50.233  0.00  0.00    +0.000 NA
ATOM     19  C   UNL     1      20.738   3.888  49.157  0.00  0.00    +0.000 A 
ATOM     20  C   UNL     1      20.294   4.113  47.857  0.00  0.00    +0.000 A 
ATOM     21  N   UNL     1      21.151   4.646  46.961  0.00  0.00    +0.000 NA
ATOM     22  N   UNL     1      22.444   4.968  47.317  0.00  0.00    +0.000 NA
ATOM     23  C   UNL     1      22.904   4.772  48.570  0.00  0.00    +0.000 A 
ATOM     24  C   UNL     1      22.040   4.221  49.502  0.00  0.00    +0.000 A 
ATOM     25  N   UNL     1      22.147   3.894  50.843  0.00  0.00    +0.000 N 
BRANCH  17  26
ATOM     26  C   UNL     1      20.650   2.628  52.523  0.00  0.00    +0.000 C 
BRANCH  26  27
ATOM     27  C   UNL     1      20.543   1.104  52.464  0.00  0.00    +0.000 C 
BRANCH  27  29
ATOM     28  C   UNL     1      22.408  -0.626  52.928  0.00  0.00    +0.000 C 
ATOM     29  C   UNL     1      21.742   0.311  51.930  0.00  0.00    +0.000 C 
ENDBRANCH  27  29
ENDBRANCH  26  27
ENDBRANCH  17  26
ENDBRANCH  16  25
ENDBRANCH   1  16
TORSDOF 7
ENDMDL
MODEL 2
REMARK VINA RESULT:    -7.745      1.631      2.284
REMARK INTER + INTRA:         -12.905
REMARK INTER:                 -11.302
REMARK INTRA:                  -1.603
REMARK UNBOUND:                -1.990
REMARK  Name = 
REMARK  8 active torsions:
REMARK  status: ('A' for Active; 'I' for Inactive)
REMARK    1  A    between atoms: C_1  and  C_2
REMARK    2  A    between atoms: C_2  and  C_3
REMARK    3  A    between atoms: C_3  and  C_4
REMARK    4  A    between atoms: C_4  and  C_5
REMARK    5  A    between atoms: N_13  and  C_14
REMARK    6  A    between atoms: C_14  and  C_15
REMARK    7  A    between atoms: C_18  and  C_19
REMARK    8  A    between atoms: C_24  and  C_25
REMARK                            x       y       z     vdW  Elec       q    Type
REMARK                         _______ _______ _______ _____ _____    ______ ____
ROOT
ATOM      1  C   UNL     1      24.057   3.225  52.025  0.00  0.00    +0.000 A 
ATOM      2  C   UNL     1      24.891   2.727  51.011  0.00  0.00    +0.000 A 
ATOM      3  C   UNL     1      26.043   1.980  51.319  0.00  0.00    +0.000 A 
ATOM      4  C   UNL     1      26.393   1.678  52.641  0.00  0.00    +0.000 A 
ATOM      5  C   UNL     1      25.580   2.234  53.647  0.00  0.00    +0.000 A 
ATOM      6  C   UNL     1      24.444   3.000  53.349  0.00  0.00    +0.000 A 
ENDROOT
BRANCH   4   7
ATOM      7  C   UNL     1      27.583   0.854  52.989  0.00  0.00    +0.000 A 
ATOM      8  C   UNL     1      28.780   1.517  53.353  0.00  0.00    +0.000 A 
ATOM      9  C   UNL     1      29.938   0.826  53.728  0.00  0.00    +0.000 A 
ATOM     10  C   UNL     1      29.951  -0.561  53.729  0.00  0.00    +0.000 A 
ATOM     11  C   UNL     1      28.807  -1.251  53.355  0.00  0.00    +0.000 A 
ATOM     12  C   UNL     1      27.624  -0.562  52.992  0.00  0.00    +0.000 A 
BRANCH  12  13
ATOM     13  C   UNL     1      26.437  -1.409  52.699  0.00  0.00    +0.000 C 
ATOM     14  O   UNL     1      25.273  -1.171  52.950  0.00  0.00    +0.000 OA
ATOM     15  O   UNL     1      26.792  -2.549  52.073  0.00  0.00    +0.000 OA
ENDBRANCH  12  13
ENDBRANCH   4   7
BRANCH   1  16
ATOM     16  C   UNL     1      22.810   4.018  51.717  0.00  0.00    +0.000 C 
BRANCH  16  25
ATOM     17  C   UNL     1      20.824   2.494  51.196  0.00  0.00    +0.000 A 
ATOM     18  N   UNL     1      20.021   2.280  50.170  0.00  0.00    +0.000 NA
ATOM     19  C   UNL     1      20.574   2.934  49.099  0.00  0.00    +0.000 A 
ATOM     20  C   UNL     1      20.144   3.006  47.778  0.00  0.00    +0.000 A 
ATOM     21  N   UNL     1      20.875   3.717  46.893  0.00  0.00    +0.000 NA
ATOM     22  N   UNL     1      22.027   4.366  47.283  0.00  0.00    +0.000 NA
ATOM     23  C   UNL     1      22.469   4.325  48.557  0.00  0.00    +0.000 A 
ATOM     24  C   UNL     1      21.734   3.596  49.478  0.00  0.00    +0.000 A 
ATOM     25  N   UNL     1      21.863   3.341  50.832  0.00  0.00    +0.000 N 
BRANCH  17  26
ATOM     26  C   UNL     1      20.665   1.779  52.503  0.00  0.00    +0.000 C 
BRANCH  26  27
ATOM     27  C   UNL     1      21.362   0.422  52.623  0.00  0.00    +0.000 C 
BRANCH  27  29
ATOM     28  C   UNL     1      22.029  -1.261  54.469  0.00  0.00    +0.000 C 
ATOM     29  C   UNL     1      22.183   0.137  53.887  0.00  0.00    +0.000 C 
ENDBRANCH  27  29
ENDBRANCH  26  27
ENDBRANCH  17  26
ENDBRANCH  16  25
ENDBRANCH   1  16
TORSDOF 7
ENDMDL
MODEL 3
REMARK VINA RESULT:    -7.720      3.756      5.822
REMARK INTER + INTRA:         -12.869
REMARK INTER:                 -11.300
REMARK INTRA:                  -1.570
REMARK UNBOUND:                -1.990
REMARK  Name = 
REMARK  8 active torsions:
REMARK  status: ('A' for Active; 'I' for Inactive)
REMARK    1  A    between atoms: C_1  and  C_2
REMARK    2  A    between atoms: C_2  and  C_3
REMARK    3  A    between atoms: C_3  and  C_4
REMARK    4  A    between atoms: C_4  and  C_5
REMARK    5  A    between atoms: N_13  and  C_14
REMARK    6  A    between atoms: C_14  and  C_15
REMARK    7  A    between atoms: C_18  and  C_19
REMARK    8  A    between atoms: C_24  and  C_25
REMARK                            x       y       z     vdW  Elec       q    Type
REMARK                         _______ _______ _______ _____ _____    ______ ____
ROOT
ATOM      1  C   UNL     1      23.566   3.786  50.309  0.00  0.00    +0.000 A 
ATOM      2  C   UNL     1      23.686   4.053  51.682  0.00  0.00    +0.000 A 
ATOM      3  C   UNL     1      23.445   3.052  52.642  0.00  0.00    +0.000 A 
ATOM      4  C   UNL     1      23.104   1.745  52.272  0.00  0.00    +0.000 A 
ATOM      5  C   UNL     1      22.931   1.508  50.894  0.00  0.00    +0.000 A 
ATOM      6  C   UNL     1      23.144   2.507  49.934  0.00  0.00    +0.000 A 
ENDROOT
BRANCH   4   7
ATOM      7  C   UNL     1      22.887   0.659  53.267  0.00  0.00    +0.000 A 
ATOM      8  C   UNL     1      24.021   0.019  53.825  0.00  0.00    +0.000 A 
ATOM      9  C   UNL     1      23.916  -0.988  54.791  0.00  0.00    +0.000 A 
ATOM     10  C   UNL     1      22.667  -1.414  55.218  0.00  0.00    +0.000 A 
ATOM     11  C   UNL     1      21.529  -0.832  54.679  0.00  0.00    +0.000 A 
ATOM     12  C   UNL     1      21.624   0.202  53.715  0.00  0.00    +0.000 A 
BRANCH  12  13
ATOM     13  C   UNL     1      20.339   0.810  53.279  0.00  0.00    +0.000 C 
ATOM     14  O   UNL     1      20.083   1.988  53.139  0.00  0.00    +0.000 OA
ATOM     15  O   UNL     1      19.412  -0.136  53.022  0.00  0.00    +0.000 OA
ENDBRANCH  12  13
ENDBRANCH   4   7
BRANCH   1  16
ATOM     16  C   UNL     1      23.831   4.841  49.263  0.00  0.00    +0.000 C 
BRANCH  16  25
ATOM     17  C   UNL     1      26.362   4.493  49.142  0.00  0.00    +0.000 A 
ATOM     18  N   UNL     1      27.416   5.217  48.815  0.00  0.00    +0.000 NA
ATOM     19  C   UNL     1      26.982   6.514  48.713  0.00  0.00    +0.000 A 
ATOM     20  C   UNL     1      27.694   7.673  48.421  0.00  0.00    +0.000 A 
ATOM     21  N   UNL     1      27.035   8.850  48.388  0.00  0.00    +0.000 NA
ATOM     22  N   UNL     1      25.679   8.913  48.634  0.00  0.00    +0.000 NA
ATOM     23  C   UNL     1      24.956   7.808  48.911  0.00  0.00    +0.000 A 
ATOM     24  C   UNL     1      25.617   6.592  48.955  0.00  0.00    +0.000 A 
ATOM     25  N   UNL     1      25.223   5.286  49.188  0.00  0.00    +0.000 N 
BRANCH  17  26
ATOM     26  C   UNL     1      26.468   3.052  49.538  0.00  0.00    +0.000 C 
BRANCH  26  27
ATOM     27  C   UNL     1      26.844   2.774  50.994  0.00  0.00    +0.000 C 
BRANCH  27  29
ATOM     28  C   UNL     1      27.310   1.074  52.886  0.00  0.00    +0.000 C 
ATOM     29  C   UNL     1      26.680   1.346  51.527  0.00  0.00    +0.000 C 
ENDBRANCH  27  29
ENDBRANCH  26  27
ENDBRANCH  17  26
ENDBRANCH  16  25
ENDBRANCH   1  16
TORSDOF 7
ENDMDL
MODEL 4
REMARK VINA RESULT:    -7.575      3.054      4.744
REMARK INTER + INTRA:         -12.665
REMARK INTER:                 -10.715
REMARK INTRA:                  -1.950
REMARK UNBOUND:                -1.990
REMARK  Name = 
REMARK  8 active torsions:
REMARK  status: ('A' for Active; 'I' for Inactive)
REMARK    1  A    between atoms: C_1  and  C_2
REMARK    2  A    between atoms: C_2  and  C_3
REMARK    3  A    between atoms: C_3  and  C_4
REMARK    4  A    between atoms: C_4  and  C_5
REMARK    5  A    between atoms: N_13  and  C_14
REMARK    6  A    between atoms: C_14  and  C_15
REMARK    7  A    between atoms: C_18  and  C_19
REMARK    8  A    between atoms: C_24  and  C_25
REMARK                            x       y       z     vdW  Elec       q    Type
REMARK                         _______ _______ _______ _____ _____    ______ ____
ROOT
ATOM      1  C   UNL     1      24.016   3.517  49.942  0.00  0.00    +0.000 A 
ATOM      2  C   UNL     1      24.621   3.673  51.199  0.00  0.00    +0.000 A 
ATOM      3  C   UNL     1      24.376   2.760  52.242  0.00  0.00    +0.000 A 
ATOM      4  C   UNL     1      23.544   1.648  52.066  0.00  0.00    +0.000 A 
ATOM      5  C   UNL     1      22.899   1.539  50.818  0.00  0.00    +0.000 A 
ATOM      6  C   UNL     1      23.118   2.457  49.783  0.00  0.00    +0.000 A 
ENDROOT
BRANCH   4   7
ATOM      7  C   UNL     1      23.303   0.646  53.140  0.00  0.00    +0.000 A 
ATOM      8  C   UNL     1      21.973   0.427  53.573  0.00  0.00    +0.000 A 
ATOM      9  C   UNL     1      21.646  -0.518  54.553  0.00  0.00    +0.000 A 
ATOM     10  C   UNL     1      22.645  -1.265  55.158  0.00  0.00    +0.000 A 
ATOM     11  C   UNL     1      23.966  -1.066  54.782  0.00  0.00    +0.000 A 
ATOM     12  C   UNL     1      24.305  -0.125  53.777  0.00  0.00    +0.000 A 
BRANCH  12  13
ATOM     13  C   UNL     1      25.741  -0.066  53.396  0.00  0.00    +0.000 C 
ATOM     14  O   UNL     1      26.271  -0.549  52.416  0.00  0.00    +0.000 OA
ATOM     15  O   UNL     1      26.459   0.635  54.298  0.00  0.00    +0.000 OA
ENDBRANCH  12  13
ENDBRANCH   4   7
BRANCH   1  16
ATOM     16  C   UNL     1      24.275   4.477  48.806  0.00  0.00    +0.000 C 
BRANCH  16  25
ATOM     17  C   UNL     1      23.511   6.664  49.888  0.00  0.00    +0.000 A 
ATOM     18  N   UNL     1      24.083   7.773  50.319  0.00  0.00    +0.000 NA
ATOM     19  C   UNL     1      25.376   7.747  49.865  0.00  0.00    +0.000 A 
ATOM     20  C   UNL     1      26.394   8.684  50.015  0.00  0.00    +0.000 A 
ATOM     21  N   UNL     1      27.598   8.431  49.459  0.00  0.00    +0.000 NA
ATOM     22  N   UNL     1      27.826   7.266  48.756  0.00  0.00    +0.000 NA
ATOM     23  C   UNL     1      26.865   6.333  48.599  0.00  0.00    +0.000 A 
ATOM     24  C   UNL     1      25.622   6.578  49.158  0.00  0.00    +0.000 A 
ATOM     25  N   UNL     1      24.431   5.873  49.214  0.00  0.00    +0.000 N 
BRANCH  17  26
ATOM     26  C   UNL     1      22.038   6.419  50.013  0.00  0.00    +0.000 C 
BRANCH  26  27
ATOM     27  C   UNL     1      21.584   5.623  51.237  0.00  0.00    +0.000 C 
BRANCH  27  29
ATOM     28  C   UNL     1      20.346   3.551  52.164  0.00  0.00    +0.000 C 
ATOM     29  C   UNL     1      20.467   4.588  51.057  0.00  0.00    +0.000 C 
ENDBRANCH  27  29
ENDBRANCH  26  27
ENDBRANCH  17  26
ENDBRANCH  16  25
ENDBRANCH   1  16
TORSDOF 7
ENDMDL
MODEL 5
REMARK VINA RESULT:    -7.405      1.457      3.469
REMARK INTER + INTRA:         -12.426
REMARK INTER:                 -11.321
REMARK INTRA:                  -1.104
REMARK UNBOUND:                -1.990
REMARK  Name = 
REMARK  8 active torsions:
REMARK  status: ('A' for Active; 'I' for Inactive)
REMARK    1  A    between atoms: C_1  and  C_2
REMARK    2  A    between atoms: C_2  and  C_3
REMARK    3  A    between atoms: C_3  and  C_4
REMARK    4  A    between atoms: C_4  and  C_5
REMARK    5  A    between atoms: N_13  and  C_14
REMARK    6  A    between atoms: C_14  and  C_15
REMARK    7  A    between atoms: C_18  and  C_19
REMARK    8  A    between atoms: C_24  and  C_25
REMARK                            x       y       z     vdW  Elec       q    Type
REMARK                         _______ _______ _______ _____ _____    ______ ____
ROOT
ATOM      1  C   UNL     1      24.008   2.602  51.821  0.00  0.00    +0.000 A 
ATOM      2  C   UNL     1      25.170   2.540  51.037  0.00  0.00    +0.000 A 
ATOM      3  C   UNL     1      26.223   1.665  51.364  0.00  0.00    +0.000 A 
ATOM      4  C   UNL     1      26.147   0.803  52.465  0.00  0.00    +0.000 A 
ATOM      5  C   UNL     1      25.001   0.919  53.275  0.00  0.00    +0.000 A 
ATOM      6  C   UNL     1      23.959   1.806  52.970  0.00  0.00    +0.000 A 
ENDROOT
BRANCH   4   7
ATOM      7  C   UNL     1      27.229  -0.162  52.806  0.00  0.00    +0.000 A 
ATOM      8  C   UNL     1      27.056  -1.522  52.452  0.00  0.00    +0.000 A 
ATOM      9  C   UNL     1      28.032  -2.493  52.701  0.00  0.00    +0.000 A 
ATOM     10  C   UNL     1      29.212  -2.146  53.341  0.00  0.00    +0.000 A 
ATOM     11  C   UNL     1      29.413  -0.828  53.728  0.00  0.00    +0.000 A 
ATOM     12  C   UNL     1      28.440   0.167  53.463  0.00  0.00    +0.000 A 
BRANCH  12  13
ATOM     13  C   UNL     1      28.806   1.557  53.843  0.00  0.00    +0.000 C 
ATOM     14  O   UNL     1      28.475   2.590  53.295  0.00  0.00    +0.000 OA
ATOM     15  O   UNL     1      29.591   1.575  54.939  0.00  0.00    +0.000 OA
ENDBRANCH  12  13
ENDBRANCH   4   7
BRANCH   1  16
ATOM     16  C   UNL     1      22.862   3.524  51.482  0.00  0.00    +0.000 C 
BRANCH  16  25
ATOM     17  C   UNL     1      21.978   2.730  49.218  0.00  0.00    +0.000 A 
ATOM     18  N   UNL     1      20.997   1.958  48.787  0.00  0.00    +0.000 NA
ATOM     19  C   UNL     1      20.187   1.719  49.866  0.00  0.00    +0.000 A 
ATOM     20  C   UNL     1      19.004   0.989  49.950  0.00  0.00    +0.000 A 
ATOM     21  N   UNL     1      18.375   0.905  51.142  0.00  0.00    +0.000 NA
ATOM     22  N   UNL     1      18.888   1.525  52.262  0.00  0.00    +0.000 NA
ATOM     23  C   UNL     1      20.036   2.233  52.218  0.00  0.00    +0.000 A 
ATOM     24  C   UNL     1      20.693   2.334  51.003  0.00  0.00    +0.000 A 
ATOM     25  N   UNL     1      21.862   2.945  50.584  0.00  0.00    +0.000 N 
BRANCH  17  26
ATOM     26  C   UNL     1      22.962   3.372  48.288  0.00  0.00    +0.000 C 
BRANCH  26  27
ATOM     27  C   UNL     1      22.737   4.853  47.978  0.00  0.00    +0.000 C 
BRANCH  27  29
ATOM     28  C   UNL     1      25.062   5.464  48.932  0.00  0.00    +0.000 C 
ATOM     29  C   UNL     1      23.620   5.886  48.689  0.00  0.00    +0.000 C 
ENDBRANCH  27  29
ENDBRANCH  26  27
ENDBRANCH  17  26
ENDBRANCH  16  25
ENDBRANCH   1  16
TORSDOF 7
ENDMDL
MODEL 6
REMARK VINA RESULT:    -7.301      3.428      6.247
REMARK INTER + INTRA:         -12.279
REMARK INTER:                  -9.937
REMARK INTRA:                  -2.342
REMARK UNBOUND:                -1.990
REMARK  Name = 
REMARK  8 active torsions:
REMARK  status: ('A' for Active; 'I' for Inactive)
REMARK    1  A    between atoms: C_1  and  C_2
REMARK    2  A    between atoms: C_2  and  C_3
REMARK    3  A    between atoms: C_3  and  C_4
REMARK    4  A    between atoms: C_4  and  C_5
REMARK    5  A    between atoms: N_13  and  C_14
REMARK    6  A    between atoms: C_14  and  C_15
REMARK    7  A    between atoms: C_18  and  C_19
REMARK    8  A    between atoms: C_24  and  C_25
REMARK                            x       y       z     vdW  Elec       q    Type
REMARK                         _______ _______ _______ _____ _____    ______ ____
ROOT
ATOM      1  C   UNL     1      22.110   2.864  49.245  0.00  0.00    +0.000 A 
ATOM      2  C   UNL     1      21.355   3.390  50.304  0.00  0.00    +0.000 A 
ATOM      3  C   UNL     1      20.531   2.563  51.092  0.00  0.00    +0.000 A 
ATOM      4  C   UNL     1      20.450   1.183  50.872  0.00  0.00    +0.000 A 
ATOM      5  C   UNL     1      21.168   0.680  49.770  0.00  0.00    +0.000 A 
ATOM      6  C   UNL     1      21.970   1.501  48.965  0.00  0.00    +0.000 A 
ENDROOT
BRANCH   4   7
ATOM      7  C   UNL     1      19.620   0.282  51.719  0.00  0.00    +0.000 A 
ATOM      8  C   UNL     1      18.265   0.079  51.360  0.00  0.00    +0.000 A 
ATOM      9  C   UNL     1      17.418  -0.776  52.076  0.00  0.00    +0.000 A 
ATOM     10  C   UNL     1      17.888  -1.442  53.197  0.00  0.00    +0.000 A 
ATOM     11  C   UNL     1      19.204  -1.253  53.598  0.00  0.00    +0.000 A 
ATOM     12  C   UNL     1      20.075  -0.405  52.870  0.00  0.00    +0.000 A 
BRANCH  12  13
ATOM     13  C   UNL     1      21.483  -0.353  53.344  0.00  0.00    +0.000 C 
ATOM     14  O   UNL     1      22.464  -0.834  52.815  0.00  0.00    +0.000 OA
ATOM     15  O   UNL     1      21.586   0.338  54.498  0.00  0.00    +0.000 OA
ENDBRANCH  12  13
ENDBRANCH   4   7
BRANCH   1  16
ATOM     16  C   UNL     1      23.008   3.729  48.395  0.00  0.00    +0.000 C 
BRANCH  16  25
ATOM     17  C   UNL     1      25.156   4.382  49.620  0.00  0.00    +0.000 A 
ATOM     18  N   UNL     1      25.728   5.500  50.026  0.00  0.00    +0.000 NA
ATOM     19  C   UNL     1      24.789   6.490  49.891  0.00  0.00    +0.000 A 
ATOM     20  C   UNL     1      24.868   7.844  50.202  0.00  0.00    +0.000 A 
ATOM     21  N   UNL     1      23.789   8.625  49.983  0.00  0.00    +0.000 NA
ATOM     22  N   UNL     1      22.626   8.101  49.459  0.00  0.00    +0.000 NA
ATOM     23  C   UNL     1      22.518   6.795  49.139  0.00  0.00    +0.000 A 
ATOM     24  C   UNL     1      23.613   5.978  49.360  0.00  0.00    +0.000 A 
ATOM     25  N   UNL     1      23.873   4.634  49.153  0.00  0.00    +0.000 N 
BRANCH  17  26
ATOM     26  C   UNL     1      25.798   3.040  49.800  0.00  0.00    +0.000 C 
BRANCH  26  27
ATOM     27  C   UNL     1      25.826   2.487  51.226  0.00  0.00    +0.000 C 
BRANCH  27  29
ATOM     28  C   UNL     1      23.852   2.536  52.895  0.00  0.00    +0.000 C 
ATOM     29  C   UNL     1      24.563   1.805  51.766  0.00  0.00    +0.000 C 
ENDBRANCH  27  29
ENDBRANCH  26  27
ENDBRANCH  17  26
ENDBRANCH  16  25
ENDBRANCH   1  16
TORSDOF 7
ENDMDL
MODEL 7
REMARK VINA RESULT:    -7.291      3.012      5.062
REMARK INTER + INTRA:         -12.264
REMARK INTER:                 -10.966
REMARK INTRA:                  -1.298
REMARK UNBOUND:                -1.990
REMARK  Name = 
REMARK  8 active torsions:
REMARK  status: ('A' for Active; 'I' for Inactive)
REMARK    1  A    between atoms: C_1  and  C_2
REMARK    2  A    between atoms: C_2  and  C_3
REMARK    3  A    between atoms: C_3  and  C_4
REMARK    4  A    between atoms: C_4  and  C_5
REMARK    5  A    between atoms: N_13  and  C_14
REMARK    6  A    between atoms: C_14  and  C_15
REMARK    7  A    between atoms: C_18  and  C_19
REMARK    8  A    between atoms: C_24  and  C_25
REMARK                            x       y       z     vdW  Elec       q    Type
REMARK                         _______ _______ _______ _____ _____    ______ ____
ROOT
ATOM      1  C   UNL     1      23.653   3.753  50.227  0.00  0.00    +0.000 A 
ATOM      2  C   UNL     1      23.986   3.990  51.570  0.00  0.00    +0.000 A 
ATOM      3  C   UNL     1      23.789   3.002  52.554  0.00  0.00    +0.000 A 
ATOM      4  C   UNL     1      23.282   1.736  52.234  0.00  0.00    +0.000 A 
ATOM      5  C   UNL     1      22.899   1.535  50.894  0.00  0.00    +0.000 A 
ATOM      6  C   UNL     1      23.068   2.522  49.913  0.00  0.00    +0.000 A 
ENDROOT
BRANCH   4   7
ATOM      7  C   UNL     1      23.106   0.661  53.249  0.00  0.00    +0.000 A 
ATOM      8  C   UNL     1      21.793   0.342  53.673  0.00  0.00    +0.000 A 
ATOM      9  C   UNL     1      21.528  -0.675  54.596  0.00  0.00    +0.000 A 
ATOM     10  C   UNL     1      22.571  -1.398  55.154  0.00  0.00    +0.000 A 
ATOM     11  C   UNL     1      23.876  -1.102  54.785  0.00  0.00    +0.000 A 
ATOM     12  C   UNL     1      24.155  -0.087  53.837  0.00  0.00    +0.000 A 
BRANCH  12  13
ATOM     13  C   UNL     1      25.582   0.077  53.455  0.00  0.00    +0.000 C 
ATOM     14  O   UNL     1      26.146  -0.368  52.475  0.00  0.00    +0.000 OA
ATOM     15  O   UNL     1      26.247   0.829  54.356  0.00  0.00    +0.000 OA
ENDBRANCH  12  13
ENDBRANCH   4   7
BRANCH   1  16
ATOM     16  C   UNL     1      23.866   4.793  49.155  0.00  0.00    +0.000 C 
BRANCH  16  25
ATOM     17  C   UNL     1      24.258   7.225  49.843  0.00  0.00    +0.000 A 
ATOM     18  N   UNL     1      23.554   8.341  49.870  0.00  0.00    +0.000 NA
ATOM     19  C   UNL     1      22.250   7.984  49.639  0.00  0.00    +0.000 A 
ATOM     20  C   UNL     1      21.104   8.772  49.592  0.00  0.00    +0.000 A 
ATOM     21  N   UNL     1      19.916   8.178  49.353  0.00  0.00    +0.000 NA
ATOM     22  N   UNL     1      19.829   6.816  49.156  0.00  0.00    +0.000 NA
ATOM     23  C   UNL     1      20.920   6.023  49.187  0.00  0.00    +0.000 A 
ATOM     24  C   UNL     1      22.147   6.615  49.435  0.00  0.00    +0.000 A 
ATOM     25  N   UNL     1      23.446   6.144  49.527  0.00  0.00    +0.000 N 
BRANCH  17  26
ATOM     26  C   UNL     1      25.700   7.175  50.249  0.00  0.00    +0.000 C 
BRANCH  26  27
ATOM     27  C   UNL     1      26.726   7.217  49.115  0.00  0.00    +0.000 C 
BRANCH  27  29
ATOM     28  C   UNL     1      28.662   5.673  48.371  0.00  0.00    +0.000 C 
ATOM     29  C   UNL     1      27.160   5.890  48.479  0.00  0.00    +0.000 C 
ENDBRANCH  27  29
ENDBRANCH  26  27
ENDBRANCH  17  26
ENDBRANCH  16  25
ENDBRANCH   1  16
TORSDOF 7
ENDMDL
MODEL 8
REMARK VINA RESULT:    -7.237      3.533      5.879
REMARK INTER + INTRA:         -12.189
REMARK INTER:                 -10.025
REMARK INTRA:                  -2.163
REMARK UNBOUND:                -1.990
REMARK  Name = 
REMARK  8 active torsions:
REMARK  status: ('A' for Active; 'I' for Inactive)
REMARK    1  A    between atoms: C_1  and  C_2
REMARK    2  A    between atoms: C_2  and  C_3
REMARK    3  A    between atoms: C_3  and  C_4
REMARK    4  A    between atoms: C_4  and  C_5
REMARK    5  A    between atoms: N_13  and  C_14
REMARK    6  A    between atoms: C_14  and  C_15
REMARK    7  A    between atoms: C_18  and  C_19
REMARK    8  A    between atoms: C_24  and  C_25
REMARK                            x       y       z     vdW  Elec       q    Type
REMARK                         _______ _______ _______ _____ _____    ______ ____
ROOT
ATOM      1  C   UNL     1      21.690   3.900  51.646  0.00  0.00    +0.000 A 
ATOM      2  C   UNL     1      22.695   4.583  52.348  0.00  0.00    +0.000 A 
ATOM      3  C   UNL     1      23.891   4.969  51.714  0.00  0.00    +0.000 A 
ATOM      4  C   UNL     1      24.120   4.713  50.356  0.00  0.00    +0.000 A 
ATOM      5  C   UNL     1      23.128   3.976  49.681  0.00  0.00    +0.000 A 
ATOM      6  C   UNL     1      21.945   3.566  50.312  0.00  0.00    +0.000 A 
ENDROOT
BRANCH   4   7
ATOM      7  C   UNL     1      25.359   5.149  49.654  0.00  0.00    +0.000 A 
ATOM      8  C   UNL     1      26.402   4.207  49.480  0.00  0.00    +0.000 A 
ATOM      9  C   UNL     1      27.588   4.516  48.803  0.00  0.00    +0.000 A 
ATOM     10  C   UNL     1      27.788   5.790  48.296  0.00  0.00    +0.000 A 
ATOM     11  C   UNL     1      26.801   6.751  48.465  0.00  0.00    +0.000 A 
ATOM     12  C   UNL     1      25.589   6.444  49.131  0.00  0.00    +0.000 A 
BRANCH  12  13
ATOM     13  C   UNL     1      24.572   7.528  49.171  0.00  0.00    +0.000 C 
ATOM     14  O   UNL     1      23.762   7.821  48.315  0.00  0.00    +0.000 OA
ATOM     15  O   UNL     1      24.624   8.207  50.336  0.00  0.00    +0.000 OA
ENDBRANCH  12  13
ENDBRANCH   4   7
BRANCH   1  16
ATOM     16  C   UNL     1      20.395   3.488  52.302  0.00  0.00    +0.000 C 
BRANCH  16  25
ATOM     17  C   UNL     1      20.574   0.962  52.660  0.00  0.00    +0.000 A 
ATOM     18  N   UNL     1      19.819  -0.096  52.429  0.00  0.00    +0.000 NA
ATOM     19  C   UNL     1      18.791   0.326  51.625  0.00  0.00    +0.000 A 
ATOM     20  C   UNL     1      17.738  -0.395  51.071  0.00  0.00    +0.000 A 
ATOM     21  N   UNL     1      16.844   0.253  50.295  0.00  0.00    +0.000 NA
ATOM     22  N   UNL     1      16.961   1.606  50.052  0.00  0.00    +0.000 NA
ATOM     23  C   UNL     1      17.965   2.337  50.581  0.00  0.00    +0.000 A 
ATOM     24  C   UNL     1      18.894   1.687  51.376  0.00  0.00    +0.000 A 
ATOM     25  N   UNL     1      20.017   2.093  52.077  0.00  0.00    +0.000 N 
BRANCH  17  26
ATOM     26  C   UNL     1      21.906   0.866  53.338  0.00  0.00    +0.000 C 
BRANCH  26  27
ATOM     27  C   UNL     1      23.129   0.776  52.423  0.00  0.00    +0.000 C 
BRANCH  27  29
ATOM     28  C   UNL     1      25.660   1.144  52.048  0.00  0.00    +0.000 C 
ATOM     29  C   UNL     1      24.419   1.479  52.862  0.00  0.00    +0.000 C 
ENDBRANCH  27  29
ENDBRANCH  26  27
ENDBRANCH  17  26
ENDBRANCH  16  25
ENDBRANCH   1  16
TORSDOF 7
ENDMDL
MODEL 9
REMARK VINA RESULT:    -7.100      2.068      2.863
REMARK INTER + INTRA:         -11.996
REMARK INTER:                 -10.651
REMARK INTRA:                  -1.345
REMARK UNBOUND:                -1.990
REMARK  Name = 
REMARK  8 active torsions:
REMARK  status: ('A' for Active; 'I' for Inactive)
REMARK    1  A    between atoms: C_1  and  C_2
REMARK    2  A    between atoms: C_2  and  C_3
REMARK    3  A    between atoms: C_3  and  C_4
REMARK    4  A    between atoms: C_4  and  C_5
REMARK    5  A    between atoms: N_13  and  C_14
REMARK    6  A    between atoms: C_14  and  C_15
REMARK    7  A    between atoms: C_18  and  C_19
REMARK    8  A    between atoms: C_24  and  C_25
REMARK                            x       y       z     vdW  Elec       q    Type
REMARK                         _______ _______ _______ _____ _____    ______ ____
ROOT
ATOM      1  C   UNL     1      24.064   2.680  50.198  0.00  0.00    +0.000 A 
ATOM      2  C   UNL     1      25.395   3.003  49.891  0.00  0.00    +0.000 A 
ATOM      3  C   UNL     1      26.449   2.633  50.747  0.00  0.00    +0.000 A 
ATOM      4  C   UNL     1      26.223   1.908  51.923  0.00  0.00    +0.000 A 
ATOM      5  C   UNL     1      24.878   1.644  52.247  0.00  0.00    +0.000 A 
ATOM      6  C   UNL     1      23.820   2.030  51.412  0.00  0.00    +0.000 A 
ENDROOT
BRANCH   4   7
ATOM      7  C   UNL     1      27.325   1.469  52.822  0.00  0.00    +0.000 A 
ATOM      8  C   UNL     1      28.238   2.443  53.295  0.00  0.00    +0.000 A 
ATOM      9  C   UNL     1      29.285   2.131  54.170  0.00  0.00    +0.000 A 
ATOM     10  C   UNL     1      29.476   0.822  54.586  0.00  0.00    +0.000 A 
ATOM     11  C   UNL     1      28.619  -0.169  54.128  0.00  0.00    +0.000 A 
ATOM     12  C   UNL     1      27.544   0.140  53.257  0.00  0.00    +0.000 A 
BRANCH  12  13
ATOM     13  C   UNL     1      26.641  -0.988  52.907  0.00  0.00    +0.000 C 
ATOM     14  O   UNL     1      26.696  -1.710  51.932  0.00  0.00    +0.000 OA
ATOM     15  O   UNL     1      25.687  -1.160  53.844  0.00  0.00    +0.000 OA
ENDBRANCH  12  13
ENDBRANCH   4   7
BRANCH   1  16
ATOM     16  C   UNL     1      22.919   3.055  49.289  0.00  0.00    +0.000 C 
BRANCH  16  25
ATOM     17  C   UNL     1      20.989   4.040  50.647  0.00  0.00    +0.000 A 
ATOM     18  N   UNL     1      20.638   5.233  51.091  0.00  0.00    +0.000 NA
ATOM     19  C   UNL     1      21.456   6.138  50.466  0.00  0.00    +0.000 A 
ATOM     20  C   UNL     1      21.485   7.527  50.557  0.00  0.00    +0.000 A 
ATOM     21  N   UNL     1      22.392   8.207  49.824  0.00  0.00    +0.000 NA
ATOM     22  N   UNL     1      23.280   7.548  49.000  0.00  0.00    +0.000 NA
ATOM     23  C   UNL     1      23.285   6.203  48.895  0.00  0.00    +0.000 A 
ATOM     24  C   UNL     1      22.358   5.488  49.635  0.00  0.00    +0.000 A 
ATOM     25  N   UNL     1      22.077   4.141  49.790  0.00  0.00    +0.000 N 
BRANCH  17  26
ATOM     26  C   UNL     1      20.195   2.806  50.948  0.00  0.00    +0.000 C 
BRANCH  26  27
ATOM     27  C   UNL     1      20.209   2.326  52.400  0.00  0.00    +0.000 C 
BRANCH  27  29
ATOM     28  C   UNL     1      21.381   0.481  53.780  0.00  0.00    +0.000 C 
ATOM     29  C   UNL     1      20.401   0.829  52.669  0.00  0.00    +0.000 C 
ENDBRANCH  27  29
ENDBRANCH  26  27
ENDBRANCH  17  26
ENDBRANCH  16  25
ENDBRANCH   1  16
TORSDOF 7
ENDMDL
