MODEL 1
REMARK VINA RESULT:    -8.155      0.000      0.000
REMARK INTER + INTRA:          -9.740
REMARK INTER:                  -9.347
REMARK INTRA:                  -0.393
REMARK UNBOUND:                -0.393
REMARK  Name = 
REMARK  8 active torsions:
REMARK  status: ('A' for Active; 'I' for Inactive)
REMARK    1  A    between atoms: C_1  and  C_2
REMARK    2  A    between atoms: C_2  and  C_3
REMARK    3  A    between atoms: C_3  and  C_4
REMARK    4  A    between atoms: C_16  and  C_17
REMARK    5  A    between atoms: C_16  and  C_18
REMARK    6  A    between atoms: C_22  and  C_23
REMARK    7  A    between atoms: C_24  and  C_25
REMARK    8  A    between atoms: C_26  and  O_27
REMARK                            x       y       z     vdW  Elec       q    Type
REMARK                         _______ _______ _______ _____ _____    ______ ____
ROOT
ATOM      1  C   UNL     1      22.454   1.542  52.902  0.00  0.00    +0.000 A 
ATOM      2  C   UNL     1      22.105   0.535  53.734  0.00  0.00    +0.000 A 
ATOM      3  C   UNL     1      22.783  -0.765  53.777  0.00  0.00    +0.000 A 
ATOM      4  O   UNL     1      22.393  -1.690  54.480  0.00  0.00    +0.000 OA
ATOM      5  O   UNL     1      23.915  -0.843  53.025  0.00  0.00    +0.000 OA
ATOM      6  C   UNL     1      24.451   0.356  52.558  0.00  0.00    +0.000 A 
ATOM      7  C   UNL     1      25.786   0.558  52.804  0.00  0.00    +0.000 A 
ATOM      8  C   UNL     1      26.476   1.456  52.018  0.00  0.00    +0.000 A 
ATOM      9  C   UNL     1      25.762   2.251  51.120  0.00  0.00    +0.000 A 
ATOM     10  C   UNL     1      24.350   2.322  51.230  0.00  0.00    +0.000 A 
ATOM     11  C   UNL     1      23.688   1.402  52.081  0.00  0.00    +0.000 A 
ATOM     12  O   UNL     1      23.622   3.240  50.500  0.00  0.00    +0.000 OA
ATOM     13  C   UNL     1      24.334   4.237  49.708  0.00  0.00    +0.000 C 
ATOM     14  C   UNL     1      23.620   4.393  48.353  0.00  0.00    +0.000 C 
ATOM     15  C   UNL     1      24.251   5.565  50.469  0.00  0.00    +0.000 C 
ATOM     16  C   UNL     1      25.785   3.941  49.428  0.00  0.00    +0.000 C 
ATOM     17  C   UNL     1      26.465   3.019  50.107  0.00  0.00    +0.000 C 
ATOM     18  O   UNL     1      27.838   1.568  52.091  0.00  0.00    +0.000 OA
ATOM     19  C   UNL     1      28.470   1.078  53.291  0.00  0.00    +0.000 C 
ATOM     20  C   UNL     1      28.562   2.232  54.296  0.00  0.00    +0.000 C 
ATOM     21  C   UNL     1      27.844  -0.205  53.871  0.00  0.00    +0.000 C 
ATOM     22  C   UNL     1      28.055  -1.421  52.958  0.00  0.00    +0.000 C 
ATOM     23  C   UNL     1      26.359  -0.007  54.064  0.00  0.00    +0.000 C 
ENDROOT
BRANCH  23  24
ATOM     24  O   UNL     1      26.083   0.902  55.134  0.00  0.00    +0.000 OA
ATOM     25  H   UNL     1      25.960   0.404  55.957  0.00  0.00    +0.000 HD
ENDBRANCH  23  24
BRANCH   1  26
ATOM     26  C   UNL     1      21.808   2.876  53.137  0.00  0.00    +0.000 C 
BRANCH  26  28
ATOM     27  C   UNL     1      20.483   4.169  51.447  0.00  0.00    +0.000 C 
ATOM     28  C   UNL     1      20.470   3.002  52.423  0.00  0.00    +0.000 C 
ENDBRANCH  26  28
ENDBRANCH   1  26
TORSDOF 3
ENDMDL
MODEL 2
REMARK VINA RESULT:    -7.939      1.908      5.272
REMARK INTER + INTRA:          -9.492
REMARK INTER:                  -9.093
REMARK INTRA:                  -0.399
REMARK UNBOUND:                -0.393
REMARK  Name = 
REMARK  8 active torsions:
REMARK  status: ('A' for Active; 'I' for Inactive)
REMARK    1  A    between atoms: C_1  and  C_2
REMARK    2  A    between atoms: C_2  and  C_3
REMARK    3  A    between atoms: C_3  and  C_4
REMARK    4  A    between atoms: C_16  and  C_17
REMARK    5  A    between atoms: C_16  and  C_18
REMARK    6  A    between atoms: C_22  and  C_23
REMARK    7  A    between atoms: C_24  and  C_25
REMARK    8  A    between atoms: C_26  and  O_27
REMARK                            x       y       z     vdW  Elec       q    Type
REMARK                         _______ _______ _______ _____ _____    ______ ____
ROOT
ATOM      1  C   UNL     1      25.605   2.659  50.960  0.00  0.00    +0.000 A 
ATOM      2  C   UNL     1      26.215   1.531  51.391  0.00  0.00    +0.000 A 
ATOM      3  C   UNL     1      25.875   0.841  52.640  0.00  0.00    +0.000 A 
ATOM      4  O   UNL     1      26.501  -0.130  53.049  0.00  0.00    +0.000 OA
ATOM      5  O   UNL     1      24.772   1.323  53.276  0.00  0.00    +0.000 OA
ATOM      6  C   UNL     1      23.946   2.181  52.552  0.00  0.00    +0.000 A 
ATOM      7  C   UNL     1      22.611   1.864  52.536  0.00  0.00    +0.000 A 
ATOM      8  C   UNL     1      21.698   2.856  52.249  0.00  0.00    +0.000 A 
ATOM      9  C   UNL     1      22.168   4.097  51.817  0.00  0.00    +0.000 A 
ATOM     10  C   UNL     1      23.523   4.224  51.418  0.00  0.00    +0.000 A 
ATOM     11  C   UNL     1      24.416   3.161  51.702  0.00  0.00    +0.000 A 
ATOM     12  O   UNL     1      23.982   5.371  50.801  0.00  0.00    +0.000 OA
ATOM     13  C   UNL     1      23.023   6.407  50.434  0.00  0.00    +0.000 C 
ATOM     14  C   UNL     1      23.634   7.782  50.763  0.00  0.00    +0.000 C 
ATOM     15  C   UNL     1      22.806   6.310  48.921  0.00  0.00    +0.000 C 
ATOM     16  C   UNL     1      21.680   6.330  51.112  0.00  0.00    +0.000 C 
ATOM     17  C   UNL     1      21.266   5.235  51.747  0.00  0.00    +0.000 C 
ATOM     18  O   UNL     1      20.353   2.652  52.395  0.00  0.00    +0.000 OA
ATOM     19  C   UNL     1      19.898   1.283  52.409  0.00  0.00    +0.000 C 
ATOM     20  C   UNL     1      19.561   0.869  50.972  0.00  0.00    +0.000 C 
ATOM     21  C   UNL     1      20.836   0.301  53.137  0.00  0.00    +0.000 C 
ATOM     22  C   UNL     1      20.897   0.565  54.648  0.00  0.00    +0.000 C 
ATOM     23  C   UNL     1      22.234   0.418  52.577  0.00  0.00    +0.000 C 
ENDROOT
BRANCH  23  24
ATOM     24  O   UNL     1      22.315  -0.109  51.249  0.00  0.00    +0.000 OA
ATOM     25  H   UNL     1      22.450  -1.068  51.290  0.00  0.00    +0.000 HD
ENDBRANCH  23  24
BRANCH   1  26
ATOM     26  C   UNL     1      25.914   3.110  49.563  0.00  0.00    +0.000 C 
BRANCH  26  28
ATOM     27  C   UNL     1      26.661   5.376  48.792  0.00  0.00    +0.000 C 
ATOM     28  C   UNL     1      27.067   4.103  49.521  0.00  0.00    +0.000 C 
ENDBRANCH  26  28
ENDBRANCH   1  26
TORSDOF 3
ENDMDL
MODEL 3
REMARK VINA RESULT:    -7.820      1.548      1.946
REMARK INTER + INTRA:          -9.355
REMARK INTER:                  -8.994
REMARK INTRA:                  -0.362
REMARK UNBOUND:                -0.393
REMARK  Name = 
REMARK  8 active torsions:
REMARK  status: ('A' for Active; 'I' for Inactive)
REMARK    1  A    between atoms: C_1  and  C_2
REMARK    2  A    between atoms: C_2  and  C_3
REMARK    3  A    between atoms: C_3  and  C_4
REMARK    4  A    between atoms: C_16  and  C_17
REMARK    5  A    between atoms: C_16  and  C_18
REMARK    6  A    between atoms: C_22  and  C_23
REMARK    7  A    between atoms: C_24  and  C_25
REMARK    8  A    between atoms: C_26  and  O_27
REMARK                            x       y       z     vdW  Elec       q    Type
REMARK                         _______ _______ _______ _____ _____    ______ ____
ROOT
ATOM      1  C   UNL     1      22.160   3.459  51.783  0.00  0.00    +0.000 A 
ATOM      2  C   UNL     1      21.417   2.528  52.423  0.00  0.00    +0.000 A 
ATOM      3  C   UNL     1      21.668   1.085  52.348  0.00  0.00    +0.000 A 
ATOM      4  O   UNL     1      20.929   0.258  52.868  0.00  0.00    +0.000 OA
ATOM      5  O   UNL     1      22.821   0.739  51.711  0.00  0.00    +0.000 OA
ATOM      6  C   UNL     1      23.747   1.755  51.478  0.00  0.00    +0.000 A 
ATOM      7  C   UNL     1      25.033   1.505  51.885  0.00  0.00    +0.000 A 
ATOM      8  C   UNL     1      26.061   2.222  51.310  0.00  0.00    +0.000 A 
ATOM      9  C   UNL     1      25.746   3.289  50.467  0.00  0.00    +0.000 A 
ATOM     10  C   UNL     1      24.417   3.784  50.442  0.00  0.00    +0.000 A 
ATOM     11  C   UNL     1      23.401   3.030  51.080  0.00  0.00    +0.000 A 
ATOM     12  O   UNL     1      24.102   4.954  49.780  0.00  0.00    +0.000 OA
ATOM     13  C   UNL     1      25.181   5.758  49.216  0.00  0.00    +0.000 C 
ATOM     14  C   UNL     1      24.742   6.270  47.832  0.00  0.00    +0.000 C 
ATOM     15  C   UNL     1      25.387   6.958  50.146  0.00  0.00    +0.000 C 
ATOM     16  C   UNL     1      26.504   5.057  49.045  0.00  0.00    +0.000 C 
ATOM     17  C   UNL     1      26.780   3.904  49.651  0.00  0.00    +0.000 C 
ATOM     18  O   UNL     1      27.370   1.898  51.536  0.00  0.00    +0.000 OA
ATOM     19  C   UNL     1      27.656   1.112  52.711  0.00  0.00    +0.000 C 
ATOM     20  C   UNL     1      27.941   2.068  53.875  0.00  0.00    +0.000 C 
ATOM     21  C   UNL     1      26.604   0.033  53.035  0.00  0.00    +0.000 C 
ATOM     22  C   UNL     1      26.573  -1.084  51.983  0.00  0.00    +0.000 C 
ATOM     23  C   UNL     1      25.231   0.661  53.102  0.00  0.00    +0.000 C 
ENDROOT
BRANCH  23  24
ATOM     24  O   UNL     1      25.089   1.493  54.258  0.00  0.00    +0.000 OA
ATOM     25  H   UNL     1      24.343   1.178  54.793  0.00  0.00    +0.000 HD
ENDBRANCH  23  24
BRANCH   1  26
ATOM     26  C   UNL     1      21.911   4.895  52.140  0.00  0.00    +0.000 C 
BRANCH  26  28
ATOM     27  C   UNL     1      21.646   7.057  50.899  0.00  0.00    +0.000 C 
ATOM     28  C   UNL     1      21.137   5.631  51.056  0.00  0.00    +0.000 C 
ENDBRANCH  26  28
ENDBRANCH   1  26
TORSDOF 3
ENDMDL
MODEL 4
REMARK VINA RESULT:    -7.636      2.211      4.855
REMARK INTER + INTRA:          -9.145
REMARK INTER:                  -8.821
REMARK INTRA:                  -0.324
REMARK UNBOUND:                -0.393
REMARK  Name = 
REMARK  8 active torsions:
REMARK  status: ('A' for Active; 'I' for Inactive)
REMARK    1  A    between atoms: C_1  and  C_2
REMARK    2  A    between atoms: C_2  and  C_3
REMARK    3  A    between atoms: C_3  and  C_4
REMARK    4  A    between atoms: C_16  and  C_17
REMARK    5  A    between atoms: C_16  and  C_18
REMARK    6  A    between atoms: C_22  and  C_23
REMARK    7  A    between atoms: C_24  and  C_25
REMARK    8  A    between atoms: C_26  and  O_27
REMARK                            x       y       z     vdW  Elec       q    Type
REMARK                         _______ _______ _______ _____ _____    ______ ____
ROOT
ATOM      1  C   UNL     1      22.377   0.071  53.309  0.00  0.00    +0.000 A 
ATOM      2  C   UNL     1      23.571  -0.264  53.848  0.00  0.00    +0.000 A 
ATOM      3  C   UNL     1      24.848  -0.172  53.133  0.00  0.00    +0.000 A 
ATOM      4  O   UNL     1      25.904  -0.564  53.616  0.00  0.00    +0.000 OA
ATOM      5  O   UNL     1      24.780   0.440  51.919  0.00  0.00    +0.000 OA
ATOM      6  C   UNL     1      23.616   1.152  51.632  0.00  0.00    +0.000 A 
ATOM      7  C   UNL     1      23.789   2.441  51.193  0.00  0.00    +0.000 A 
ATOM      8  C   UNL     1      22.773   3.039  50.480  0.00  0.00    +0.000 A 
ATOM      9  C   UNL     1      21.545   2.382  50.378  0.00  0.00    +0.000 A 
ATOM     10  C   UNL     1      21.280   1.276  51.224  0.00  0.00    +0.000 A 
ATOM     11  C   UNL     1      22.350   0.718  51.968  0.00  0.00    +0.000 A 
ATOM     12  O   UNL     1      20.018   0.721  51.301  0.00  0.00    +0.000 OA
ATOM     13  C   UNL     1      18.916   1.373  50.602  0.00  0.00    +0.000 C 
ATOM     14  C   UNL     1      18.042   0.291  49.942  0.00  0.00    +0.000 C 
ATOM     15  C   UNL     1      18.083   2.111  51.655  0.00  0.00    +0.000 C 
ATOM     16  C   UNL     1      19.309   2.359  49.531  0.00  0.00    +0.000 C 
ATOM     17  C   UNL     1      20.542   2.852  49.437  0.00  0.00    +0.000 C 
ATOM     18  O   UNL     1      22.950   4.247  49.862  0.00  0.00    +0.000 OA
ATOM     19  C   UNL     1      24.033   5.072  50.339  0.00  0.00    +0.000 C 
ATOM     20  C   UNL     1      23.492   5.988  51.443  0.00  0.00    +0.000 C 
ATOM     21  C   UNL     1      25.304   4.299  50.738  0.00  0.00    +0.000 C 
ATOM     22  C   UNL     1      25.994   3.649  49.530  0.00  0.00    +0.000 C 
ATOM     23  C   UNL     1      24.953   3.212  51.726  0.00  0.00    +0.000 C 
ENDROOT
BRANCH  23  24
ATOM     24  O   UNL     1      24.591   3.755  53.000  0.00  0.00    +0.000 OA
ATOM     25  H   UNL     1      24.841   4.691  53.035  0.00  0.00    +0.000 HD
ENDBRANCH  23  24
BRANCH   1  26
ATOM     26  C   UNL     1      21.201   0.131  54.239  0.00  0.00    +0.000 C 
BRANCH  26  28
ATOM     27  C   UNL     1      19.196  -1.257  53.657  0.00  0.00    +0.000 C 
ATOM     28  C   UNL     1      20.524  -1.223  54.399  0.00  0.00    +0.000 C 
ENDBRANCH  26  28
ENDBRANCH   1  26
TORSDOF 3
ENDMDL
MODEL 5
REMARK VINA RESULT:    -7.482      2.203      5.757
REMARK INTER + INTRA:          -8.968
REMARK INTER:                  -8.598
REMARK INTRA:                  -0.370
REMARK UNBOUND:                -0.393
REMARK  Name = 
REMARK  8 active torsions:
REMARK  status: ('A' for Active; 'I' for Inactive)
REMARK    1  A    between atoms: C_1  and  C_2
REMARK    2  A    between atoms: C_2  and  C_3
REMARK    3  A    between atoms: C_3  and  C_4
REMARK    4  A    between atoms: C_16  and  C_17
REMARK    5  A    between atoms: C_16  and  C_18
REMARK    6  A    between atoms: C_22  and  C_23
REMARK    7  A    between atoms: C_24  and  C_25
REMARK    8  A    between atoms: C_26  and  O_27
REMARK                            x       y       z     vdW  Elec       q    Type
REMARK                         _______ _______ _______ _____ _____    ______ ____
ROOT
ATOM      1  C   UNL     1      21.443   0.051  52.909  0.00  0.00    +0.000 A 
ATOM      2  C   UNL     1      20.092   0.072  52.847  0.00  0.00    +0.000 A 
ATOM      3  C   UNL     1      19.305   1.254  52.481  0.00  0.00    +0.000 A 
ATOM      4  O   UNL     1      18.081   1.270  52.515  0.00  0.00    +0.000 OA
ATOM      5  O   UNL     1      20.040   2.312  52.039  0.00  0.00    +0.000 OA
ATOM      6  C   UNL     1      21.371   2.067  51.707  0.00  0.00    +0.000 A 
ATOM      7  C   UNL     1      21.778   2.507  50.473  0.00  0.00    +0.000 A 
ATOM      8  C   UNL     1      23.123   2.713  50.253  0.00  0.00    +0.000 A 
ATOM      9  C   UNL     1      24.034   2.305  51.230  0.00  0.00    +0.000 A 
ATOM     10  C   UNL     1      23.594   1.452  52.274  0.00  0.00    +0.000 A 
ATOM     11  C   UNL     1      22.202   1.241  52.436  0.00  0.00    +0.000 A 
ATOM     12  O   UNL     1      24.492   0.866  53.143  0.00  0.00    +0.000 OA
ATOM     13  C   UNL     1      25.921   1.022  52.894  0.00  0.00    +0.000 C 
ATOM     14  C   UNL     1      26.630   1.279  54.237  0.00  0.00    +0.000 C 
ATOM     15  C   UNL     1      26.427  -0.301  52.310  0.00  0.00    +0.000 C 
ATOM     16  C   UNL     1      26.307   2.135  51.954  0.00  0.00    +0.000 C 
ATOM     17  C   UNL     1      25.423   2.726  51.153  0.00  0.00    +0.000 C 
ATOM     18  O   UNL     1      23.575   3.320  49.113  0.00  0.00    +0.000 OA
ATOM     19  C   UNL     1      22.686   3.322  47.978  0.00  0.00    +0.000 C 
ATOM     20  C   UNL     1      22.970   2.072  47.138  0.00  0.00    +0.000 C 
ATOM     21  C   UNL     1      21.197   3.513  48.327  0.00  0.00    +0.000 C 
ATOM     22  C   UNL     1      20.903   4.914  48.882  0.00  0.00    +0.000 C 
ATOM     23  C   UNL     1      20.779   2.494  49.361  0.00  0.00    +0.000 C 
ENDROOT
BRANCH  23  24
ATOM     24  O   UNL     1      20.732   1.174  48.811  0.00  0.00    +0.000 OA
ATOM     25  H   UNL     1      20.930   1.212  47.862  0.00  0.00    +0.000 HD
ENDBRANCH  23  24
BRANCH   1  26
ATOM     26  C   UNL     1      22.098  -1.288  53.080  0.00  0.00    +0.000 C 
BRANCH  26  28
ATOM     27  C   UNL     1      23.073  -1.414  55.387  0.00  0.00    +0.000 C 
ATOM     28  C   UNL     1      21.921  -1.839  54.488  0.00  0.00    +0.000 C 
ENDBRANCH  26  28
ENDBRANCH   1  26
TORSDOF 3
ENDMDL
MODEL 6
REMARK VINA RESULT:    -7.305      2.098      6.899
REMARK INTER + INTRA:          -8.765
REMARK INTER:                  -8.388
REMARK INTRA:                  -0.378
REMARK UNBOUND:                -0.393
REMARK  Name = 
REMARK  8 active torsions:
REMARK  status: ('A' for Active; 'I' for Inactive)
REMARK    1  A    between atoms: C_1  and  C_2
REMARK    2  A    between atoms: C_2  and  C_3
REMARK    3  A    between atoms: C_3  and  C_4
REMARK    4  A    between atoms: C_16  and  C_17
REMARK    5  A    between atoms: C_16  and  C_18
REMARK    6  A    between atoms: C_22  and  C_23
REMARK    7  A    between atoms: C_24  and  C_25
REMARK    8  A    between atoms: C_26  and  O_27
REMARK                            x       y       z     vdW  Elec       q    Type
REMARK                         _______ _______ _______ _____ _____    ______ ____
ROOT
ATOM      1  C   UNL     1      24.793   2.494  51.932  0.00  0.00    +0.000 A 
ATOM      2  C   UNL     1      25.672   3.232  51.217  0.00  0.00    +0.000 A 
ATOM      3  C   UNL     1      25.620   3.386  49.760  0.00  0.00    +0.000 A 
ATOM      4  O   UNL     1      26.478   3.990  49.128  0.00  0.00    +0.000 OA
ATOM      5  O   UNL     1      24.510   2.860  49.171  0.00  0.00    +0.000 OA
ATOM      6  C   UNL     1      23.449   2.519  50.007  0.00  0.00    +0.000 A 
ATOM      7  C   UNL     1      22.219   3.016  49.656  0.00  0.00    +0.000 A 
ATOM      8  C   UNL     1      21.089   2.387  50.133  0.00  0.00    +0.000 A 
ATOM      9  C   UNL     1      21.234   1.380  51.089  0.00  0.00    +0.000 A 
ATOM     10  C   UNL     1      22.481   1.222  51.745  0.00  0.00    +0.000 A 
ATOM     11  C   UNL     1      23.607   1.919  51.240  0.00  0.00    +0.000 A 
ATOM     12  O   UNL     1      22.617   0.378  52.829  0.00  0.00    +0.000 OA
ATOM     13  C   UNL     1      21.425  -0.251  53.388  0.00  0.00    +0.000 C 
ATOM     14  C   UNL     1      21.756  -1.714  53.733  0.00  0.00    +0.000 C 
ATOM     15  C   UNL     1      21.078   0.497  54.679  0.00  0.00    +0.000 C 
ATOM     16  C   UNL     1      20.207  -0.255  52.500  0.00  0.00    +0.000 C 
ATOM     17  C   UNL     1      20.106   0.528  51.428  0.00  0.00    +0.000 C 
ATOM     18  O   UNL     1      19.842   2.718  49.678  0.00  0.00    +0.000 OA
ATOM     19  C   UNL     1      19.696   4.009  49.053  0.00  0.00    +0.000 C 
ATOM     20  C   UNL     1      19.310   5.028  50.131  0.00  0.00    +0.000 C 
ATOM     21  C   UNL     1      20.894   4.444  48.185  0.00  0.00    +0.000 C 
ATOM     22  C   UNL     1      21.052   3.571  46.932  0.00  0.00    +0.000 C 
ATOM     23  C   UNL     1      22.168   4.354  48.991  0.00  0.00    +0.000 C 
ENDROOT
BRANCH  23  24
ATOM     24  O   UNL     1      22.223   5.364  50.003  0.00  0.00    +0.000 OA
ATOM     25  H   UNL     1      21.451   5.944  49.923  0.00  0.00    +0.000 HD
ENDBRANCH  23  24
BRANCH   1  26
ATOM     26  C   UNL     1      24.852   2.620  53.426  0.00  0.00    +0.000 C 
BRANCH  26  28
ATOM     27  C   UNL     1      25.862   0.406  54.030  0.00  0.00    +0.000 C 
ATOM     28  C   UNL     1      26.065   1.914  54.016  0.00  0.00    +0.000 C 
ENDBRANCH  26  28
ENDBRANCH   1  26
TORSDOF 3
ENDMDL
MODEL 7
REMARK VINA RESULT:    -7.247      3.304      8.046
REMARK INTER + INTRA:          -8.699
REMARK INTER:                  -8.325
REMARK INTRA:                  -0.374
REMARK UNBOUND:                -0.393
REMARK  Name = 
REMARK  8 active torsions:
REMARK  status: ('A' for Active; 'I' for Inactive)
REMARK    1  A    between atoms: C_1  and  C_2
REMARK    2  A    between atoms: C_2  and  C_3
REMARK    3  A    between atoms: C_3  and  C_4
REMARK    4  A    between atoms: C_16  and  C_17
REMARK    5  A    between atoms: C_16  and  C_18
REMARK    6  A    between atoms: C_22  and  C_23
REMARK    7  A    between atoms: C_24  and  C_25
REMARK    8  A    between atoms: C_26  and  O_27
REMARK                            x       y       z     vdW  Elec       q    Type
REMARK                         _______ _______ _______ _____ _____    ______ ____
ROOT
ATOM      1  C   UNL     1      22.584   1.867  50.456  0.00  0.00    +0.000 A 
ATOM      2  C   UNL     1      22.839   2.537  49.310  0.00  0.00    +0.000 A 
ATOM      3  C   UNL     1      22.008   2.447  48.104  0.00  0.00    +0.000 A 
ATOM      4  O   UNL     1      22.309   2.998  47.052  0.00  0.00    +0.000 OA
ATOM      5  O   UNL     1      20.845   1.757  48.264  0.00  0.00    +0.000 OA
ATOM      6  C   UNL     1      20.443   1.484  49.570  0.00  0.00    +0.000 A 
ATOM      7  C   UNL     1      19.154   1.831  49.890  0.00  0.00    +0.000 A 
ATOM      8  C   UNL     1      18.549   1.211  50.963  0.00  0.00    +0.000 A 
ATOM      9  C   UNL     1      19.319   0.386  51.785  0.00  0.00    +0.000 A 
ATOM     10  C   UNL     1      20.732   0.424  51.675  0.00  0.00    +0.000 A 
ATOM     11  C   UNL     1      21.309   1.106  50.576  0.00  0.00    +0.000 A 
ATOM     12  O   UNL     1      21.537  -0.219  52.594  0.00  0.00    +0.000 OA
ATOM     13  C   UNL     1      20.922  -0.830  53.767  0.00  0.00    +0.000 C 
ATOM     14  C   UNL     1      21.594  -2.191  54.024  0.00  0.00    +0.000 C 
ATOM     15  C   UNL     1      21.198   0.093  54.958  0.00  0.00    +0.000 C 
ATOM     16  C   UNL     1      19.435  -1.063  53.683  0.00  0.00    +0.000 C 
ATOM     17  C   UNL     1      18.674  -0.475  52.763  0.00  0.00    +0.000 C 
ATOM     18  O   UNL     1      17.216   1.376  51.222  0.00  0.00    +0.000 OA
ATOM     19  C   UNL     1      16.577   2.534  50.648  0.00  0.00    +0.000 C 
ATOM     20  C   UNL     1      16.669   3.687  51.655  0.00  0.00    +0.000 C 
ATOM     21  C   UNL     1      17.063   2.903  49.233  0.00  0.00    +0.000 C 
ATOM     22  C   UNL     1      16.666   1.851  48.188  0.00  0.00    +0.000 C 
ATOM     23  C   UNL     1      18.568   3.035  49.227  0.00  0.00    +0.000 C 
ENDROOT
BRANCH  23  24
ATOM     24  O   UNL     1      18.997   4.199  49.942  0.00  0.00    +0.000 OA
ATOM     25  H   UNL     1      18.405   4.939  49.739  0.00  0.00    +0.000 HD
ENDBRANCH  23  24
BRANCH   1  26
ATOM     26  C   UNL     1      23.398   2.239  51.660  0.00  0.00    +0.000 C 
BRANCH  26  28
ATOM     27  C   UNL     1      24.830   0.462  52.698  0.00  0.00    +0.000 C 
ATOM     28  C   UNL     1      24.766   1.572  51.659  0.00  0.00    +0.000 C 
ENDBRANCH  26  28
ENDBRANCH   1  26
TORSDOF 3
ENDMDL
MODEL 8
REMARK VINA RESULT:    -7.131      2.782      6.394
REMARK INTER + INTRA:          -8.565
REMARK INTER:                  -8.199
REMARK INTRA:                  -0.366
REMARK UNBOUND:                -0.393
REMARK  Name = 
REMARK  8 active torsions:
REMARK  status: ('A' for Active; 'I' for Inactive)
REMARK    1  A    between atoms: C_1  and  C_2
REMARK    2  A    between atoms: C_2  and  C_3
REMARK    3  A    between atoms: C_3  and  C_4
REMARK    4  A    between atoms: C_16  and  C_17
REMARK    5  A    between atoms: C_16  and  C_18
REMARK    6  A    between atoms: C_22  and  C_23
REMARK    7  A    between atoms: C_24  and  C_25
REMARK    8  A    between atoms: C_26  and  O_27
REMARK                            x       y       z     vdW  Elec       q    Type
REMARK                         _______ _______ _______ _____ _____    ______ ____
ROOT
ATOM      1  C   UNL     1      18.810   1.434  51.737  0.00  0.00    +0.000 A 
ATOM      2  C   UNL     1      17.871   2.276  51.248  0.00  0.00    +0.000 A 
ATOM      3  C   UNL     1      17.966   3.738  51.310  0.00  0.00    +0.000 A 
ATOM      4  O   UNL     1      17.063   4.475  50.935  0.00  0.00    +0.000 OA
ATOM      5  O   UNL     1      19.162   4.212  51.757  0.00  0.00    +0.000 OA
ATOM      6  C   UNL     1      20.222   3.310  51.814  0.00  0.00    +0.000 A 
ATOM      7  C   UNL     1      21.388   3.706  51.207  0.00  0.00    +0.000 A 
ATOM      8  C   UNL     1      22.570   3.110  51.592  0.00  0.00    +0.000 A 
ATOM      9  C   UNL     1      22.521   2.013  52.452  0.00  0.00    +0.000 A 
ATOM     10  C   UNL     1      21.279   1.369  52.684  0.00  0.00    +0.000 A 
ATOM     11  C   UNL     1      20.093   2.002  52.237  0.00  0.00    +0.000 A 
ATOM     12  O   UNL     1      21.212   0.169  53.364  0.00  0.00    +0.000 OA
ATOM     13  C   UNL     1      22.453  -0.507  53.727  0.00  0.00    +0.000 C 
ATOM     14  C   UNL     1      22.309  -1.068  55.153  0.00  0.00    +0.000 C 
ATOM     15  C   UNL     1      22.637  -1.673  52.751  0.00  0.00    +0.000 C 
ATOM     16  C   UNL     1      23.698   0.341  53.693  0.00  0.00    +0.000 C 
ATOM     17  C   UNL     1      23.738   1.520  53.075  0.00  0.00    +0.000 C 
ATOM     18  O   UNL     1      23.779   3.583  51.161  0.00  0.00    +0.000 OA
ATOM     19  C   UNL     1      23.776   4.399  49.971  0.00  0.00    +0.000 C 
ATOM     20  C   UNL     1      23.972   3.484  48.756  0.00  0.00    +0.000 C 
ATOM     21  C   UNL     1      22.570   5.351  49.846  0.00  0.00    +0.000 C 
ATOM     22  C   UNL     1      22.587   6.455  50.912  0.00  0.00    +0.000 C 
ATOM     23  C   UNL     1      21.285   4.570  49.992  0.00  0.00    +0.000 C 
ENDROOT
BRANCH  23  24
ATOM     24  O   UNL     1      21.048   3.729  48.858  0.00  0.00    +0.000 OA
ATOM     25  H   UNL     1      20.256   3.192  49.013  0.00  0.00    +0.000 HD
ENDBRANCH  23  24
BRANCH   1  26
ATOM     26  C   UNL     1      18.669  -0.020  51.396  0.00  0.00    +0.000 C 
BRANCH  26  28
ATOM     27  C   UNL     1      18.111  -1.524  53.323  0.00  0.00    +0.000 C 
ATOM     28  C   UNL     1      17.549  -0.689  52.181  0.00  0.00    +0.000 C 
ENDBRANCH  26  28
ENDBRANCH   1  26
TORSDOF 3
ENDMDL
MODEL 9
REMARK VINA RESULT:    -6.863      2.556      6.594
REMARK INTER + INTRA:          -8.258
REMARK INTER:                  -7.920
REMARK INTRA:                  -0.339
REMARK UNBOUND:                -0.393
REMARK  Name = 
REMARK  8 active torsions:
REMARK  status: ('A' for Active; 'I' for Inactive)
REMARK    1  A    between atoms: C_1  and  C_2
REMARK    2  A    between atoms: C_2  and  C_3
REMARK    3  A    between atoms: C_3  and  C_4
REMARK    4  A    between atoms: C_16  and  C_17
REMARK    5  A    between atoms: C_16  and  C_18
REMARK    6  A    between atoms: C_22  and  C_23
REMARK    7  A    between atoms: C_24  and  C_25
REMARK    8  A    between atoms: C_26  and  O_27
REMARK                            x       y       z     vdW  Elec       q    Type
REMARK                         _______ _______ _______ _____ _____    ______ ____
ROOT
ATOM      1  C   UNL     1      22.675   1.707  52.236  0.00  0.00    +0.000 A 
ATOM      2  C   UNL     1      22.191   0.610  52.861  0.00  0.00    +0.000 A 
ATOM      3  C   UNL     1      20.906   0.568  53.567  0.00  0.00    +0.000 A 
ATOM      4  O   UNL     1      20.531  -0.413  54.197  0.00  0.00    +0.000 OA
ATOM      5  O   UNL     1      20.136   1.681  53.416  0.00  0.00    +0.000 OA
ATOM      6  C   UNL     1      20.498   2.571  52.406  0.00  0.00    +0.000 A 
ATOM      7  C   UNL     1      19.500   2.940  51.539  0.00  0.00    +0.000 A 
ATOM      8  C   UNL     1      19.641   4.111  50.827  0.00  0.00    +0.000 A 
ATOM      9  C   UNL     1      20.861   4.788  50.882  0.00  0.00    +0.000 A 
ATOM     10  C   UNL     1      21.994   4.131  51.424  0.00  0.00    +0.000 A 
ATOM     11  C   UNL     1      21.804   2.909  52.115  0.00  0.00    +0.000 A 
ATOM     12  O   UNL     1      23.257   4.680  51.320  0.00  0.00    +0.000 OA
ATOM     13  C   UNL     1      23.438   5.887  50.521  0.00  0.00    +0.000 C 
ATOM     14  C   UNL     1      24.398   6.833  51.266  0.00  0.00    +0.000 C 
ATOM     15  C   UNL     1      24.086   5.464  49.198  0.00  0.00    +0.000 C 
ATOM     16  C   UNL     1      22.184   6.663  50.208  0.00  0.00    +0.000 C 
ATOM     17  C   UNL     1      20.969   6.140  50.357  0.00  0.00    +0.000 C 
ATOM     18  O   UNL     1      18.611   4.625  50.088  0.00  0.00    +0.000 OA
ATOM     19  C   UNL     1      17.561   3.713  49.707  0.00  0.00    +0.000 C 
ATOM     20  C   UNL     1      17.917   3.106  48.345  0.00  0.00    +0.000 C 
ATOM     21  C   UNL     1      17.197   2.667  50.779  0.00  0.00    +0.000 C 
ATOM     22  C   UNL     1      16.546   3.302  52.015  0.00  0.00    +0.000 C 
ATOM     23  C   UNL     1      18.442   1.933  51.221  0.00  0.00    +0.000 C 
ENDROOT
BRANCH  23  24
ATOM     24  O   UNL     1      18.935   1.066  50.195  0.00  0.00    +0.000 OA
ATOM     25  H   UNL     1      18.431   0.238  50.202  0.00  0.00    +0.000 HD
ENDBRANCH  23  24
BRANCH   1  26
ATOM     26  C   UNL     1      23.890   1.523  51.376  0.00  0.00    +0.000 C 
BRANCH  26  28
ATOM     27  C   UNL     1      25.442   2.319  53.177  0.00  0.00    +0.000 C 
ATOM     28  C   UNL     1      25.131   1.198  52.195  0.00  0.00    +0.000 C 
ENDBRANCH  26  28
ENDBRANCH   1  26
TORSDOF 3
ENDMDL
