MODEL 1
REMARK VINA RESULT:    -9.171      0.000      0.000
REMARK INTER + INTRA:         -15.253
REMARK INTER:                 -13.728
REMARK INTRA:                  -1.525
REMARK UNBOUND:                -1.525
REMARK  Name = 
REMARK  10 active torsions:
REMARK  status: ('A' for Active; 'I' for Inactive)
REMARK    1  A    between atoms: C_2  and  C_3
REMARK    2  A    between atoms: C_3  and  N_4
REMARK    3  A    between atoms: N_4  and  C_5
REMARK    4  A    between atoms: N_4  and  C_18
REMARK    5  A    between atoms: C_5  and  C_6
REMARK    6  A    between atoms: C_11  and  C_12
REMARK    7  A    between atoms: C_14  and  O_15
REMARK    8  A    between atoms: C_21  and  C_22
REMARK    9  A    between atoms: N_24  and  C_25
REMARK   10  A    between atoms: C_25  and  C_26
REMARK                            x       y       z     vdW  Elec       q    Type
REMARK                         _______ _______ _______ _____ _____    ______ ____
ROOT
ATOM      1  N   UNL     1      23.498   3.772  51.766  0.00  0.00    +0.000 N 
ENDROOT
BRANCH   1   2
ATOM      2  C   UNL     1      24.412   4.280  50.846  0.00  0.00    +0.000 A 
ATOM      3  C   UNL     1      25.202   3.468  50.016  0.00  0.00    +0.000 A 
ATOM      4  C   UNL     1      26.226   3.991  49.204  0.00  0.00    +0.000 A 
ATOM      5  C   UNL     1      26.472   5.365  49.155  0.00  0.00    +0.000 A 
ATOM      6  C   UNL     1      25.600   6.201  49.845  0.00  0.00    +0.000 A 
ATOM      7  C   UNL     1      24.608   5.662  50.681  0.00  0.00    +0.000 A 
BRANCH   5   8
ATOM      8  C   UNL     1      27.671   5.860  48.401  0.00  0.00    +0.000 C 
ATOM      9  O   UNL     1      27.537   6.711  47.528  0.00  0.00    +0.000 OA
ATOM     10  N   UNL     1      28.889   5.292  48.709  0.00  0.00    +0.000 N 
ATOM     11  H   UNL     1      28.924   4.599  49.407  0.00  0.00    +0.000 HD
BRANCH  10  12
ATOM     12  C   UNL     1      30.118   5.671  48.046  0.00  0.00    +0.000 C 
BRANCH  12  13
ATOM     13  C   UNL     1      30.702   6.843  48.753  0.00  0.00    +0.000 A 
ATOM     14  C   UNL     1      30.268   8.201  48.706  0.00  0.00    +0.000 A 
ATOM     15  C   UNL     1      31.134   8.920  49.498  0.00  0.00    +0.000 A 
ATOM     16  O   UNL     1      32.072   8.098  50.033  0.00  0.00    +0.000 OA
ATOM     17  C   UNL     1      31.807   6.845  49.583  0.00  0.00    +0.000 A 
ENDBRANCH  12  13
ENDBRANCH  10  12
ENDBRANCH   5   8
ENDBRANCH   1   2
BRANCH   1  18
ATOM     18  C   UNL     1      22.103   3.450  51.433  0.00  0.00    +0.000 C 
BRANCH  18  20
ATOM     19  C   UNL     1      21.954   1.194  50.008  0.00  0.00    +0.000 C 
ATOM     20  C   UNL     1      22.003   2.216  50.628  0.00  0.00    +0.000 C 
ENDBRANCH  18  20
ENDBRANCH   1  18
BRANCH   1  21
ATOM     21  C   UNL     1      23.932   3.339  53.107  0.00  0.00    +0.000 C 
BRANCH  21  22
ATOM     22  C   UNL     1      24.906   2.180  53.085  0.00  0.00    +0.000 A 
ATOM     23  C   UNL     1      24.552   0.878  52.715  0.00  0.00    +0.000 A 
ATOM     24  C   UNL     1      25.512  -0.139  52.675  0.00  0.00    +0.000 A 
ATOM     25  C   UNL     1      26.823   0.083  53.061  0.00  0.00    +0.000 A 
ATOM     26  N   UNL     1      27.690  -0.938  53.080  0.00  0.00    +0.000 NA
ATOM     27  C   UNL     1      28.931  -0.696  53.543  0.00  0.00    +0.000 A 
ATOM     28  C   UNL     1      29.854  -1.870  53.631  0.00  0.00    +0.000 C 
ATOM     29  N   UNL     1      29.380   0.497  53.966  0.00  0.00    +0.000 NA
ATOM     30  C   UNL     1      28.487   1.489  53.897  0.00  0.00    +0.000 A 
ATOM     31  C   UNL     1      27.179   1.370  53.459  0.00  0.00    +0.000 A 
ATOM     32  C   UNL     1      26.239   2.423  53.434  0.00  0.00    +0.000 A 
BRANCH  30  33
ATOM     33  O   UNL     1      28.960   2.674  54.375  0.00  0.00    +0.000 OA
ATOM     34  H   UNL     1      29.853   2.915  54.229  0.00  0.00    +0.000 HD
ENDBRANCH  30  33
ENDBRANCH  21  22
ENDBRANCH   1  21
TORSDOF 9
ENDMDL
MODEL 2
REMARK VINA RESULT:    -8.221      3.304      5.968
REMARK INTER + INTRA:         -13.832
REMARK INTER:                 -12.829
REMARK INTRA:                  -1.003
REMARK UNBOUND:                -1.525
REMARK  Name = 
REMARK  10 active torsions:
REMARK  status: ('A' for Active; 'I' for Inactive)
REMARK    1  A    between atoms: C_2  and  C_3
REMARK    2  A    between atoms: C_3  and  N_4
REMARK    3  A    between atoms: N_4  and  C_5
REMARK    4  A    between atoms: N_4  and  C_18
REMARK    5  A    between atoms: C_5  and  C_6
REMARK    6  A    between atoms: C_11  and  C_12
REMARK    7  A    between atoms: C_14  and  O_15
REMARK    8  A    between atoms: C_21  and  C_22
REMARK    9  A    between atoms: N_24  and  C_25
REMARK   10  A    between atoms: C_25  and  C_26
REMARK                            x       y       z     vdW  Elec       q    Type
REMARK                         _______ _______ _______ _____ _____    ______ ____
ROOT
ATOM      1  N   UNL     1      25.717   0.732  53.609  0.00  0.00    +0.000 N 
ENDROOT
BRANCH   1   2
ATOM      2  C   UNL     1      25.324   1.785  52.787  0.00  0.00    +0.000 A 
ATOM      3  C   UNL     1      25.766   1.935  51.462  0.00  0.00    +0.000 A 
ATOM      4  C   UNL     1      25.482   3.083  50.698  0.00  0.00    +0.000 A 
ATOM      5  C   UNL     1      24.699   4.116  51.219  0.00  0.00    +0.000 A 
ATOM      6  C   UNL     1      24.120   3.920  52.469  0.00  0.00    +0.000 A 
ATOM      7  C   UNL     1      24.445   2.787  53.234  0.00  0.00    +0.000 A 
BRANCH   5   8
ATOM      8  C   UNL     1      24.555   5.384  50.431  0.00  0.00    +0.000 C 
ATOM      9  O   UNL     1      23.859   5.403  49.421  0.00  0.00    +0.000 OA
ATOM     10  N   UNL     1      25.263   6.484  50.870  0.00  0.00    +0.000 N 
ATOM     11  H   UNL     1      25.820   6.395  51.677  0.00  0.00    +0.000 HD
BRANCH  10  12
ATOM     12  C   UNL     1      25.222   7.761  50.192  0.00  0.00    +0.000 C 
BRANCH  12  13
ATOM     13  C   UNL     1      26.598   8.112  49.746  0.00  0.00    +0.000 A 
ATOM     14  C   UNL     1      27.394   7.456  48.760  0.00  0.00    +0.000 A 
ATOM     15  C   UNL     1      28.597   8.123  48.716  0.00  0.00    +0.000 A 
ATOM     16  O   UNL     1      28.598   9.147  49.608  0.00  0.00    +0.000 OA
ATOM     17  C   UNL     1      27.389   9.137  50.225  0.00  0.00    +0.000 A 
ENDBRANCH  12  13
ENDBRANCH  10  12
ENDBRANCH   5   8
ENDBRANCH   1   2
BRANCH   1  18
ATOM     18  C   UNL     1      26.579   0.899  54.788  0.00  0.00    +0.000 C 
BRANCH  18  20
ATOM     19  C   UNL     1      29.022  -0.101  54.372  0.00  0.00    +0.000 C 
ATOM     20  C   UNL     1      27.921   0.323  54.571  0.00  0.00    +0.000 C 
ENDBRANCH  18  20
ENDBRANCH   1  18
BRANCH   1  21
ATOM     21  C   UNL     1      25.130  -0.611  53.455  0.00  0.00    +0.000 C 
BRANCH  21  22
ATOM     22  C   UNL     1      23.617  -0.623  53.520  0.00  0.00    +0.000 A 
ATOM     23  C   UNL     1      22.893  -1.066  54.631  0.00  0.00    +0.000 A 
ATOM     24  C   UNL     1      21.495  -1.010  54.642  0.00  0.00    +0.000 A 
ATOM     25  C   UNL     1      20.776  -0.581  53.539  0.00  0.00    +0.000 A 
ATOM     26  N   UNL     1      19.437  -0.616  53.567  0.00  0.00    +0.000 NA
ATOM     27  C   UNL     1      18.779  -0.271  52.443  0.00  0.00    +0.000 A 
ATOM     28  C   UNL     1      17.289  -0.398  52.474  0.00  0.00    +0.000 C 
ATOM     29  N   UNL     1      19.358   0.130  51.300  0.00  0.00    +0.000 NA
ATOM     30  C   UNL     1      20.693   0.179  51.335  0.00  0.00    +0.000 A 
ATOM     31  C   UNL     1      21.487  -0.164  52.416  0.00  0.00    +0.000 A 
ATOM     32  C   UNL     1      22.898  -0.146  52.417  0.00  0.00    +0.000 A 
BRANCH  30  33
ATOM     33  O   UNL     1      21.250   0.547  50.147  0.00  0.00    +0.000 OA
ATOM     34  H   UNL     1      20.951   0.159  49.349  0.00  0.00    +0.000 HD
ENDBRANCH  30  33
ENDBRANCH  21  22
ENDBRANCH   1  21
TORSDOF 9
ENDMDL
MODEL 3
REMARK VINA RESULT:    -8.213      3.127      5.186
REMARK INTER + INTRA:         -13.820
REMARK INTER:                 -12.540
REMARK INTRA:                  -1.280
REMARK UNBOUND:                -1.525
REMARK  Name = 
REMARK  10 active torsions:
REMARK  status: ('A' for Active; 'I' for Inactive)
REMARK    1  A    between atoms: C_2  and  C_3
REMARK    2  A    between atoms: C_3  and  N_4
REMARK    3  A    between atoms: N_4  and  C_5
REMARK    4  A    between atoms: N_4  and  C_18
REMARK    5  A    between atoms: C_5  and  C_6
REMARK    6  A    between atoms: C_11  and  C_12
REMARK    7  A    between atoms: C_14  and  O_15
REMARK    8  A    between atoms: C_21  and  C_22
REMARK    9  A    between atoms: N_24  and  C_25
REMARK   10  A    between atoms: C_25  and  C_26
REMARK                            x       y       z     vdW  Elec       q    Type
REMARK                         _______ _______ _______ _____ _____    ______ ____
ROOT
ATOM      1  N   UNL     1      25.219   2.068  51.848  0.00  0.00    +0.000 N 
ENDROOT
BRANCH   1   2
ATOM      2  C   UNL     1      25.457   3.159  51.017  0.00  0.00    +0.000 A 
ATOM      3  C   UNL     1      26.491   3.193  50.067  0.00  0.00    +0.000 A 
ATOM      4  C   UNL     1      26.812   4.358  49.345  0.00  0.00    +0.000 A 
ATOM      5  C   UNL     1      26.076   5.533  49.512  0.00  0.00    +0.000 A 
ATOM      6  C   UNL     1      24.951   5.478  50.329  0.00  0.00    +0.000 A 
ATOM      7  C   UNL     1      24.667   4.320  51.073  0.00  0.00    +0.000 A 
BRANCH   5   8
ATOM      8  C   UNL     1      26.552   6.788  48.843  0.00  0.00    +0.000 C 
ATOM      9  O   UNL     1      26.241   7.017  47.678  0.00  0.00    +0.000 OA
ATOM     10  N   UNL     1      27.368   7.624  49.576  0.00  0.00    +0.000 N 
ATOM     11  H   UNL     1      27.596   7.371  50.499  0.00  0.00    +0.000 HD
BRANCH  10  12
ATOM     12  C   UNL     1      27.905   8.857  49.042  0.00  0.00    +0.000 C 
BRANCH  12  13
ATOM     13  C   UNL     1      29.372   8.698  48.851  0.00  0.00    +0.000 A 
ATOM     14  C   UNL     1      30.058   7.658  48.155  0.00  0.00    +0.000 A 
ATOM     15  C   UNL     1      31.403   7.925  48.273  0.00  0.00    +0.000 A 
ATOM     16  O   UNL     1      31.594   9.060  48.992  0.00  0.00    +0.000 OA
ATOM     17  C   UNL     1      30.367   9.524  49.337  0.00  0.00    +0.000 A 
ENDBRANCH  12  13
ENDBRANCH  10  12
ENDBRANCH   5   8
ENDBRANCH   1   2
BRANCH   1  18
ATOM     18  C   UNL     1      25.911   0.777  51.713  0.00  0.00    +0.000 C 
BRANCH  18  20
ATOM     19  C   UNL     1      27.599   0.387  53.749  0.00  0.00    +0.000 C 
ATOM     20  C   UNL     1      26.861   0.547  52.821  0.00  0.00    +0.000 C 
ENDBRANCH  18  20
ENDBRANCH   1  18
BRANCH   1  21
ATOM     21  C   UNL     1      24.383   2.200  53.055  0.00  0.00    +0.000 C 
BRANCH  21  22
ATOM     22  C   UNL     1      22.989   1.629  52.892  0.00  0.00    +0.000 A 
ATOM     23  C   UNL     1      21.992   2.229  52.117  0.00  0.00    +0.000 A 
ATOM     24  C   UNL     1      20.738   1.626  51.974  0.00  0.00    +0.000 A 
ATOM     25  C   UNL     1      20.413   0.457  52.642  0.00  0.00    +0.000 A 
ATOM     26  N   UNL     1      19.175  -0.044  52.536  0.00  0.00    +0.000 NA
ATOM     27  C   UNL     1      18.877  -1.134  53.269  0.00  0.00    +0.000 A 
ATOM     28  C   UNL     1      17.466  -1.624  53.196  0.00  0.00    +0.000 C 
ATOM     29  N   UNL     1      19.731  -1.777  54.081  0.00  0.00    +0.000 NA
ATOM     30  C   UNL     1      20.961  -1.257  54.127  0.00  0.00    +0.000 A 
ATOM     31  C   UNL     1      21.391  -0.134  53.439  0.00  0.00    +0.000 A 
ATOM     32  C   UNL     1      22.684   0.423  53.534  0.00  0.00    +0.000 A 
BRANCH  30  33
ATOM     33  O   UNL     1      21.789  -1.906  54.993  0.00  0.00    +0.000 OA
ATOM     34  H   UNL     1      22.302  -1.417  55.606  0.00  0.00    +0.000 HD
ENDBRANCH  30  33
ENDBRANCH  21  22
ENDBRANCH   1  21
TORSDOF 9
ENDMDL
MODEL 4
REMARK VINA RESULT:    -8.196      2.321      7.578
REMARK INTER + INTRA:         -13.794
REMARK INTER:                 -12.399
REMARK INTRA:                  -1.395
REMARK UNBOUND:                -1.525
REMARK  Name = 
REMARK  10 active torsions:
REMARK  status: ('A' for Active; 'I' for Inactive)
REMARK    1  A    between atoms: C_2  and  C_3
REMARK    2  A    between atoms: C_3  and  N_4
REMARK    3  A    between atoms: N_4  and  C_5
REMARK    4  A    between atoms: N_4  and  C_18
REMARK    5  A    between atoms: C_5  and  C_6
REMARK    6  A    between atoms: C_11  and  C_12
REMARK    7  A    between atoms: C_14  and  O_15
REMARK    8  A    between atoms: C_21  and  C_22
REMARK    9  A    between atoms: N_24  and  C_25
REMARK   10  A    between atoms: C_25  and  C_26
REMARK                            x       y       z     vdW  Elec       q    Type
REMARK                         _______ _______ _______ _____ _____    ______ ____
ROOT
ATOM      1  N   UNL     1      22.748   5.496  50.322  0.00  0.00    +0.000 N 
ENDROOT
BRANCH   1   2
ATOM      2  C   UNL     1      23.008   4.295  50.976  0.00  0.00    +0.000 A 
ATOM      3  C   UNL     1      23.489   4.222  52.293  0.00  0.00    +0.000 A 
ATOM      4  C   UNL     1      23.891   3.009  52.883  0.00  0.00    +0.000 A 
ATOM      5  C   UNL     1      23.782   1.802  52.188  0.00  0.00    +0.000 A 
ATOM      6  C   UNL     1      23.162   1.828  50.943  0.00  0.00    +0.000 A 
ATOM      7  C   UNL     1      22.802   3.051  50.352  0.00  0.00    +0.000 A 
BRANCH   5   8
ATOM      8  C   UNL     1      24.367   0.561  52.794  0.00  0.00    +0.000 C 
ATOM      9  O   UNL     1      23.720  -0.085  53.612  0.00  0.00    +0.000 OA
ATOM     10  N   UNL     1      25.651   0.221  52.422  0.00  0.00    +0.000 N 
ATOM     11  H   UNL     1      26.123   0.795  51.776  0.00  0.00    +0.000 HD
BRANCH  10  12
ATOM     12  C   UNL     1      26.334  -0.942  52.944  0.00  0.00    +0.000 C 
BRANCH  12  13
ATOM     13  C   UNL     1      27.743  -0.573  53.251  0.00  0.00    +0.000 A 
ATOM     14  C   UNL     1      28.893  -1.418  53.239  0.00  0.00    +0.000 A 
ATOM     15  C   UNL     1      29.961  -0.637  53.616  0.00  0.00    +0.000 A 
ATOM     16  O   UNL     1      29.549   0.634  53.860  0.00  0.00    +0.000 OA
ATOM     17  C   UNL     1      28.211   0.668  53.636  0.00  0.00    +0.000 A 
ENDBRANCH  12  13
ENDBRANCH  10  12
ENDBRANCH   5   8
ENDBRANCH   1   2
BRANCH   1  18
ATOM     18  C   UNL     1      22.524   6.770  51.022  0.00  0.00    +0.000 C 
BRANCH  18  20
ATOM     19  C   UNL     1      20.524   8.165  49.928  0.00  0.00    +0.000 C 
ATOM     20  C   UNL     1      21.401   7.528  50.435  0.00  0.00    +0.000 C 
ENDBRANCH  18  20
ENDBRANCH   1  18
BRANCH   1  21
ATOM     21  C   UNL     1      22.870   5.607  48.858  0.00  0.00    +0.000 C 
BRANCH  21  22
ATOM     22  C   UNL     1      24.143   6.290  48.404  0.00  0.00    +0.000 A 
ATOM     23  C   UNL     1      24.163   7.449  47.622  0.00  0.00    +0.000 A 
ATOM     24  C   UNL     1      25.375   8.055  47.274  0.00  0.00    +0.000 A 
ATOM     25  C   UNL     1      26.594   7.500  47.629  0.00  0.00    +0.000 A 
ATOM     26  N   UNL     1      27.729   8.073  47.208  0.00  0.00    +0.000 NA
ATOM     27  C   UNL     1      28.888   7.454  47.503  0.00  0.00    +0.000 A 
ATOM     28  C   UNL     1      30.136   8.069  46.952  0.00  0.00    +0.000 C 
ATOM     29  N   UNL     1      29.000   6.317  48.209  0.00  0.00    +0.000 NA
ATOM     30  C   UNL     1      27.841   5.804  48.633  0.00  0.00    +0.000 A 
ATOM     31  C   UNL     1      26.584   6.330  48.384  0.00  0.00    +0.000 A 
ATOM     32  C   UNL     1      25.370   5.748  48.805  0.00  0.00    +0.000 A 
BRANCH  30  33
ATOM     33  O   UNL     1      27.986   4.628  49.307  0.00  0.00    +0.000 OA
ATOM     34  H   UNL     1      27.923   4.613  50.241  0.00  0.00    +0.000 HD
ENDBRANCH  30  33
ENDBRANCH  21  22
ENDBRANCH   1  21
TORSDOF 9
ENDMDL
MODEL 5
REMARK VINA RESULT:    -8.190      5.368      9.434
REMARK INTER + INTRA:         -13.784
REMARK INTER:                 -12.451
REMARK INTRA:                  -1.334
REMARK UNBOUND:                -1.525
REMARK  Name = 
REMARK  10 active torsions:
REMARK  status: ('A' for Active; 'I' for Inactive)
REMARK    1  A    between atoms: C_2  and  C_3
REMARK    2  A    between atoms: C_3  and  N_4
REMARK    3  A    between atoms: N_4  and  C_5
REMARK    4  A    between atoms: N_4  and  C_18
REMARK    5  A    between atoms: C_5  and  C_6
REMARK    6  A    between atoms: C_11  and  C_12
REMARK    7  A    between atoms: C_14  and  O_15
REMARK    8  A    between atoms: C_21  and  C_22
REMARK    9  A    between atoms: N_24  and  C_25
REMARK   10  A    between atoms: C_25  and  C_26
REMARK                            x       y       z     vdW  Elec       q    Type
REMARK                         _______ _______ _______ _____ _____    ______ ____
ROOT
ATOM      1  N   UNL     1      22.549   2.742  51.598  0.00  0.00    +0.000 N 
ENDROOT
BRANCH   1   2
ATOM      2  C   UNL     1      21.231   2.302  51.503  0.00  0.00    +0.000 A 
ATOM      3  C   UNL     1      20.123   3.159  51.615  0.00  0.00    +0.000 A 
ATOM      4  C   UNL     1      18.801   2.677  51.670  0.00  0.00    +0.000 A 
ATOM      5  C   UNL     1      18.530   1.311  51.566  0.00  0.00    +0.000 A 
ATOM      6  C   UNL     1      19.597   0.460  51.296  0.00  0.00    +0.000 A 
ATOM      7  C   UNL     1      20.914   0.950  51.284  0.00  0.00    +0.000 A 
BRANCH   5   8
ATOM      8  C   UNL     1      17.126   0.832  51.788  0.00  0.00    +0.000 C 
ATOM      9  O   UNL     1      16.907  -0.362  51.968  0.00  0.00    +0.000 OA
ATOM     10  N   UNL     1      16.121   1.775  51.736  0.00  0.00    +0.000 N 
ATOM     11  H   UNL     1      16.363   2.715  51.567  0.00  0.00    +0.000 HD
BRANCH  10  12
ATOM     12  C   UNL     1      14.725   1.442  51.919  0.00  0.00    +0.000 C 
BRANCH  12  13
ATOM     13  C   UNL     1      14.078   2.513  52.723  0.00  0.00    +0.000 A 
ATOM     14  C   UNL     1      14.588   3.810  53.028  0.00  0.00    +0.000 A 
ATOM     15  C   UNL     1      13.647   4.428  53.820  0.00  0.00    +0.000 A 
ATOM     16  O   UNL     1      12.590   3.602  54.024  0.00  0.00    +0.000 OA
ATOM     17  C   UNL     1      12.853   2.448  53.359  0.00  0.00    +0.000 A 
ENDBRANCH  12  13
ENDBRANCH  10  12
ENDBRANCH   5   8
ENDBRANCH   1   2
BRANCH   1  18
ATOM     18  C   UNL     1      23.265   3.406  50.500  0.00  0.00    +0.000 C 
BRANCH  18  20
ATOM     19  C   UNL     1      22.691   2.355  48.110  0.00  0.00    +0.000 C 
ATOM     20  C   UNL     1      22.923   2.818  49.189  0.00  0.00    +0.000 C 
ENDBRANCH  18  20
ENDBRANCH   1  18
BRANCH   1  21
ATOM     21  C   UNL     1      23.258   2.739  52.890  0.00  0.00    +0.000 C 
BRANCH  21  22
ATOM     22  C   UNL     1      24.396   1.741  52.956  0.00  0.00    +0.000 A 
ATOM     23  C   UNL     1      24.235   0.369  52.743  0.00  0.00    +0.000 A 
ATOM     24  C   UNL     1      25.336  -0.494  52.775  0.00  0.00    +0.000 A 
ATOM     25  C   UNL     1      26.608  -0.038  53.083  0.00  0.00    +0.000 A 
ATOM     26  N   UNL     1      27.619  -0.912  53.178  0.00  0.00    +0.000 NA
ATOM     27  C   UNL     1      28.819  -0.438  53.564  0.00  0.00    +0.000 A 
ATOM     28  C   UNL     1      29.911  -1.445  53.742  0.00  0.00    +0.000 C 
ATOM     29  N   UNL     1      29.092   0.848  53.838  0.00  0.00    +0.000 NA
ATOM     30  C   UNL     1      28.058   1.683  53.697  0.00  0.00    +0.000 A 
ATOM     31  C   UNL     1      26.773   1.324  53.325  0.00  0.00    +0.000 A 
ATOM     32  C   UNL     1      25.685   2.217  53.223  0.00  0.00    +0.000 A 
BRANCH  30  33
ATOM     33  O   UNL     1      28.357   2.972  54.025  0.00  0.00    +0.000 OA
ATOM     34  H   UNL     1      28.483   3.609  53.351  0.00  0.00    +0.000 HD
ENDBRANCH  30  33
ENDBRANCH  21  22
ENDBRANCH   1  21
TORSDOF 9
ENDMDL
MODEL 6
REMARK VINA RESULT:    -8.105      1.753      2.303
REMARK INTER + INTRA:         -13.658
REMARK INTER:                 -12.276
REMARK INTRA:                  -1.381
REMARK UNBOUND:                -1.525
REMARK  Name = 
REMARK  10 active torsions:
REMARK  status: ('A' for Active; 'I' for Inactive)
REMARK    1  A    between atoms: C_2  and  C_3
REMARK    2  A    between atoms: C_3  and  N_4
REMARK    3  A    between atoms: N_4  and  C_5
REMARK    4  A    between atoms: N_4  and  C_18
REMARK    5  A    between atoms: C_5  and  C_6
REMARK    6  A    between atoms: C_11  and  C_12
REMARK    7  A    between atoms: C_14  and  O_15
REMARK    8  A    between atoms: C_21  and  C_22
REMARK    9  A    between atoms: N_24  and  C_25
REMARK   10  A    between atoms: C_25  and  C_26
REMARK                            x       y       z     vdW  Elec       q    Type
REMARK                         _______ _______ _______ _____ _____    ______ ____
ROOT
ATOM      1  N   UNL     1      22.246   3.587  51.436  0.00  0.00    +0.000 N 
ENDROOT
BRANCH   1   2
ATOM      2  C   UNL     1      22.979   4.591  50.809  0.00  0.00    +0.000 A 
ATOM      3  C   UNL     1      23.301   4.571  49.442  0.00  0.00    +0.000 A 
ATOM      4  C   UNL     1      24.170   5.512  48.858  0.00  0.00    +0.000 A 
ATOM      5  C   UNL     1      24.719   6.549  49.616  0.00  0.00    +0.000 A 
ATOM      6  C   UNL     1      24.291   6.682  50.933  0.00  0.00    +0.000 A 
ATOM      7  C   UNL     1      23.455   5.712  51.512  0.00  0.00    +0.000 A 
BRANCH   5   8
ATOM      8  C   UNL     1      25.760   7.431  48.992  0.00  0.00    +0.000 C 
ATOM      9  O   UNL     1      25.432   8.269  48.159  0.00  0.00    +0.000 OA
ATOM     10  N   UNL     1      27.071   7.223  49.366  0.00  0.00    +0.000 N 
ATOM     11  H   UNL     1      27.268   6.519  50.026  0.00  0.00    +0.000 HD
BRANCH  10  12
ATOM     12  C   UNL     1      28.169   7.995  48.828  0.00  0.00    +0.000 C 
BRANCH  12  13
ATOM     13  C   UNL     1      29.252   7.063  48.410  0.00  0.00    +0.000 A 
ATOM     14  C   UNL     1      29.162   5.656  48.193  0.00  0.00    +0.000 A 
ATOM     15  C   UNL     1      30.424   5.228  47.849  0.00  0.00    +0.000 A 
ATOM     16  O   UNL     1      31.287   6.276  47.836  0.00  0.00    +0.000 OA
ATOM     17  C   UNL     1      30.575   7.381  48.174  0.00  0.00    +0.000 A 
ENDBRANCH  12  13
ENDBRANCH  10  12
ENDBRANCH   5   8
ENDBRANCH   1   2
BRANCH   1  18
ATOM     18  C   UNL     1      21.132   3.850  52.359  0.00  0.00    +0.000 C 
BRANCH  18  20
ATOM     19  C   UNL     1      18.790   3.134  51.289  0.00  0.00    +0.000 C 
ATOM     20  C   UNL     1      19.831   3.481  51.765  0.00  0.00    +0.000 C 
ENDBRANCH  18  20
ENDBRANCH   1  18
BRANCH   1  21
ATOM     21  C   UNL     1      22.421   2.173  51.062  0.00  0.00    +0.000 C 
BRANCH  21  22
ATOM     22  C   UNL     1      23.543   1.481  51.809  0.00  0.00    +0.000 A 
ATOM     23  C   UNL     1      23.352   0.378  52.647  0.00  0.00    +0.000 A 
ATOM     24  C   UNL     1      24.438  -0.241  53.273  0.00  0.00    +0.000 A 
ATOM     25  C   UNL     1      25.728   0.250  53.145  0.00  0.00    +0.000 A 
ATOM     26  N   UNL     1      26.727  -0.329  53.825  0.00  0.00    +0.000 NA
ATOM     27  C   UNL     1      27.948   0.232  53.739  0.00  0.00    +0.000 A 
ATOM     28  C   UNL     1      29.028  -0.383  54.571  0.00  0.00    +0.000 C 
ATOM     29  N   UNL     1      28.253   1.314  53.004  0.00  0.00    +0.000 NA
ATOM     30  C   UNL     1      27.228   1.834  52.320  0.00  0.00    +0.000 A 
ATOM     31  C   UNL     1      25.925   1.366  52.335  0.00  0.00    +0.000 A 
ATOM     32  C   UNL     1      24.849   1.956  51.638  0.00  0.00    +0.000 A 
BRANCH  30  33
ATOM     33  O   UNL     1      27.560   2.956  51.621  0.00  0.00    +0.000 OA
ATOM     34  H   UNL     1      27.019   3.718  51.674  0.00  0.00    +0.000 HD
ENDBRANCH  30  33
ENDBRANCH  21  22
ENDBRANCH   1  21
TORSDOF 9
ENDMDL
MODEL 7
REMARK VINA RESULT:    -8.068      3.271      5.348
REMARK INTER + INTRA:         -13.602
REMARK INTER:                 -12.424
REMARK INTRA:                  -1.178
REMARK UNBOUND:                -1.525
REMARK  Name = 
REMARK  10 active torsions:
REMARK  status: ('A' for Active; 'I' for Inactive)
REMARK    1  A    between atoms: C_2  and  C_3
REMARK    2  A    between atoms: C_3  and  N_4
REMARK    3  A    between atoms: N_4  and  C_5
REMARK    4  A    between atoms: N_4  and  C_18
REMARK    5  A    between atoms: C_5  and  C_6
REMARK    6  A    between atoms: C_11  and  C_12
REMARK    7  A    between atoms: C_14  and  O_15
REMARK    8  A    between atoms: C_21  and  C_22
REMARK    9  A    between atoms: N_24  and  C_25
REMARK   10  A    between atoms: C_25  and  C_26
REMARK                            x       y       z     vdW  Elec       q    Type
REMARK                         _______ _______ _______ _____ _____    ______ ____
ROOT
ATOM      1  N   UNL     1      25.595   0.937  52.366  0.00  0.00    +0.000 N 
ENDROOT
BRANCH   1   2
ATOM      2  C   UNL     1      25.601   2.037  51.513  0.00  0.00    +0.000 A 
ATOM      3  C   UNL     1      26.498   2.176  50.442  0.00  0.00    +0.000 A 
ATOM      4  C   UNL     1      26.591   3.360  49.686  0.00  0.00    +0.000 A 
ATOM      5  C   UNL     1      25.751   4.446  49.945  0.00  0.00    +0.000 A 
ATOM      6  C   UNL     1      24.750   4.273  50.896  0.00  0.00    +0.000 A 
ATOM      7  C   UNL     1      24.694   3.101  51.668  0.00  0.00    +0.000 A 
BRANCH   5   8
ATOM      8  C   UNL     1      25.992   5.738  49.223  0.00  0.00    +0.000 C 
ATOM      9  O   UNL     1      25.067   6.297  48.643  0.00  0.00    +0.000 OA
ATOM     10  N   UNL     1      27.282   6.225  49.213  0.00  0.00    +0.000 N 
ATOM     11  H   UNL     1      27.982   5.716  49.682  0.00  0.00    +0.000 HD
BRANCH  10  12
ATOM     12  C   UNL     1      27.649   7.452  48.541  0.00  0.00    +0.000 C 
BRANCH  12  13
ATOM     13  C   UNL     1      29.133   7.569  48.534  0.00  0.00    +0.000 A 
ATOM     14  C   UNL     1      29.928   8.668  48.976  0.00  0.00    +0.000 A 
ATOM     15  C   UNL     1      31.240   8.325  48.746  0.00  0.00    +0.000 A 
ATOM     16  O   UNL     1      31.310   7.087  48.193  0.00  0.00    +0.000 OA
ATOM     17  C   UNL     1      30.037   6.634  48.069  0.00  0.00    +0.000 A 
ENDBRANCH  12  13
ENDBRANCH  10  12
ENDBRANCH   5   8
ENDBRANCH   1   2
BRANCH   1  18
ATOM     18  C   UNL     1      26.353  -0.296  52.107  0.00  0.00    +0.000 C 
BRANCH  18  20
ATOM     19  C   UNL     1      28.541  -0.419  53.638  0.00  0.00    +0.000 C 
ATOM     20  C   UNL     1      27.577  -0.369  52.930  0.00  0.00    +0.000 C 
ENDBRANCH  18  20
ENDBRANCH   1  18
BRANCH   1  21
ATOM     21  C   UNL     1      24.969   1.012  53.699  0.00  0.00    +0.000 C 
BRANCH  21  22
ATOM     22  C   UNL     1      23.645   0.281  53.790  0.00  0.00    +0.000 A 
ATOM     23  C   UNL     1      23.462  -0.901  54.513  0.00  0.00    +0.000 A 
ATOM     24  C   UNL     1      22.201  -1.503  54.592  0.00  0.00    +0.000 A 
ATOM     25  C   UNL     1      21.109  -0.995  53.908  0.00  0.00    +0.000 A 
ATOM     26  N   UNL     1      19.940  -1.647  53.950  0.00  0.00    +0.000 NA
ATOM     27  C   UNL     1      18.928  -1.165  53.203  0.00  0.00    +0.000 A 
ATOM     28  C   UNL     1      17.659  -1.956  53.203  0.00  0.00    +0.000 C 
ATOM     29  N   UNL     1      18.990  -0.066  52.434  0.00  0.00    +0.000 NA
ATOM     30  C   UNL     1      20.168   0.566  52.452  0.00  0.00    +0.000 A 
ATOM     31  C   UNL     1      21.289   0.167  53.161  0.00  0.00    +0.000 A 
ATOM     32  C   UNL     1      22.536   0.826  53.132  0.00  0.00    +0.000 A 
BRANCH  30  33
ATOM     33  O   UNL     1      20.211   1.651  51.628  0.00  0.00    +0.000 OA
ATOM     34  H   UNL     1      20.612   1.583  50.784  0.00  0.00    +0.000 HD
ENDBRANCH  30  33
ENDBRANCH  21  22
ENDBRANCH   1  21
TORSDOF 9
ENDMDL
MODEL 8
REMARK VINA RESULT:    -8.051      2.581      3.707
REMARK INTER + INTRA:         -13.577
REMARK INTER:                 -12.188
REMARK INTRA:                  -1.388
REMARK UNBOUND:                -1.525
REMARK  Name = 
REMARK  10 active torsions:
REMARK  status: ('A' for Active; 'I' for Inactive)
REMARK    1  A    between atoms: C_2  and  C_3
REMARK    2  A    between atoms: C_3  and  N_4
REMARK    3  A    between atoms: N_4  and  C_5
REMARK    4  A    between atoms: N_4  and  C_18
REMARK    5  A    between atoms: C_5  and  C_6
REMARK    6  A    between atoms: C_11  and  C_12
REMARK    7  A    between atoms: C_14  and  O_15
REMARK    8  A    between atoms: C_21  and  C_22
REMARK    9  A    between atoms: N_24  and  C_25
REMARK   10  A    between atoms: C_25  and  C_26
REMARK                            x       y       z     vdW  Elec       q    Type
REMARK                         _______ _______ _______ _____ _____    ______ ____
ROOT
ATOM      1  N   UNL     1      23.933   4.675  49.625  0.00  0.00    +0.000 N 
ENDROOT
BRANCH   1   2
ATOM      2  C   UNL     1      25.214   4.992  49.182  0.00  0.00    +0.000 A 
ATOM      3  C   UNL     1      26.272   4.069  49.159  0.00  0.00    +0.000 A 
ATOM      4  C   UNL     1      27.594   4.445  48.854  0.00  0.00    +0.000 A 
ATOM      5  C   UNL     1      27.905   5.763  48.511  0.00  0.00    +0.000 A 
ATOM      6  C   UNL     1      26.849   6.659  48.373  0.00  0.00    +0.000 A 
ATOM      7  C   UNL     1      25.542   6.278  48.718  0.00  0.00    +0.000 A 
BRANCH   5   8
ATOM      8  C   UNL     1      29.345   6.150  48.349  0.00  0.00    +0.000 C 
ATOM      9  O   UNL     1      30.105   5.429  47.711  0.00  0.00    +0.000 OA
ATOM     10  N   UNL     1      29.762   7.305  48.976  0.00  0.00    +0.000 N 
ATOM     11  H   UNL     1      29.105   7.827  49.491  0.00  0.00    +0.000 HD
BRANCH  10  12
ATOM     12  C   UNL     1      31.127   7.781  48.910  0.00  0.00    +0.000 C 
BRANCH  12  13
ATOM     13  C   UNL     1      31.112   9.243  48.631  0.00  0.00    +0.000 A 
ATOM     14  C   UNL     1      30.697  10.297  49.498  0.00  0.00    +0.000 A 
ATOM     15  C   UNL     1      30.837  11.468  48.790  0.00  0.00    +0.000 A 
ATOM     16  O   UNL     1      31.312  11.210  47.545  0.00  0.00    +0.000 OA
ATOM     17  C   UNL     1      31.479   9.866  47.454  0.00  0.00    +0.000 A 
ENDBRANCH  12  13
ENDBRANCH  10  12
ENDBRANCH   5   8
ENDBRANCH   1   2
BRANCH   1  18
ATOM     18  C   UNL     1      23.122   5.564  50.469  0.00  0.00    +0.000 C 
BRANCH  18  20
ATOM     19  C   UNL     1      23.452   4.971  53.055  0.00  0.00    +0.000 C 
ATOM     20  C   UNL     1      23.284   5.254  51.904  0.00  0.00    +0.000 C 
ENDBRANCH  18  20
ENDBRANCH   1  18
BRANCH   1  21
ATOM     21  C   UNL     1      23.223   3.490  49.111  0.00  0.00    +0.000 C 
BRANCH  21  22
ATOM     22  C   UNL     1      22.856   2.488  50.186  0.00  0.00    +0.000 A 
ATOM     23  C   UNL     1      21.546   2.075  50.445  0.00  0.00    +0.000 A 
ATOM     24  C   UNL     1      21.279   1.113  51.425  0.00  0.00    +0.000 A 
ATOM     25  C   UNL     1      22.285   0.586  52.218  0.00  0.00    +0.000 A 
ATOM     26  N   UNL     1      21.974  -0.276  53.196  0.00  0.00    +0.000 NA
ATOM     27  C   UNL     1      22.971  -0.698  53.997  0.00  0.00    +0.000 A 
ATOM     28  C   UNL     1      22.585  -1.594  55.131  0.00  0.00    +0.000 C 
ATOM     29  N   UNL     1      24.261  -0.343  53.880  0.00  0.00    +0.000 NA
ATOM     30  C   UNL     1      24.523   0.492  52.870  0.00  0.00    +0.000 A 
ATOM     31  C   UNL     1      23.591   1.012  51.987  0.00  0.00    +0.000 A 
ATOM     32  C   UNL     1      23.884   1.927  50.953  0.00  0.00    +0.000 A 
BRANCH  30  33
ATOM     33  O   UNL     1      25.832   0.867  52.806  0.00  0.00    +0.000 OA
ATOM     34  H   UNL     1      26.148   1.558  53.352  0.00  0.00    +0.000 HD
ENDBRANCH  30  33
ENDBRANCH  21  22
ENDBRANCH   1  21
TORSDOF 9
ENDMDL
MODEL 9
REMARK VINA RESULT:    -7.937      4.579      8.933
REMARK INTER + INTRA:         -13.406
REMARK INTER:                 -11.977
REMARK INTRA:                  -1.429
REMARK UNBOUND:                -1.525
REMARK  Name = 
REMARK  10 active torsions:
REMARK  status: ('A' for Active; 'I' for Inactive)
REMARK    1  A    between atoms: C_2  and  C_3
REMARK    2  A    between atoms: C_3  and  N_4
REMARK    3  A    between atoms: N_4  and  C_5
REMARK    4  A    between atoms: N_4  and  C_18
REMARK    5  A    between atoms: C_5  and  C_6
REMARK    6  A    between atoms: C_11  and  C_12
REMARK    7  A    between atoms: C_14  and  O_15
REMARK    8  A    between atoms: C_21  and  C_22
REMARK    9  A    between atoms: N_24  and  C_25
REMARK   10  A    between atoms: C_25  and  C_26
REMARK                            x       y       z     vdW  Elec       q    Type
REMARK                         _______ _______ _______ _____ _____    ______ ____
ROOT
ATOM      1  N   UNL     1      23.474   3.357  51.754  0.00  0.00    +0.000 N 
ENDROOT
BRANCH   1   2
ATOM      2  C   UNL     1      22.246   2.813  51.390  0.00  0.00    +0.000 A 
ATOM      3  C   UNL     1      22.108   1.789  50.438  0.00  0.00    +0.000 A 
ATOM      4  C   UNL     1      20.852   1.358  49.970  0.00  0.00    +0.000 A 
ATOM      5  C   UNL     1      19.671   1.908  50.475  0.00  0.00    +0.000 A 
ATOM      6  C   UNL     1      19.778   2.809  51.530  0.00  0.00    +0.000 A 
ATOM      7  C   UNL     1      21.039   3.257  51.958  0.00  0.00    +0.000 A 
BRANCH   5   8
ATOM      8  C   UNL     1      18.366   1.533  49.837  0.00  0.00    +0.000 C 
ATOM      9  O   UNL     1      17.703   2.385  49.254  0.00  0.00    +0.000 OA
ATOM     10  N   UNL     1      17.948   0.226  49.975  0.00  0.00    +0.000 N 
ATOM     11  H   UNL     1      18.519  -0.402  50.473  0.00  0.00    +0.000 HD
BRANCH  10  12
ATOM     12  C   UNL     1      16.703  -0.259  49.420  0.00  0.00    +0.000 C 
BRANCH  12  13
ATOM     13  C   UNL     1      15.955  -0.985  50.482  0.00  0.00    +0.000 A 
ATOM     14  C   UNL     1      16.371  -1.253  51.820  0.00  0.00    +0.000 A 
ATOM     15  C   UNL     1      15.359  -1.975  52.411  0.00  0.00    +0.000 A 
ATOM     16  O   UNL     1      14.345  -2.169  51.529  0.00  0.00    +0.000 OA
ATOM     17  C   UNL     1      14.708  -1.569  50.367  0.00  0.00    +0.000 A 
ENDBRANCH  12  13
ENDBRANCH  10  12
ENDBRANCH   5   8
ENDBRANCH   1   2
BRANCH   1  18
ATOM     18  C   UNL     1      24.191   4.357  50.949  0.00  0.00    +0.000 C 
BRANCH  18  20
ATOM     19  C   UNL     1      26.287   3.320  49.655  0.00  0.00    +0.000 C 
ATOM     20  C   UNL     1      25.334   3.762  50.228  0.00  0.00    +0.000 C 
ENDBRANCH  18  20
ENDBRANCH   1  18
BRANCH   1  21
ATOM     21  C   UNL     1      24.053   3.101  53.085  0.00  0.00    +0.000 C 
BRANCH  21  22
ATOM     22  C   UNL     1      25.073   1.980  53.098  0.00  0.00    +0.000 A 
ATOM     23  C   UNL     1      24.777   0.661  52.743  0.00  0.00    +0.000 A 
ATOM     24  C   UNL     1      25.777  -0.318  52.735  0.00  0.00    +0.000 A 
ATOM     25  C   UNL     1      27.072  -0.038  53.140  0.00  0.00    +0.000 A 
ATOM     26  N   UNL     1      27.978  -1.024  53.189  0.00  0.00    +0.000 NA
ATOM     27  C   UNL     1      29.200  -0.726  53.669  0.00  0.00    +0.000 A 
ATOM     28  C   UNL     1      30.167  -1.861  53.791  0.00  0.00    +0.000 C 
ATOM     29  N   UNL     1      29.594   0.490  54.081  0.00  0.00    +0.000 NA
ATOM     30  C   UNL     1      28.664   1.445  53.981  0.00  0.00    +0.000 A 
ATOM     31  C   UNL     1      27.369   1.268  53.523  0.00  0.00    +0.000 A 
ATOM     32  C   UNL     1      26.390   2.282  53.465  0.00  0.00    +0.000 A 
BRANCH  30  33
ATOM     33  O   UNL     1      29.081   2.655  54.448  0.00  0.00    +0.000 OA
ATOM     34  H   UNL     1      29.640   2.700  55.198  0.00  0.00    +0.000 HD
ENDBRANCH  30  33
ENDBRANCH  21  22
ENDBRANCH   1  21
TORSDOF 9
ENDMDL
