MODEL 1
REMARK VINA RESULT:    -9.298      0.000      0.000
REMARK INTER + INTRA:         -13.725
REMARK INTER:                 -12.560
REMARK INTRA:                  -1.165
REMARK UNBOUND:                -1.165
REMARK  Name = 
REMARK  8 active torsions:
REMARK  status: ('A' for Active; 'I' for Inactive)
REMARK    1  A    between atoms: C_1  and  N_2
REMARK    2  A    between atoms: N_2  and  C_3
REMARK    3  A    between atoms: C_3  and  C_4
REMARK    4  A    between atoms: C_4  and  C_5
REMARK    5  A    between atoms: C_5  and  N_6
REMARK    6  A    between atoms: C_8  and  C_9
REMARK    7  A    between atoms: C_10  and  C_11
REMARK    8  A    between atoms: N_13  and  C_14
REMARK                            x       y       z     vdW  Elec       q    Type
REMARK                         _______ _______ _______ _____ _____    ______ ____
ROOT
ATOM      1  C   UNL     1      22.768   0.874  53.076  0.00  0.00    +0.000 C 
ATOM      2  C   UNL     1      23.567  -0.017  53.680  0.00  0.00    +0.000 C 
ATOM      3  C   UNL     1      22.759  -0.669  54.732  0.00  0.00    +0.000 C 
ATOM      4  O   UNL     1      23.132  -1.533  55.510  0.00  0.00    +0.000 OA
ATOM      5  N   UNL     1      21.518  -0.138  54.681  0.00  0.00    +0.000 N 
ATOM      6  C   UNL     1      21.440   0.796  53.712  0.00  0.00    +0.000 C 
ATOM      7  O   UNL     1      20.452   1.453  53.428  0.00  0.00    +0.000 OA
ATOM      8  H   UNL     1      20.773  -0.396  55.270  0.00  0.00    +0.000 HD
ENDROOT
BRANCH   2   9
ATOM      9  C   UNL     1      24.931  -0.313  53.438  0.00  0.00    +0.000 A 
ATOM     10  C   UNL     1      25.411  -1.535  53.021  0.00  0.00    +0.000 A 
ATOM     11  N   UNL     1      26.778  -1.439  52.939  0.00  0.00    +0.000 N 
ATOM     12  C   UNL     1      27.661  -2.526  52.577  0.00  0.00    +0.000 C 
ATOM     13  C   UNL     1      27.191  -0.165  53.275  0.00  0.00    +0.000 A 
ATOM     14  C   UNL     1      28.475   0.401  53.339  0.00  0.00    +0.000 A 
ATOM     15  C   UNL     1      28.586   1.739  53.726  0.00  0.00    +0.000 A 
ATOM     16  C   UNL     1      27.456   2.491  54.035  0.00  0.00    +0.000 A 
ATOM     17  C   UNL     1      26.181   1.918  53.968  0.00  0.00    +0.000 A 
ATOM     18  C   UNL     1      26.041   0.568  53.587  0.00  0.00    +0.000 A 
ENDBRANCH   2   9
BRANCH   1  21
ATOM     19  N   UNL     1      23.863   3.488  50.883  0.00  0.00    +0.000 N 
ATOM     20  C   UNL     1      23.845   2.872  52.112  0.00  0.00    +0.000 A 
ATOM     21  C   UNL     1      23.062   1.750  52.008  0.00  0.00    +0.000 A 
ATOM     22  C   UNL     1      22.575   1.667  50.679  0.00  0.00    +0.000 A 
ATOM     23  C   UNL     1      21.693   0.783  50.023  0.00  0.00    +0.000 A 
ATOM     24  C   UNL     1      21.395   0.978  48.675  0.00  0.00    +0.000 A 
ATOM     25  C   UNL     1      21.993   2.016  47.970  0.00  0.00    +0.000 A 
ATOM     26  C   UNL     1      22.877   2.909  48.597  0.00  0.00    +0.000 A 
ATOM     27  C   UNL     1      23.136   2.740  49.970  0.00  0.00    +0.000 A 
BRANCH  19  28
ATOM     28  C   UNL     1      24.430   4.814  50.681  0.00  0.00    +0.000 C 
BRANCH  28  29
ATOM     29  C   UNL     1      25.391   4.933  49.488  0.00  0.00    +0.000 C 
BRANCH  29  30
ATOM     30  C   UNL     1      26.605   4.025  49.666  0.00  0.00    +0.000 C 
BRANCH  30  32
ATOM     31  C   UNL     1      27.522   5.887  48.477  0.00  0.00    +0.000 C 
ATOM     32  N   UNL     1      27.843   4.706  49.276  0.00  0.00    +0.000 N 
ATOM     33  H   UNL     1      28.351   4.992  50.114  0.00  0.00    +0.000 HD
ATOM     34  H   UNL     1      28.421   4.071  48.726  0.00  0.00    +0.000 HD
ENDBRANCH  30  32
ENDBRANCH  29  30
ENDBRANCH  28  29
ENDBRANCH  19  28
ENDBRANCH   1  21
TORSDOF 6
ENDMDL
MODEL 2
REMARK VINA RESULT:    -8.852      2.497      6.177
REMARK INTER + INTRA:         -13.122
REMARK INTER:                 -11.673
REMARK INTRA:                  -1.449
REMARK UNBOUND:                -1.165
REMARK  Name = 
REMARK  8 active torsions:
REMARK  status: ('A' for Active; 'I' for Inactive)
REMARK    1  A    between atoms: C_1  and  N_2
REMARK    2  A    between atoms: N_2  and  C_3
REMARK    3  A    between atoms: C_3  and  C_4
REMARK    4  A    between atoms: C_4  and  C_5
REMARK    5  A    between atoms: C_5  and  N_6
REMARK    6  A    between atoms: C_8  and  C_9
REMARK    7  A    between atoms: C_10  and  C_11
REMARK    8  A    between atoms: N_13  and  C_14
REMARK                            x       y       z     vdW  Elec       q    Type
REMARK                         _______ _______ _______ _____ _____    ______ ____
ROOT
ATOM      1  C   UNL     1      23.108   1.274  52.433  0.00  0.00    +0.000 C 
ATOM      2  C   UNL     1      24.150   2.117  52.459  0.00  0.00    +0.000 C 
ATOM      3  C   UNL     1      25.201   1.470  53.272  0.00  0.00    +0.000 C 
ATOM      4  O   UNL     1      26.302   1.926  53.539  0.00  0.00    +0.000 OA
ATOM      5  N   UNL     1      24.728   0.270  53.669  0.00  0.00    +0.000 N 
ATOM      6  C   UNL     1      23.478   0.074  53.207  0.00  0.00    +0.000 C 
ATOM      7  O   UNL     1      22.786  -0.912  53.404  0.00  0.00    +0.000 OA
ATOM      8  H   UNL     1      25.227  -0.375  54.221  0.00  0.00    +0.000 HD
ENDROOT
BRANCH   2   9
ATOM      9  C   UNL     1      24.284   3.400  51.874  0.00  0.00    +0.000 A 
ATOM     10  C   UNL     1      23.514   4.497  52.193  0.00  0.00    +0.000 A 
ATOM     11  N   UNL     1      23.914   5.534  51.389  0.00  0.00    +0.000 N 
ATOM     12  C   UNL     1      23.318   6.853  51.386  0.00  0.00    +0.000 C 
ATOM     13  C   UNL     1      24.949   5.134  50.567  0.00  0.00    +0.000 A 
ATOM     14  C   UNL     1      25.672   5.835  49.588  0.00  0.00    +0.000 A 
ATOM     15  C   UNL     1      26.677   5.151  48.897  0.00  0.00    +0.000 A 
ATOM     16  C   UNL     1      26.956   3.816  49.176  0.00  0.00    +0.000 A 
ATOM     17  C   UNL     1      26.230   3.127  50.153  0.00  0.00    +0.000 A 
ATOM     18  C   UNL     1      25.205   3.790  50.859  0.00  0.00    +0.000 A 
ENDBRANCH   2   9
BRANCH   1  21
ATOM     19  N   UNL     1      19.665   1.435  51.453  0.00  0.00    +0.000 N 
ATOM     20  C   UNL     1      20.643   1.247  52.401  0.00  0.00    +0.000 A 
ATOM     21  C   UNL     1      21.859   1.424  51.792  0.00  0.00    +0.000 A 
ATOM     22  C   UNL     1      21.633   1.724  50.424  0.00  0.00    +0.000 A 
ATOM     23  C   UNL     1      22.490   1.935  49.324  0.00  0.00    +0.000 A 
ATOM     24  C   UNL     1      21.949   2.208  48.068  0.00  0.00    +0.000 A 
ATOM     25  C   UNL     1      20.572   2.310  47.909  0.00  0.00    +0.000 A 
ATOM     26  C   UNL     1      19.696   2.108  48.987  0.00  0.00    +0.000 A 
ATOM     27  C   UNL     1      20.244   1.782  50.241  0.00  0.00    +0.000 A 
BRANCH  19  28
ATOM     28  C   UNL     1      18.264   1.125  51.701  0.00  0.00    +0.000 C 
BRANCH  28  29
ATOM     29  C   UNL     1      17.928  -0.373  51.740  0.00  0.00    +0.000 C 
BRANCH  29  30
ATOM     30  C   UNL     1      16.890  -0.678  52.818  0.00  0.00    +0.000 C 
BRANCH  30  32
ATOM     31  C   UNL     1      17.783  -2.747  53.618  0.00  0.00    +0.000 C 
ATOM     32  N   UNL     1      17.496  -1.357  53.966  0.00  0.00    +0.000 N 
ATOM     33  H   UNL     1      18.365  -0.884  54.219  0.00  0.00    +0.000 HD
ATOM     34  H   UNL     1      16.851  -1.330  54.755  0.00  0.00    +0.000 HD
ENDBRANCH  30  32
ENDBRANCH  29  30
ENDBRANCH  28  29
ENDBRANCH  19  28
ENDBRANCH   1  21
TORSDOF 6
ENDMDL
MODEL 3
REMARK VINA RESULT:    -8.846      1.384      2.330
REMARK INTER + INTRA:         -13.114
REMARK INTER:                 -12.885
REMARK INTRA:                  -0.228
REMARK UNBOUND:                -1.165
REMARK  Name = 
REMARK  8 active torsions:
REMARK  status: ('A' for Active; 'I' for Inactive)
REMARK    1  A    between atoms: C_1  and  N_2
REMARK    2  A    between atoms: N_2  and  C_3
REMARK    3  A    between atoms: C_3  and  C_4
REMARK    4  A    between atoms: C_4  and  C_5
REMARK    5  A    between atoms: C_5  and  N_6
REMARK    6  A    between atoms: C_8  and  C_9
REMARK    7  A    between atoms: C_10  and  C_11
REMARK    8  A    between atoms: N_13  and  C_14
REMARK                            x       y       z     vdW  Elec       q    Type
REMARK                         _______ _______ _______ _____ _____    ______ ____
ROOT
ATOM      1  C   UNL     1      23.371   0.909  52.777  0.00  0.00    +0.000 C 
ATOM      2  C   UNL     1      24.263   0.290  53.563  0.00  0.00    +0.000 C 
ATOM      3  C   UNL     1      23.497  -0.612  54.448  0.00  0.00    +0.000 C 
ATOM      4  O   UNL     1      23.950  -1.343  55.315  0.00  0.00    +0.000 OA
ATOM      5  N   UNL     1      22.192  -0.489  54.124  0.00  0.00    +0.000 N 
ATOM      6  C   UNL     1      22.031   0.404  53.128  0.00  0.00    +0.000 C 
ATOM      7  O   UNL     1      20.969   0.732  52.624  0.00  0.00    +0.000 OA
ATOM      8  H   UNL     1      21.458  -0.984  54.556  0.00  0.00    +0.000 HD
ENDROOT
BRANCH   2   9
ATOM      9  C   UNL     1      25.671   0.438  53.616  0.00  0.00    +0.000 A 
ATOM     10  C   UNL     1      26.330   1.604  53.938  0.00  0.00    +0.000 A 
ATOM     11  N   UNL     1      27.677   1.361  53.840  0.00  0.00    +0.000 N 
ATOM     12  C   UNL     1      28.712   2.348  54.058  0.00  0.00    +0.000 C 
ATOM     13  C   UNL     1      27.904   0.047  53.480  0.00  0.00    +0.000 A 
ATOM     14  C   UNL     1      29.100  -0.655  53.259  0.00  0.00    +0.000 A 
ATOM     15  C   UNL     1      29.015  -2.001  52.890  0.00  0.00    +0.000 A 
ATOM     16  C   UNL     1      27.780  -2.628  52.751  0.00  0.00    +0.000 A 
ATOM     17  C   UNL     1      26.594  -1.920  52.974  0.00  0.00    +0.000 A 
ATOM     18  C   UNL     1      26.651  -0.559  53.340  0.00  0.00    +0.000 A 
ENDBRANCH   2   9
BRANCH   1  21
ATOM     19  N   UNL     1      24.336   3.678  50.718  0.00  0.00    +0.000 N 
ATOM     20  C   UNL     1      24.407   2.963  51.890  0.00  0.00    +0.000 A 
ATOM     21  C   UNL     1      23.593   1.865  51.763  0.00  0.00    +0.000 A 
ATOM     22  C   UNL     1      22.994   1.902  50.478  0.00  0.00    +0.000 A 
ATOM     23  C   UNL     1      22.040   1.089  49.830  0.00  0.00    +0.000 A 
ATOM     24  C   UNL     1      21.633   1.399  48.533  0.00  0.00    +0.000 A 
ATOM     25  C   UNL     1      22.193   2.483  47.867  0.00  0.00    +0.000 A 
ATOM     26  C   UNL     1      23.147   3.306  48.485  0.00  0.00    +0.000 A 
ATOM     27  C   UNL     1      23.517   3.020  49.812  0.00  0.00    +0.000 A 
BRANCH  19  28
ATOM     28  C   UNL     1      24.914   5.007  50.576  0.00  0.00    +0.000 C 
BRANCH  28  29
ATOM     29  C   UNL     1      24.006   6.160  51.028  0.00  0.00    +0.000 C 
BRANCH  29  30
ATOM     30  C   UNL     1      24.602   7.513  50.647  0.00  0.00    +0.000 C 
BRANCH  30  32
ATOM     31  C   UNL     1      26.599   8.760  50.228  0.00  0.00    +0.000 C 
ATOM     32  N   UNL     1      26.065   7.491  50.717  0.00  0.00    +0.000 N 
ATOM     33  H   UNL     1      26.356   7.353  51.686  0.00  0.00    +0.000 HD
ATOM     34  H   UNL     1      26.422   6.728  50.143  0.00  0.00    +0.000 HD
ENDBRANCH  30  32
ENDBRANCH  29  30
ENDBRANCH  28  29
ENDBRANCH  19  28
ENDBRANCH   1  21
TORSDOF 6
ENDMDL
MODEL 4
REMARK VINA RESULT:    -8.462      2.045      5.609
REMARK INTER + INTRA:         -12.596
REMARK INTER:                 -11.383
REMARK INTRA:                  -1.212
REMARK UNBOUND:                -1.165
REMARK  Name = 
REMARK  8 active torsions:
REMARK  status: ('A' for Active; 'I' for Inactive)
REMARK    1  A    between atoms: C_1  and  N_2
REMARK    2  A    between atoms: N_2  and  C_3
REMARK    3  A    between atoms: C_3  and  C_4
REMARK    4  A    between atoms: C_4  and  C_5
REMARK    5  A    between atoms: C_5  and  N_6
REMARK    6  A    between atoms: C_8  and  C_9
REMARK    7  A    between atoms: C_10  and  C_11
REMARK    8  A    between atoms: N_13  and  C_14
REMARK                            x       y       z     vdW  Elec       q    Type
REMARK                         _______ _______ _______ _____ _____    ______ ____
ROOT
ATOM      1  C   UNL     1      21.756   0.142  53.525  0.00  0.00    +0.000 C 
ATOM      2  C   UNL     1      20.530   0.133  52.984  0.00  0.00    +0.000 C 
ATOM      3  C   UNL     1      19.789  -0.974  53.623  0.00  0.00    +0.000 C 
ATOM      4  O   UNL     1      18.640  -1.314  53.392  0.00  0.00    +0.000 OA
ATOM      5  N   UNL     1      20.615  -1.550  54.523  0.00  0.00    +0.000 N 
ATOM      6  C   UNL     1      21.816  -0.938  54.527  0.00  0.00    +0.000 C 
ATOM      7  O   UNL     1      22.770  -1.236  55.228  0.00  0.00    +0.000 OA
ATOM      8  H   UNL     1      20.375  -2.313  55.097  0.00  0.00    +0.000 HD
ENDROOT
BRANCH   2   9
ATOM      9  C   UNL     1      19.986   0.966  51.975  0.00  0.00    +0.000 A 
ATOM     10  C   UNL     1      18.823   1.695  52.095  0.00  0.00    +0.000 A 
ATOM     11  N   UNL     1      18.608   2.335  50.901  0.00  0.00    +0.000 N 
ATOM     12  C   UNL     1      17.463   3.169  50.607  0.00  0.00    +0.000 C 
ATOM     13  C   UNL     1      19.626   2.051  50.012  0.00  0.00    +0.000 A 
ATOM     14  C   UNL     1      19.837   2.467  48.688  0.00  0.00    +0.000 A 
ATOM     15  C   UNL     1      20.975   2.000  48.024  0.00  0.00    +0.000 A 
ATOM     16  C   UNL     1      21.877   1.151  48.660  0.00  0.00    +0.000 A 
ATOM     17  C   UNL     1      21.658   0.742  49.980  0.00  0.00    +0.000 A 
ATOM     18  C   UNL     1      20.513   1.192  50.671  0.00  0.00    +0.000 A 
ENDBRANCH   2   9
BRANCH   1  21
ATOM     19  N   UNL     1      23.990   2.856  52.830  0.00  0.00    +0.000 N 
ATOM     20  C   UNL     1      22.742   2.368  53.136  0.00  0.00    +0.000 A 
ATOM     21  C   UNL     1      22.840   1.005  53.255  0.00  0.00    +0.000 A 
ATOM     22  C   UNL     1      24.186   0.632  53.011  0.00  0.00    +0.000 A 
ATOM     23  C   UNL     1      24.850  -0.611  52.936  0.00  0.00    +0.000 A 
ATOM     24  C   UNL     1      26.216  -0.650  52.661  0.00  0.00    +0.000 A 
ATOM     25  C   UNL     1      26.930   0.532  52.501  0.00  0.00    +0.000 A 
ATOM     26  C   UNL     1      26.296   1.783  52.574  0.00  0.00    +0.000 A 
ATOM     27  C   UNL     1      24.908   1.816  52.801  0.00  0.00    +0.000 A 
BRANCH  19  28
ATOM     28  C   UNL     1      24.215   4.239  52.432  0.00  0.00    +0.000 C 
BRANCH  28  29
ATOM     29  C   UNL     1      23.463   4.680  51.168  0.00  0.00    +0.000 C 
BRANCH  29  30
ATOM     30  C   UNL     1      24.430   4.954  50.019  0.00  0.00    +0.000 C 
BRANCH  30  32
ATOM     31  C   UNL     1      26.530   3.935  49.496  0.00  0.00    +0.000 C 
ATOM     32  N   UNL     1      25.823   4.795  50.444  0.00  0.00    +0.000 N 
ATOM     33  H   UNL     1      26.275   5.710  50.474  0.00  0.00    +0.000 HD
ATOM     34  H   UNL     1      25.849   4.371  51.371  0.00  0.00    +0.000 HD
ENDBRANCH  30  32
ENDBRANCH  29  30
ENDBRANCH  28  29
ENDBRANCH  19  28
ENDBRANCH   1  21
TORSDOF 6
ENDMDL
MODEL 5
REMARK VINA RESULT:    -8.407      2.208      5.440
REMARK INTER + INTRA:         -12.521
REMARK INTER:                 -11.210
REMARK INTRA:                  -1.311
REMARK UNBOUND:                -1.165
REMARK  Name = 
REMARK  8 active torsions:
REMARK  status: ('A' for Active; 'I' for Inactive)
REMARK    1  A    between atoms: C_1  and  N_2
REMARK    2  A    between atoms: N_2  and  C_3
REMARK    3  A    between atoms: C_3  and  C_4
REMARK    4  A    between atoms: C_4  and  C_5
REMARK    5  A    between atoms: C_5  and  N_6
REMARK    6  A    between atoms: C_8  and  C_9
REMARK    7  A    between atoms: C_10  and  C_11
REMARK    8  A    between atoms: N_13  and  C_14
REMARK                            x       y       z     vdW  Elec       q    Type
REMARK                         _______ _______ _______ _____ _____    ______ ____
ROOT
ATOM      1  C   UNL     1      24.929   2.024  52.925  0.00  0.00    +0.000 C 
ATOM      2  C   UNL     1      24.115   0.983  53.147  0.00  0.00    +0.000 C 
ATOM      3  C   UNL     1      24.880   0.007  53.950  0.00  0.00    +0.000 C 
ATOM      4  O   UNL     1      24.489  -1.079  54.348  0.00  0.00    +0.000 OA
ATOM      5  N   UNL     1      26.103   0.534  54.175  0.00  0.00    +0.000 N 
ATOM      6  C   UNL     1      26.213   1.745  53.594  0.00  0.00    +0.000 C 
ATOM      7  O   UNL     1      27.199   2.464  53.617  0.00  0.00    +0.000 OA
ATOM      8  H   UNL     1      26.817   0.095  54.692  0.00  0.00    +0.000 HD
ENDROOT
BRANCH   2   9
ATOM      9  C   UNL     1      22.785   0.771  52.708  0.00  0.00    +0.000 A 
ATOM     10  C   UNL     1      21.769   0.257  53.484  0.00  0.00    +0.000 A 
ATOM     11  N   UNL     1      20.649   0.165  52.697  0.00  0.00    +0.000 N 
ATOM     12  C   UNL     1      19.378  -0.371  53.132  0.00  0.00    +0.000 C 
ATOM     13  C   UNL     1      20.915   0.634  51.426  0.00  0.00    +0.000 A 
ATOM     14  C   UNL     1      20.094   0.735  50.290  0.00  0.00    +0.000 A 
ATOM     15  C   UNL     1      20.654   1.251  49.118  0.00  0.00    +0.000 A 
ATOM     16  C   UNL     1      21.984   1.659  49.079  0.00  0.00    +0.000 A 
ATOM     17  C   UNL     1      22.793   1.554  50.216  0.00  0.00    +0.000 A 
ATOM     18  C   UNL     1      22.257   1.029  51.410  0.00  0.00    +0.000 A 
ENDBRANCH   2   9
BRANCH   1  21
ATOM     19  N   UNL     1      23.698   5.098  51.556  0.00  0.00    +0.000 N 
ATOM     20  C   UNL     1      23.650   4.086  52.485  0.00  0.00    +0.000 A 
ATOM     21  C   UNL     1      24.675   3.215  52.211  0.00  0.00    +0.000 A 
ATOM     22  C   UNL     1      25.375   3.695  51.075  0.00  0.00    +0.000 A 
ATOM     23  C   UNL     1      26.454   3.191  50.317  0.00  0.00    +0.000 A 
ATOM     24  C   UNL     1      26.923   3.910  49.219  0.00  0.00    +0.000 A 
ATOM     25  C   UNL     1      26.356   5.138  48.895  0.00  0.00    +0.000 A 
ATOM     26  C   UNL     1      25.285   5.665  49.634  0.00  0.00    +0.000 A 
ATOM     27  C   UNL     1      24.781   4.911  50.710  0.00  0.00    +0.000 A 
BRANCH  19  28
ATOM     28  C   UNL     1      22.638   6.088  51.422  0.00  0.00    +0.000 C 
BRANCH  28  29
ATOM     29  C   UNL     1      21.603   5.786  50.327  0.00  0.00    +0.000 C 
BRANCH  29  30
ATOM     30  C   UNL     1      20.516   4.845  50.841  0.00  0.00    +0.000 C 
BRANCH  30  32
ATOM     31  C   UNL     1      18.298   4.045  50.443  0.00  0.00    +0.000 C 
ATOM     32  N   UNL     1      19.498   4.596  49.817  0.00  0.00    +0.000 N 
ATOM     33  H   UNL     1      19.264   5.474  49.351  0.00  0.00    +0.000 HD
ATOM     34  H   UNL     1      19.860   3.932  49.133  0.00  0.00    +0.000 HD
ENDBRANCH  30  32
ENDBRANCH  29  30
ENDBRANCH  28  29
ENDBRANCH  19  28
ENDBRANCH   1  21
TORSDOF 6
ENDMDL
MODEL 6
REMARK VINA RESULT:    -8.349      2.373      5.439
REMARK INTER + INTRA:         -12.443
REMARK INTER:                 -11.091
REMARK INTRA:                  -1.353
REMARK UNBOUND:                -1.165
REMARK  Name = 
REMARK  8 active torsions:
REMARK  status: ('A' for Active; 'I' for Inactive)
REMARK    1  A    between atoms: C_1  and  N_2
REMARK    2  A    between atoms: N_2  and  C_3
REMARK    3  A    between atoms: C_3  and  C_4
REMARK    4  A    between atoms: C_4  and  C_5
REMARK    5  A    between atoms: C_5  and  N_6
REMARK    6  A    between atoms: C_8  and  C_9
REMARK    7  A    between atoms: C_10  and  C_11
REMARK    8  A    between atoms: N_13  and  C_14
REMARK                            x       y       z     vdW  Elec       q    Type
REMARK                         _______ _______ _______ _____ _____    ______ ____
ROOT
ATOM      1  C   UNL     1      23.538   1.153  52.194  0.00  0.00    +0.000 C 
ATOM      2  C   UNL     1      24.424   2.150  52.328  0.00  0.00    +0.000 C 
ATOM      3  C   UNL     1      25.441   1.689  53.296  0.00  0.00    +0.000 C 
ATOM      4  O   UNL     1      26.411   2.317  53.691  0.00  0.00    +0.000 OA
ATOM      5  N   UNL     1      25.110   0.434  53.668  0.00  0.00    +0.000 N 
ATOM      6  C   UNL     1      23.980   0.037  53.051  0.00  0.00    +0.000 C 
ATOM      7  O   UNL     1      23.430  -1.043  53.188  0.00  0.00    +0.000 OA
ATOM      8  H   UNL     1      25.623  -0.116  54.304  0.00  0.00    +0.000 HD
ENDROOT
BRANCH   2   9
ATOM      9  C   UNL     1      24.436   3.431  51.722  0.00  0.00    +0.000 A 
ATOM     10  C   UNL     1      23.540   4.441  51.995  0.00  0.00    +0.000 A 
ATOM     11  N   UNL     1      23.851   5.503  51.182  0.00  0.00    +0.000 N 
ATOM     12  C   UNL     1      23.116   6.747  51.134  0.00  0.00    +0.000 C 
ATOM     13  C   UNL     1      24.951   5.206  50.402  0.00  0.00    +0.000 A 
ATOM     14  C   UNL     1      25.626   5.965  49.433  0.00  0.00    +0.000 A 
ATOM     15  C   UNL     1      26.723   5.385  48.789  0.00  0.00    +0.000 A 
ATOM     16  C   UNL     1      27.137   4.094  49.103  0.00  0.00    +0.000 A 
ATOM     17  C   UNL     1      26.458   3.345  50.070  0.00  0.00    +0.000 A 
ATOM     18  C   UNL     1      25.343   3.903  50.730  0.00  0.00    +0.000 A 
ENDBRANCH   2   9
BRANCH   1  21
ATOM     19  N   UNL     1      21.024   1.347  49.649  0.00  0.00    +0.000 N 
ATOM     20  C   UNL     1      22.315   1.522  50.085  0.00  0.00    +0.000 A 
ATOM     21  C   UNL     1      22.381   1.095  51.387  0.00  0.00    +0.000 A 
ATOM     22  C   UNL     1      21.093   0.647  51.775  0.00  0.00    +0.000 A 
ATOM     23  C   UNL     1      20.557   0.170  52.990  0.00  0.00    +0.000 A 
ATOM     24  C   UNL     1      19.213  -0.192  53.058  0.00  0.00    +0.000 A 
ATOM     25  C   UNL     1      18.412  -0.119  51.924  0.00  0.00    +0.000 A 
ATOM     26  C   UNL     1      18.919   0.348  50.702  0.00  0.00    +0.000 A 
ATOM     27  C   UNL     1      20.263   0.760  50.650  0.00  0.00    +0.000 A 
BRANCH  19  28
ATOM     28  C   UNL     1      20.546   1.882  48.381  0.00  0.00    +0.000 C 
BRANCH  28  29
ATOM     29  C   UNL     1      20.338   3.403  48.356  0.00  0.00    +0.000 C 
BRANCH  29  30
ATOM     30  C   UNL     1      18.907   3.771  48.741  0.00  0.00    +0.000 C 
BRANCH  30  32
ATOM     31  C   UNL     1      20.013   4.711  50.642  0.00  0.00    +0.000 C 
ATOM     32  N   UNL     1      18.795   4.051  50.175  0.00  0.00    +0.000 N 
ATOM     33  H   UNL     1      17.994   4.663  50.339  0.00  0.00    +0.000 HD
ATOM     34  H   UNL     1      18.666   3.177  50.684  0.00  0.00    +0.000 HD
ENDBRANCH  30  32
ENDBRANCH  29  30
ENDBRANCH  28  29
ENDBRANCH  19  28
ENDBRANCH   1  21
TORSDOF 6
ENDMDL
MODEL 7
REMARK VINA RESULT:    -8.279      2.390      5.731
REMARK INTER + INTRA:         -12.348
REMARK INTER:                 -11.147
REMARK INTRA:                  -1.200
REMARK UNBOUND:                -1.165
REMARK  Name = 
REMARK  8 active torsions:
REMARK  status: ('A' for Active; 'I' for Inactive)
REMARK    1  A    between atoms: C_1  and  N_2
REMARK    2  A    between atoms: N_2  and  C_3
REMARK    3  A    between atoms: C_3  and  C_4
REMARK    4  A    between atoms: C_4  and  C_5
REMARK    5  A    between atoms: C_5  and  N_6
REMARK    6  A    between atoms: C_8  and  C_9
REMARK    7  A    between atoms: C_10  and  C_11
REMARK    8  A    between atoms: N_13  and  C_14
REMARK                            x       y       z     vdW  Elec       q    Type
REMARK                         _______ _______ _______ _____ _____    ______ ____
ROOT
ATOM      1  C   UNL     1      24.489   2.156  52.346  0.00  0.00    +0.000 C 
ATOM      2  C   UNL     1      23.588   1.171  52.227  0.00  0.00    +0.000 C 
ATOM      3  C   UNL     1      24.042   0.069  53.101  0.00  0.00    +0.000 C 
ATOM      4  O   UNL     1      23.495  -1.011  53.260  0.00  0.00    +0.000 OA
ATOM      5  N   UNL     1      25.182   0.470  53.704  0.00  0.00    +0.000 N 
ATOM      6  C   UNL     1      25.518   1.713  53.306  0.00  0.00    +0.000 C 
ATOM      7  O   UNL     1      26.498   2.342  53.672  0.00  0.00    +0.000 OA
ATOM      8  H   UNL     1      25.697  -0.069  54.346  0.00  0.00    +0.000 HD
ENDROOT
BRANCH   2   9
ATOM      9  C   UNL     1      22.423   1.110  51.423  0.00  0.00    +0.000 A 
ATOM     10  C   UNL     1      22.342   1.542  50.117  0.00  0.00    +0.000 A 
ATOM     11  N   UNL     1      21.048   1.357  49.698  0.00  0.00    +0.000 N 
ATOM     12  C   UNL     1      20.543   1.727  48.394  0.00  0.00    +0.000 C 
ATOM     13  C   UNL     1      20.292   0.789  50.705  0.00  0.00    +0.000 A 
ATOM     14  C   UNL     1      18.938   0.422  50.745  0.00  0.00    +0.000 A 
ATOM     15  C   UNL     1      18.441  -0.133  51.928  0.00  0.00    +0.000 A 
ATOM     16  C   UNL     1      19.268  -0.322  53.032  0.00  0.00    +0.000 A 
ATOM     17  C   UNL     1      20.616   0.047  52.982  0.00  0.00    +0.000 A 
ATOM     18  C   UNL     1      21.141   0.617  51.803  0.00  0.00    +0.000 A 
ENDBRANCH   2   9
BRANCH   1  21
ATOM     19  N   UNL     1      23.932   5.484  51.142  0.00  0.00    +0.000 N 
ATOM     20  C   UNL     1      23.618   4.431  51.969  0.00  0.00    +0.000 A 
ATOM     21  C   UNL     1      24.512   3.420  51.719  0.00  0.00    +0.000 A 
ATOM     22  C   UNL     1      25.404   3.853  50.706  0.00  0.00    +0.000 A 
ATOM     23  C   UNL     1      26.464   3.229  50.015  0.00  0.00    +0.000 A 
ATOM     24  C   UNL     1      27.164   3.935  49.037  0.00  0.00    +0.000 A 
ATOM     25  C   UNL     1      26.843   5.261  48.770  0.00  0.00    +0.000 A 
ATOM     26  C   UNL     1      25.795   5.908  49.444  0.00  0.00    +0.000 A 
ATOM     27  C   UNL     1      25.059   5.177  50.394  0.00  0.00    +0.000 A 
BRANCH  19  28
ATOM     28  C   UNL     1      23.068   6.647  50.994  0.00  0.00    +0.000 C 
BRANCH  28  29
ATOM     29  C   UNL     1      21.591   6.405  51.338  0.00  0.00    +0.000 C 
BRANCH  29  30
ATOM     30  C   UNL     1      20.711   6.509  50.095  0.00  0.00    +0.000 C 
BRANCH  30  32
ATOM     31  C   UNL     1      19.579   4.479  50.657  0.00  0.00    +0.000 C 
ATOM     32  N   UNL     1      20.313   5.185  49.609  0.00  0.00    +0.000 N 
ATOM     33  H   UNL     1      19.716   5.290  48.788  0.00  0.00    +0.000 HD
ATOM     34  H   UNL     1      21.146   4.651  49.359  0.00  0.00    +0.000 HD
ENDBRANCH  30  32
ENDBRANCH  29  30
ENDBRANCH  28  29
ENDBRANCH  19  28
ENDBRANCH   1  21
TORSDOF 6
ENDMDL
MODEL 8
REMARK VINA RESULT:    -8.084      3.239      5.453
REMARK INTER + INTRA:         -12.084
REMARK INTER:                 -11.226
REMARK INTRA:                  -0.858
REMARK UNBOUND:                -1.165
REMARK  Name = 
REMARK  8 active torsions:
REMARK  status: ('A' for Active; 'I' for Inactive)
REMARK    1  A    between atoms: C_1  and  N_2
REMARK    2  A    between atoms: N_2  and  C_3
REMARK    3  A    between atoms: C_3  and  C_4
REMARK    4  A    between atoms: C_4  and  C_5
REMARK    5  A    between atoms: C_5  and  N_6
REMARK    6  A    between atoms: C_8  and  C_9
REMARK    7  A    between atoms: C_10  and  C_11
REMARK    8  A    between atoms: N_13  and  C_14
REMARK                            x       y       z     vdW  Elec       q    Type
REMARK                         _______ _______ _______ _____ _____    ______ ____
ROOT
ATOM      1  C   UNL     1      20.344   0.043  52.868  0.00  0.00    +0.000 C 
ATOM      2  C   UNL     1      21.555   0.178  53.426  0.00  0.00    +0.000 C 
ATOM      3  C   UNL     1      21.655  -0.850  54.482  0.00  0.00    +0.000 C 
ATOM      4  O   UNL     1      22.604  -1.044  55.225  0.00  0.00    +0.000 OA
ATOM      5  N   UNL     1      20.500  -1.550  54.480  0.00  0.00    +0.000 N 
ATOM      6  C   UNL     1      19.660  -1.078  53.538  0.00  0.00    +0.000 C 
ATOM      7  O   UNL     1      18.540  -1.502  53.300  0.00  0.00    +0.000 OA
ATOM      8  H   UNL     1      20.299  -2.303  55.082  0.00  0.00    +0.000 HD
ENDROOT
BRANCH   2   9
ATOM      9  C   UNL     1      22.579   1.114  53.137  0.00  0.00    +0.000 A 
ATOM     10  C   UNL     1      22.401   2.477  53.051  0.00  0.00    +0.000 A 
ATOM     11  N   UNL     1      23.610   3.034  52.714  0.00  0.00    +0.000 N 
ATOM     12  C   UNL     1      23.833   4.444  52.484  0.00  0.00    +0.000 C 
ATOM     13  C   UNL     1      24.577   2.054  52.603  0.00  0.00    +0.000 A 
ATOM     14  C   UNL     1      25.941   2.137  52.281  0.00  0.00    +0.000 A 
ATOM     15  C   UNL     1      26.680   0.951  52.235  0.00  0.00    +0.000 A 
ATOM     16  C   UNL     1      26.082  -0.276  52.507  0.00  0.00    +0.000 A 
ATOM     17  C   UNL     1      24.722  -0.348  52.827  0.00  0.00    +0.000 A 
ATOM     18  C   UNL     1      23.951   0.832  52.872  0.00  0.00    +0.000 A 
ENDBRANCH   2   9
BRANCH   1  21
ATOM     19  N   UNL     1      18.264   1.905  50.622  0.00  0.00    +0.000 N 
ATOM     20  C   UNL     1      18.485   1.286  51.829  0.00  0.00    +0.000 A 
ATOM     21  C   UNL     1      19.762   0.784  51.816  0.00  0.00    +0.000 A 
ATOM     22  C   UNL     1      20.350   1.093  50.564  0.00  0.00    +0.000 A 
ATOM     23  C   UNL     1      21.593   0.783  49.973  0.00  0.00    +0.000 A 
ATOM     24  C   UNL     1      21.880   1.236  48.686  0.00  0.00    +0.000 A 
ATOM     25  C   UNL     1      20.962   2.024  48.003  0.00  0.00    +0.000 A 
ATOM     26  C   UNL     1      19.719   2.351  48.567  0.00  0.00    +0.000 A 
ATOM     27  C   UNL     1      19.412   1.849  49.845  0.00  0.00    +0.000 A 
BRANCH  19  28
ATOM     28  C   UNL     1      16.947   2.372  50.211  0.00  0.00    +0.000 C 
BRANCH  28  29
ATOM     29  C   UNL     1      16.758   3.896  50.249  0.00  0.00    +0.000 C 
BRANCH  29  30
ATOM     30  C   UNL     1      15.633   4.289  51.204  0.00  0.00    +0.000 C 
BRANCH  30  32
ATOM     31  C   UNL     1      14.916   4.269  53.485  0.00  0.00    +0.000 C 
ATOM     32  N   UNL     1      16.078   4.249  52.599  0.00  0.00    +0.000 N 
ATOM     33  H   UNL     1      16.613   3.395  52.760  0.00  0.00    +0.000 HD
ATOM     34  H   UNL     1      16.666   5.061  52.791  0.00  0.00    +0.000 HD
ENDBRANCH  30  32
ENDBRANCH  29  30
ENDBRANCH  28  29
ENDBRANCH  19  28
ENDBRANCH   1  21
TORSDOF 6
ENDMDL
MODEL 9
REMARK VINA RESULT:    -8.055      2.601      6.364
REMARK INTER + INTRA:         -12.046
REMARK INTER:                 -10.577
REMARK INTRA:                  -1.469
REMARK UNBOUND:                -1.165
REMARK  Name = 
REMARK  8 active torsions:
REMARK  status: ('A' for Active; 'I' for Inactive)
REMARK    1  A    between atoms: C_1  and  N_2
REMARK    2  A    between atoms: N_2  and  C_3
REMARK    3  A    between atoms: C_3  and  C_4
REMARK    4  A    between atoms: C_4  and  C_5
REMARK    5  A    between atoms: C_5  and  N_6
REMARK    6  A    between atoms: C_8  and  C_9
REMARK    7  A    between atoms: C_10  and  C_11
REMARK    8  A    between atoms: N_13  and  C_14
REMARK                            x       y       z     vdW  Elec       q    Type
REMARK                         _______ _______ _______ _____ _____    ______ ____
ROOT
ATOM      1  C   UNL     1      20.750   0.082  52.356  0.00  0.00    +0.000 C 
ATOM      2  C   UNL     1      20.021   0.549  51.332  0.00  0.00    +0.000 C 
ATOM      3  C   UNL     1      18.652   0.022  51.509  0.00  0.00    +0.000 C 
ATOM      4  O   UNL     1      17.695   0.214  50.776  0.00  0.00    +0.000 OA
ATOM      5  N   UNL     1      18.642  -0.716  52.641  0.00  0.00    +0.000 N 
ATOM      6  C   UNL     1      19.863  -0.729  53.210  0.00  0.00    +0.000 C 
ATOM      7  O   UNL     1      20.169  -1.313  54.238  0.00  0.00    +0.000 OA
ATOM      8  H   UNL     1      17.852  -1.180  53.001  0.00  0.00    +0.000 HD
ENDROOT
BRANCH   2   9
ATOM      9  C   UNL     1      20.417   1.364  50.244  0.00  0.00    +0.000 A 
ATOM     10  C   UNL     1      21.316   0.994  49.267  0.00  0.00    +0.000 A 
ATOM     11  N   UNL     1      21.470   2.061  48.418  0.00  0.00    +0.000 N 
ATOM     12  C   UNL     1      22.366   2.089  47.283  0.00  0.00    +0.000 C 
ATOM     13  C   UNL     1      20.666   3.112  48.815  0.00  0.00    +0.000 A 
ATOM     14  C   UNL     1      20.487   4.393  48.269  0.00  0.00    +0.000 A 
ATOM     15  C   UNL     1      19.595   5.261  48.905  0.00  0.00    +0.000 A 
ATOM     16  C   UNL     1      18.900   4.865  50.045  0.00  0.00    +0.000 A 
ATOM     17  C   UNL     1      19.085   3.586  50.581  0.00  0.00    +0.000 A 
ATOM     18  C   UNL     1      19.985   2.693  49.963  0.00  0.00    +0.000 A 
ENDBRANCH   2   9
BRANCH   1  21
ATOM     19  N   UNL     1      24.225  -0.099  53.212  0.00  0.00    +0.000 N 
ATOM     20  C   UNL     1      23.014  -0.695  52.950  0.00  0.00    +0.000 A 
ATOM     21  C   UNL     1      22.115   0.297  52.645  0.00  0.00    +0.000 A 
ATOM     22  C   UNL     1      22.784   1.545  52.726  0.00  0.00    +0.000 A 
ATOM     23  C   UNL     1      22.360   2.883  52.583  0.00  0.00    +0.000 A 
ATOM     24  C   UNL     1      23.280   3.920  52.736  0.00  0.00    +0.000 A 
ATOM     25  C   UNL     1      24.616   3.635  52.990  0.00  0.00    +0.000 A 
ATOM     26  C   UNL     1      25.067   2.313  53.133  0.00  0.00    +0.000 A 
ATOM     27  C   UNL     1      24.126   1.272  53.029  0.00  0.00    +0.000 A 
BRANCH  19  28
ATOM     28  C   UNL     1      25.354  -0.833  53.767  0.00  0.00    +0.000 C 
BRANCH  28  29
ATOM     29  C   UNL     1      26.384  -1.315  52.735  0.00  0.00    +0.000 C 
BRANCH  29  30
ATOM     30  C   UNL     1      27.748  -0.673  52.977  0.00  0.00    +0.000 C 
BRANCH  30  32
ATOM     31  C   UNL     1      28.743   0.562  54.767  0.00  0.00    +0.000 C 
ATOM     32  N   UNL     1      28.106  -0.700  54.398  0.00  0.00    +0.000 N 
ATOM     33  H   UNL     1      27.263  -0.830  54.958  0.00  0.00    +0.000 HD
ATOM     34  H   UNL     1      28.752  -1.470  54.571  0.00  0.00    +0.000 HD
ENDBRANCH  30  32
ENDBRANCH  29  30
ENDBRANCH  28  29
ENDBRANCH  19  28
ENDBRANCH   1  21
TORSDOF 6
ENDMDL
