MODEL 1
REMARK VINA RESULT:    -8.062      0.000      0.000
REMARK INTER + INTRA:         -14.173
REMARK INTER:                 -12.775
REMARK INTRA:                  -1.397
REMARK UNBOUND:                -1.397
REMARK  Name = 
REMARK  14 active torsions:
REMARK  status: ('A' for Active; 'I' for Inactive)
REMARK    1  A    between atoms: C_1  and  C_2
REMARK    2  A    between atoms: C_2  and  C_3
REMARK    3  A    between atoms: C_3  and  C_4
REMARK    4  A    between atoms: C_4  and  C_5
REMARK    5  A    between atoms: C_5  and  C_6
REMARK    6  A    between atoms: C_6  and  O_8
REMARK    7  A    between atoms: O_8  and  C_9
REMARK    8  A    between atoms: C_9  and  C_10
REMARK    9  A    between atoms: C_9  and  C_15
REMARK   10  A    between atoms: C_10  and  C_11
REMARK   11  A    between atoms: C_12  and  C_13
REMARK   12  A    between atoms: C_12  and  C_14
REMARK   13  A    between atoms: C_20  and  O_21
REMARK   14  A    between atoms: C_24  and  O_25
REMARK                            x       y       z     vdW  Elec       q    Type
REMARK                         _______ _______ _______ _____ _____    ______ ____
ROOT
ATOM      1  C   UNL     1      25.240   1.064  52.707  0.00  0.00    +0.000 C 
ATOM      2  C   UNL     1      26.079   2.055  53.038  0.00  0.00    +0.000 C 
ATOM      3  C   UNL     1      27.452   1.808  53.516  0.00  0.00    +0.000 C 
ATOM      4  O   UNL     1      28.151   2.723  53.934  0.00  0.00    +0.000 OA
ATOM      5  C   UNL     1      27.988   0.441  53.398  0.00  0.00    +0.000 A 
ATOM      6  C   UNL     1      29.342   0.179  53.625  0.00  0.00    +0.000 A 
ATOM      7  C   UNL     1      29.847  -1.106  53.441  0.00  0.00    +0.000 A 
ATOM      8  C   UNL     1      29.013  -2.131  53.000  0.00  0.00    +0.000 A 
ATOM      9  C   UNL     1      27.656  -1.870  52.779  0.00  0.00    +0.000 A 
ATOM     10  C   UNL     1      27.136  -0.593  53.021  0.00  0.00    +0.000 A 
ATOM     11  C   UNL     1      25.691  -0.340  52.946  0.00  0.00    +0.000 C 
ATOM     12  O   UNL     1      24.876  -1.225  53.137  0.00  0.00    +0.000 OA
ENDROOT
BRANCH   6  13
ATOM     13  O   UNL     1      30.237   1.135  54.019  0.00  0.00    +0.000 OA
ATOM     14  H   UNL     1      29.954   1.843  54.564  0.00  0.00    +0.000 HD
ENDBRANCH   6  13
BRANCH   9  15
ATOM     15  O   UNL     1      26.864  -2.856  52.274  0.00  0.00    +0.000 OA
ATOM     16  H   UNL     1      26.112  -2.636  51.760  0.00  0.00    +0.000 HD
ENDBRANCH   9  15
BRANCH   1  17
ATOM     17  C   UNL     1      23.824   1.177  52.179  0.00  0.00    +0.000 C 
BRANCH  17  18
ATOM     18  O   UNL     1      23.667   2.508  51.585  0.00  0.00    +0.000 OA
BRANCH  18  19
ATOM     19  C   UNL     1      23.346   2.563  50.253  0.00  0.00    +0.000 C 
ATOM     20  O   UNL     1      22.681   1.727  49.659  0.00  0.00    +0.000 OA
BRANCH  19  21
ATOM     21  C   UNL     1      23.832   3.846  49.595  0.00  0.00    +0.000 C 
BRANCH  21  22
ATOM     22  C   UNL     1      25.178   4.418  50.052  0.00  0.00    +0.000 C 
BRANCH  22  23
ATOM     23  C   UNL     1      26.457   3.676  49.631  0.00  0.00    +0.000 C 
BRANCH  23  25
ATOM     24  C   UNL     1      26.984   5.979  48.689  0.00  0.00    +0.000 C 
ATOM     25  C   UNL     1      27.423   4.522  48.796  0.00  0.00    +0.000 C 
ENDBRANCH  23  25
ENDBRANCH  22  23
ENDBRANCH  21  22
ENDBRANCH  19  21
ENDBRANCH  18  19
ENDBRANCH  17  18
BRANCH  17  26
ATOM     26  C   UNL     1      22.689   0.918  53.222  0.00  0.00    +0.000 C 
BRANCH  26  27
ATOM     27  C   UNL     1      21.438   0.257  52.681  0.00  0.00    +0.000 C 
ATOM     28  C   UNL     1      20.308   0.841  52.225  0.00  0.00    +0.000 C 
ATOM     29  C   UNL     1      19.153  -0.012  51.764  0.00  0.00    +0.000 C 
ATOM     30  C   UNL     1      20.052   2.325  52.160  0.00  0.00    +0.000 C 
ENDBRANCH  26  27
ENDBRANCH  17  26
ENDBRANCH   1  17
TORSDOF 11
ENDMDL
MODEL 2
REMARK VINA RESULT:    -8.003      1.411      5.190
REMARK INTER + INTRA:         -14.079
REMARK INTER:                 -12.923
REMARK INTRA:                  -1.156
REMARK UNBOUND:                -1.397
REMARK  Name = 
REMARK  14 active torsions:
REMARK  status: ('A' for Active; 'I' for Inactive)
REMARK    1  A    between atoms: C_1  and  C_2
REMARK    2  A    between atoms: C_2  and  C_3
REMARK    3  A    between atoms: C_3  and  C_4
REMARK    4  A    between atoms: C_4  and  C_5
REMARK    5  A    between atoms: C_5  and  C_6
REMARK    6  A    between atoms: C_6  and  O_8
REMARK    7  A    between atoms: O_8  and  C_9
REMARK    8  A    between atoms: C_9  and  C_10
REMARK    9  A    between atoms: C_9  and  C_15
REMARK   10  A    between atoms: C_10  and  C_11
REMARK   11  A    between atoms: C_12  and  C_13
REMARK   12  A    between atoms: C_12  and  C_14
REMARK   13  A    between atoms: C_20  and  O_21
REMARK   14  A    between atoms: C_24  and  O_25
REMARK                            x       y       z     vdW  Elec       q    Type
REMARK                         _______ _______ _______ _____ _____    ______ ____
ROOT
ATOM      1  C   UNL     1      25.794   0.970  52.441  0.00  0.00    +0.000 C 
ATOM      2  C   UNL     1      25.544  -0.334  52.266  0.00  0.00    +0.000 C 
ATOM      3  C   UNL     1      26.595  -1.364  52.360  0.00  0.00    +0.000 C 
ATOM      4  O   UNL     1      26.365  -2.532  52.068  0.00  0.00    +0.000 OA
ATOM      5  C   UNL     1      27.907  -0.965  52.897  0.00  0.00    +0.000 A 
ATOM      6  C   UNL     1      28.873  -1.922  53.218  0.00  0.00    +0.000 A 
ATOM      7  C   UNL     1      30.082  -1.533  53.789  0.00  0.00    +0.000 A 
ATOM      8  C   UNL     1      30.324  -0.191  54.074  0.00  0.00    +0.000 A 
ATOM      9  C   UNL     1      29.359   0.768  53.746  0.00  0.00    +0.000 A 
ATOM     10  C   UNL     1      28.168   0.384  53.118  0.00  0.00    +0.000 A 
ATOM     11  C   UNL     1      27.216   1.389  52.625  0.00  0.00    +0.000 C 
ATOM     12  O   UNL     1      27.574   2.511  52.312  0.00  0.00    +0.000 OA
ENDROOT
BRANCH   6  13
ATOM     13  O   UNL     1      28.701  -3.263  53.010  0.00  0.00    +0.000 OA
ATOM     14  H   UNL     1      28.412  -3.811  53.713  0.00  0.00    +0.000 HD
ENDBRANCH   6  13
BRANCH   9  15
ATOM     15  O   UNL     1      29.568   2.067  54.097  0.00  0.00    +0.000 OA
ATOM     16  H   UNL     1      30.415   2.453  53.985  0.00  0.00    +0.000 HD
ENDBRANCH   9  15
BRANCH   1  17
ATOM     17  C   UNL     1      24.811   2.122  52.400  0.00  0.00    +0.000 C 
BRANCH  17  18
ATOM     18  O   UNL     1      23.638   1.746  53.195  0.00  0.00    +0.000 OA
BRANCH  18  19
ATOM     19  C   UNL     1      22.415   1.833  52.581  0.00  0.00    +0.000 C 
ATOM     20  O   UNL     1      21.762   2.860  52.466  0.00  0.00    +0.000 OA
BRANCH  19  21
ATOM     21  C   UNL     1      21.984   0.511  51.962  0.00  0.00    +0.000 C 
BRANCH  21  22
ATOM     22  C   UNL     1      21.354  -0.538  52.884  0.00  0.00    +0.000 C 
BRANCH  22  23
ATOM     23  C   UNL     1      21.539  -0.370  54.401  0.00  0.00    +0.000 C 
BRANCH  23  25
ATOM     24  C   UNL     1      23.725  -1.190  55.410  0.00  0.00    +0.000 C 
ATOM     25  C   UNL     1      22.278  -1.532  55.071  0.00  0.00    +0.000 C 
ENDBRANCH  23  25
ENDBRANCH  22  23
ENDBRANCH  21  22
ENDBRANCH  19  21
ENDBRANCH  18  19
ENDBRANCH  17  18
BRANCH  17  26
ATOM     26  C   UNL     1      24.366   2.583  50.974  0.00  0.00    +0.000 C 
BRANCH  26  27
ATOM     27  C   UNL     1      24.629   4.038  50.642  0.00  0.00    +0.000 C 
ATOM     28  C   UNL     1      25.649   4.566  49.929  0.00  0.00    +0.000 C 
ATOM     29  C   UNL     1      25.746   6.061  49.749  0.00  0.00    +0.000 C 
ATOM     30  C   UNL     1      26.772   3.787  49.294  0.00  0.00    +0.000 C 
ENDBRANCH  26  27
ENDBRANCH  17  26
ENDBRANCH   1  17
TORSDOF 11
ENDMDL
MODEL 3
REMARK VINA RESULT:    -7.984      2.027      5.059
REMARK INTER + INTRA:         -14.050
REMARK INTER:                 -13.102
REMARK INTRA:                  -0.947
REMARK UNBOUND:                -1.397
REMARK  Name = 
REMARK  14 active torsions:
REMARK  status: ('A' for Active; 'I' for Inactive)
REMARK    1  A    between atoms: C_1  and  C_2
REMARK    2  A    between atoms: C_2  and  C_3
REMARK    3  A    between atoms: C_3  and  C_4
REMARK    4  A    between atoms: C_4  and  C_5
REMARK    5  A    between atoms: C_5  and  C_6
REMARK    6  A    between atoms: C_6  and  O_8
REMARK    7  A    between atoms: O_8  and  C_9
REMARK    8  A    between atoms: C_9  and  C_10
REMARK    9  A    between atoms: C_9  and  C_15
REMARK   10  A    between atoms: C_10  and  C_11
REMARK   11  A    between atoms: C_12  and  C_13
REMARK   12  A    between atoms: C_12  and  C_14
REMARK   13  A    between atoms: C_20  and  O_21
REMARK   14  A    between atoms: C_24  and  O_25
REMARK                            x       y       z     vdW  Elec       q    Type
REMARK                         _______ _______ _______ _____ _____    ______ ____
ROOT
ATOM      1  C   UNL     1      24.876   0.316  53.015  0.00  0.00    +0.000 C 
ATOM      2  C   UNL     1      25.197  -0.971  52.830  0.00  0.00    +0.000 C 
ATOM      3  C   UNL     1      26.593  -1.440  52.762  0.00  0.00    +0.000 C 
ATOM      4  O   UNL     1      26.857  -2.599  52.464  0.00  0.00    +0.000 OA
ATOM      5  C   UNL     1      27.657  -0.497  53.145  0.00  0.00    +0.000 A 
ATOM      6  C   UNL     1      28.975  -0.931  53.314  0.00  0.00    +0.000 A 
ATOM      7  C   UNL     1      29.956  -0.042  53.744  0.00  0.00    +0.000 A 
ATOM      8  C   UNL     1      29.625   1.279  54.039  0.00  0.00    +0.000 A 
ATOM      9  C   UNL     1      28.307   1.715  53.863  0.00  0.00    +0.000 A 
ATOM     10  C   UNL     1      27.333   0.837  53.375  0.00  0.00    +0.000 A 
ATOM     11  C   UNL     1      25.986   1.316  53.035  0.00  0.00    +0.000 C 
ATOM     12  O   UNL     1      25.780   2.473  52.716  0.00  0.00    +0.000 OA
ENDROOT
BRANCH   6  13
ATOM     13  O   UNL     1      29.376  -2.219  53.087  0.00  0.00    +0.000 OA
ATOM     14  H   UNL     1      28.874  -2.773  52.522  0.00  0.00    +0.000 HD
ENDBRANCH   6  13
BRANCH   9  15
ATOM     15  O   UNL     1      27.974   2.985  54.227  0.00  0.00    +0.000 OA
ATOM     16  H   UNL     1      28.176   3.293  55.088  0.00  0.00    +0.000 HD
ENDBRANCH   9  15
BRANCH   1  17
ATOM     17  C   UNL     1      23.493   0.926  53.131  0.00  0.00    +0.000 C 
BRANCH  17  18
ATOM     18  O   UNL     1      22.513  -0.161  53.086  0.00  0.00    +0.000 OA
BRANCH  18  19
ATOM     19  C   UNL     1      21.879  -0.480  54.260  0.00  0.00    +0.000 C 
ATOM     20  O   UNL     1      22.409  -1.037  55.212  0.00  0.00    +0.000 OA
BRANCH  19  21
ATOM     21  C   UNL     1      20.444   0.025  54.298  0.00  0.00    +0.000 C 
BRANCH  21  22
ATOM     22  C   UNL     1      19.724   0.230  52.961  0.00  0.00    +0.000 C 
BRANCH  22  23
ATOM     23  C   UNL     1      18.481  -0.628  52.672  0.00  0.00    +0.000 C 
BRANCH  23  25
ATOM     24  C   UNL     1      18.569   0.727  50.521  0.00  0.00    +0.000 C 
ATOM     25  C   UNL     1      17.857  -0.377  51.296  0.00  0.00    +0.000 C 
ENDBRANCH  23  25
ENDBRANCH  22  23
ENDBRANCH  21  22
ENDBRANCH  19  21
ENDBRANCH  18  19
ENDBRANCH  17  18
BRANCH  17  26
ATOM     26  C   UNL     1      23.139   2.012  52.063  0.00  0.00    +0.000 C 
BRANCH  26  27
ATOM     27  C   UNL     1      22.397   1.511  50.840  0.00  0.00    +0.000 C 
ATOM     28  C   UNL     1      22.520   1.919  49.557  0.00  0.00    +0.000 C 
ATOM     29  C   UNL     1      21.648   1.310  48.488  0.00  0.00    +0.000 C 
ATOM     30  C   UNL     1      23.455   2.993  49.063  0.00  0.00    +0.000 C 
ENDBRANCH  26  27
ENDBRANCH  17  26
ENDBRANCH   1  17
TORSDOF 11
ENDMDL
MODEL 4
REMARK VINA RESULT:    -7.667      2.152      3.752
REMARK INTER + INTRA:         -13.547
REMARK INTER:                 -11.709
REMARK INTRA:                  -1.838
REMARK UNBOUND:                -1.397
REMARK  Name = 
REMARK  14 active torsions:
REMARK  status: ('A' for Active; 'I' for Inactive)
REMARK    1  A    between atoms: C_1  and  C_2
REMARK    2  A    between atoms: C_2  and  C_3
REMARK    3  A    between atoms: C_3  and  C_4
REMARK    4  A    between atoms: C_4  and  C_5
REMARK    5  A    between atoms: C_5  and  C_6
REMARK    6  A    between atoms: C_6  and  O_8
REMARK    7  A    between atoms: O_8  and  C_9
REMARK    8  A    between atoms: C_9  and  C_10
REMARK    9  A    between atoms: C_9  and  C_15
REMARK   10  A    between atoms: C_10  and  C_11
REMARK   11  A    between atoms: C_12  and  C_13
REMARK   12  A    between atoms: C_12  and  C_14
REMARK   13  A    between atoms: C_20  and  O_21
REMARK   14  A    between atoms: C_24  and  O_25
REMARK                            x       y       z     vdW  Elec       q    Type
REMARK                         _______ _______ _______ _____ _____    ______ ____
ROOT
ATOM      1  C   UNL     1      24.618   2.418  51.440  0.00  0.00    +0.000 C 
ATOM      2  C   UNL     1      23.875   1.503  52.075  0.00  0.00    +0.000 C 
ATOM      3  C   UNL     1      24.455   0.508  52.996  0.00  0.00    +0.000 C 
ATOM      4  O   UNL     1      23.773  -0.397  53.462  0.00  0.00    +0.000 OA
ATOM      5  C   UNL     1      25.859   0.685  53.407  0.00  0.00    +0.000 A 
ATOM      6  C   UNL     1      26.407  -0.084  54.437  0.00  0.00    +0.000 A 
ATOM      7  C   UNL     1      27.714   0.142  54.861  0.00  0.00    +0.000 A 
ATOM      8  C   UNL     1      28.473   1.157  54.283  0.00  0.00    +0.000 A 
ATOM      9  C   UNL     1      27.926   1.922  53.246  0.00  0.00    +0.000 A 
ATOM     10  C   UNL     1      26.633   1.656  52.780  0.00  0.00    +0.000 A 
ATOM     11  C   UNL     1      26.102   2.341  51.594  0.00  0.00    +0.000 C 
ATOM     12  O   UNL     1      26.836   2.777  50.725  0.00  0.00    +0.000 OA
ENDROOT
BRANCH   6  13
ATOM     13  O   UNL     1      25.719  -1.072  55.087  0.00  0.00    +0.000 OA
ATOM     14  H   UNL     1      25.197  -0.862  55.837  0.00  0.00    +0.000 HD
ENDBRANCH   6  13
BRANCH   9  15
ATOM     15  O   UNL     1      28.644   2.963  52.739  0.00  0.00    +0.000 OA
ATOM     16  H   UNL     1      29.558   3.038  52.930  0.00  0.00    +0.000 HD
ENDBRANCH   9  15
BRANCH   1  17
ATOM     17  C   UNL     1      24.151   3.508  50.496  0.00  0.00    +0.000 C 
BRANCH  17  18
ATOM     18  O   UNL     1      22.937   4.105  51.058  0.00  0.00    +0.000 OA
BRANCH  18  19
ATOM     19  C   UNL     1      23.090   5.250  51.798  0.00  0.00    +0.000 C 
ATOM     20  O   UNL     1      23.530   5.291  52.939  0.00  0.00    +0.000 OA
BRANCH  19  21
ATOM     21  C   UNL     1      22.738   6.501  51.007  0.00  0.00    +0.000 C 
BRANCH  21  22
ATOM     22  C   UNL     1      23.875   7.466  50.653  0.00  0.00    +0.000 C 
BRANCH  22  23
ATOM     23  C   UNL     1      25.270   6.873  50.393  0.00  0.00    +0.000 C 
BRANCH  23  25
ATOM     24  C   UNL     1      26.756   5.663  48.720  0.00  0.00    +0.000 C 
ATOM     25  C   UNL     1      25.562   6.592  48.916  0.00  0.00    +0.000 C 
ENDBRANCH  23  25
ENDBRANCH  22  23
ENDBRANCH  21  22
ENDBRANCH  19  21
ENDBRANCH  18  19
ENDBRANCH  17  18
BRANCH  17  26
ATOM     26  C   UNL     1      23.893   3.060  49.019  0.00  0.00    +0.000 C 
BRANCH  26  27
ATOM     27  C   UNL     1      22.472   3.230  48.521  0.00  0.00    +0.000 C 
ATOM     28  C   UNL     1      21.452   2.345  48.570  0.00  0.00    +0.000 C 
ATOM     29  C   UNL     1      20.115   2.705  47.973  0.00  0.00    +0.000 C 
ATOM     30  C   UNL     1      21.522   0.957  49.153  0.00  0.00    +0.000 C 
ENDBRANCH  26  27
ENDBRANCH  17  26
ENDBRANCH   1  17
TORSDOF 11
ENDMDL
MODEL 5
REMARK VINA RESULT:    -7.632      1.454      4.641
REMARK INTER + INTRA:         -13.491
REMARK INTER:                 -12.276
REMARK INTRA:                  -1.215
REMARK UNBOUND:                -1.397
REMARK  Name = 
REMARK  14 active torsions:
REMARK  status: ('A' for Active; 'I' for Inactive)
REMARK    1  A    between atoms: C_1  and  C_2
REMARK    2  A    between atoms: C_2  and  C_3
REMARK    3  A    between atoms: C_3  and  C_4
REMARK    4  A    between atoms: C_4  and  C_5
REMARK    5  A    between atoms: C_5  and  C_6
REMARK    6  A    between atoms: C_6  and  O_8
REMARK    7  A    between atoms: O_8  and  C_9
REMARK    8  A    between atoms: C_9  and  C_10
REMARK    9  A    between atoms: C_9  and  C_15
REMARK   10  A    between atoms: C_10  and  C_11
REMARK   11  A    between atoms: C_12  and  C_13
REMARK   12  A    between atoms: C_12  and  C_14
REMARK   13  A    between atoms: C_20  and  O_21
REMARK   14  A    between atoms: C_24  and  O_25
REMARK                            x       y       z     vdW  Elec       q    Type
REMARK                         _______ _______ _______ _____ _____    ______ ____
ROOT
ATOM      1  C   UNL     1      25.735   0.936  52.445  0.00  0.00    +0.000 C 
ATOM      2  C   UNL     1      25.516  -0.374  52.273  0.00  0.00    +0.000 C 
ATOM      3  C   UNL     1      26.591  -1.379  52.370  0.00  0.00    +0.000 C 
ATOM      4  O   UNL     1      26.388  -2.553  52.082  0.00  0.00    +0.000 OA
ATOM      5  C   UNL     1      27.894  -0.947  52.904  0.00  0.00    +0.000 A 
ATOM      6  C   UNL     1      28.883  -1.880  53.227  0.00  0.00    +0.000 A 
ATOM      7  C   UNL     1      30.083  -1.461  53.796  0.00  0.00    +0.000 A 
ATOM      8  C   UNL     1      30.293  -0.112  54.076  0.00  0.00    +0.000 A 
ATOM      9  C   UNL     1      29.305   0.823  53.746  0.00  0.00    +0.000 A 
ATOM     10  C   UNL     1      28.123   0.408  53.121  0.00  0.00    +0.000 A 
ATOM     11  C   UNL     1      27.147   1.389  52.626  0.00  0.00    +0.000 C 
ATOM     12  O   UNL     1      27.478   2.518  52.309  0.00  0.00    +0.000 OA
ENDROOT
BRANCH   6  13
ATOM     13  O   UNL     1      28.742  -3.225  53.024  0.00  0.00    +0.000 OA
ATOM     14  H   UNL     1      27.900  -3.626  53.115  0.00  0.00    +0.000 HD
ENDBRANCH   6  13
BRANCH   9  15
ATOM     15  O   UNL     1      29.484   2.127  54.094  0.00  0.00    +0.000 OA
ATOM     16  H   UNL     1      28.741   2.686  54.213  0.00  0.00    +0.000 HD
ENDBRANCH   9  15
BRANCH   1  17
ATOM     17  C   UNL     1      24.724   2.064  52.401  0.00  0.00    +0.000 C 
BRANCH  17  18
ATOM     18  O   UNL     1      23.563   1.664  53.200  0.00  0.00    +0.000 OA
BRANCH  18  19
ATOM     19  C   UNL     1      22.330   1.782  52.612  0.00  0.00    +0.000 C 
ATOM     20  O   UNL     1      21.689   2.820  52.534  0.00  0.00    +0.000 OA
BRANCH  19  21
ATOM     21  C   UNL     1      21.871   0.481  51.968  0.00  0.00    +0.000 C 
BRANCH  21  22
ATOM     22  C   UNL     1      20.907   0.573  50.781  0.00  0.00    +0.000 C 
BRANCH  22  23
ATOM     23  C   UNL     1      21.506   0.779  49.379  0.00  0.00    +0.000 C 
BRANCH  23  25
ATOM     24  C   UNL     1      20.145   2.926  49.459  0.00  0.00    +0.000 C 
ATOM     25  C   UNL     1      20.835   1.894  48.573  0.00  0.00    +0.000 C 
ENDBRANCH  23  25
ENDBRANCH  22  23
ENDBRANCH  21  22
ENDBRANCH  19  21
ENDBRANCH  18  19
ENDBRANCH  17  18
BRANCH  17  26
ATOM     26  C   UNL     1      24.265   2.508  50.974  0.00  0.00    +0.000 C 
BRANCH  26  27
ATOM     27  C   UNL     1      24.569   3.946  50.604  0.00  0.00    +0.000 C 
ATOM     28  C   UNL     1      25.608   4.428  49.886  0.00  0.00    +0.000 C 
ATOM     29  C   UNL     1      25.745   5.913  49.665  0.00  0.00    +0.000 C 
ATOM     30  C   UNL     1      26.717   3.602  49.285  0.00  0.00    +0.000 C 
ENDBRANCH  26  27
ENDBRANCH  17  26
ENDBRANCH   1  17
TORSDOF 11
ENDMDL
MODEL 6
REMARK VINA RESULT:    -7.561      2.699      6.931
REMARK INTER + INTRA:         -13.379
REMARK INTER:                 -11.774
REMARK INTRA:                  -1.605
REMARK UNBOUND:                -1.397
REMARK  Name = 
REMARK  14 active torsions:
REMARK  status: ('A' for Active; 'I' for Inactive)
REMARK    1  A    between atoms: C_1  and  C_2
REMARK    2  A    between atoms: C_2  and  C_3
REMARK    3  A    between atoms: C_3  and  C_4
REMARK    4  A    between atoms: C_4  and  C_5
REMARK    5  A    between atoms: C_5  and  C_6
REMARK    6  A    between atoms: C_6  and  O_8
REMARK    7  A    between atoms: O_8  and  C_9
REMARK    8  A    between atoms: C_9  and  C_10
REMARK    9  A    between atoms: C_9  and  C_15
REMARK   10  A    between atoms: C_10  and  C_11
REMARK   11  A    between atoms: C_12  and  C_13
REMARK   12  A    between atoms: C_12  and  C_14
REMARK   13  A    between atoms: C_20  and  O_21
REMARK   14  A    between atoms: C_24  and  O_25
REMARK                            x       y       z     vdW  Elec       q    Type
REMARK                         _______ _______ _______ _____ _____    ______ ____
ROOT
ATOM      1  C   UNL     1      21.713   1.065  52.549  0.00  0.00    +0.000 C 
ATOM      2  C   UNL     1      21.817  -0.051  53.282  0.00  0.00    +0.000 C 
ATOM      3  C   UNL     1      20.643  -0.833  53.709  0.00  0.00    +0.000 C 
ATOM      4  O   UNL     1      20.757  -1.775  54.486  0.00  0.00    +0.000 OA
ATOM      5  C   UNL     1      19.338  -0.503  53.110  0.00  0.00    +0.000 A 
ATOM      6  C   UNL     1      18.230  -1.334  53.299  0.00  0.00    +0.000 A 
ATOM      7  C   UNL     1      17.022  -1.046  52.669  0.00  0.00    +0.000 A 
ATOM      8  C   UNL     1      16.919   0.055  51.821  0.00  0.00    +0.000 A 
ATOM      9  C   UNL     1      18.026   0.891  51.638  0.00  0.00    +0.000 A 
ATOM     10  C   UNL     1      19.223   0.634  52.317  0.00  0.00    +0.000 A 
ATOM     11  C   UNL     1      20.342   1.585  52.260  0.00  0.00    +0.000 C 
ATOM     12  O   UNL     1      20.164   2.771  52.050  0.00  0.00    +0.000 OA
ENDROOT
BRANCH   6  13
ATOM     13  O   UNL     1      18.257  -2.456  54.080  0.00  0.00    +0.000 OA
ATOM     14  H   UNL     1      17.788  -3.223  53.814  0.00  0.00    +0.000 HD
ENDBRANCH   6  13
BRANCH   9  15
ATOM     15  O   UNL     1      17.942   1.919  50.748  0.00  0.00    +0.000 OA
ATOM     16  H   UNL     1      17.617   1.764  49.883  0.00  0.00    +0.000 HD
ENDBRANCH   9  15
BRANCH   1  17
ATOM     17  C   UNL     1      22.830   1.943  52.021  0.00  0.00    +0.000 C 
BRANCH  17  18
ATOM     18  O   UNL     1      23.139   1.511  50.655  0.00  0.00    +0.000 OA
BRANCH  18  19
ATOM     19  C   UNL     1      22.729   2.330  49.634  0.00  0.00    +0.000 C 
ATOM     20  O   UNL     1      21.699   2.184  48.991  0.00  0.00    +0.000 OA
BRANCH  19  21
ATOM     21  C   UNL     1      23.658   3.520  49.439  0.00  0.00    +0.000 C 
BRANCH  21  22
ATOM     22  C   UNL     1      25.167   3.271  49.535  0.00  0.00    +0.000 C 
BRANCH  22  23
ATOM     23  C   UNL     1      26.063   4.438  49.983  0.00  0.00    +0.000 C 
BRANCH  23  25
ATOM     24  C   UNL     1      28.013   5.113  48.495  0.00  0.00    +0.000 C 
ATOM     25  C   UNL     1      26.542   5.332  48.835  0.00  0.00    +0.000 C 
ENDBRANCH  23  25
ENDBRANCH  22  23
ENDBRANCH  21  22
ENDBRANCH  19  21
ENDBRANCH  18  19
ENDBRANCH  17  18
BRANCH  17  26
ATOM     26  C   UNL     1      24.135   1.970  52.882  0.00  0.00    +0.000 C 
BRANCH  26  27
ATOM     27  C   UNL     1      25.239   1.035  52.431  0.00  0.00    +0.000 C 
ATOM     28  C   UNL     1      25.727  -0.055  53.063  0.00  0.00    +0.000 C 
ATOM     29  C   UNL     1      26.867  -0.831  52.452  0.00  0.00    +0.000 C 
ATOM     30  C   UNL     1      25.256  -0.584  54.393  0.00  0.00    +0.000 C 
ENDBRANCH  26  27
ENDBRANCH  17  26
ENDBRANCH   1  17
TORSDOF 11
ENDMDL
MODEL 7
REMARK VINA RESULT:    -7.472      2.582      6.772
REMARK INTER + INTRA:         -13.238
REMARK INTER:                 -11.903
REMARK INTRA:                  -1.334
REMARK UNBOUND:                -1.397
REMARK  Name = 
REMARK  14 active torsions:
REMARK  status: ('A' for Active; 'I' for Inactive)
REMARK    1  A    between atoms: C_1  and  C_2
REMARK    2  A    between atoms: C_2  and  C_3
REMARK    3  A    between atoms: C_3  and  C_4
REMARK    4  A    between atoms: C_4  and  C_5
REMARK    5  A    between atoms: C_5  and  C_6
REMARK    6  A    between atoms: C_6  and  O_8
REMARK    7  A    between atoms: O_8  and  C_9
REMARK    8  A    between atoms: C_9  and  C_10
REMARK    9  A    between atoms: C_9  and  C_15
REMARK   10  A    between atoms: C_10  and  C_11
REMARK   11  A    between atoms: C_12  and  C_13
REMARK   12  A    between atoms: C_12  and  C_14
REMARK   13  A    between atoms: C_20  and  O_21
REMARK   14  A    between atoms: C_24  and  O_25
REMARK                            x       y       z     vdW  Elec       q    Type
REMARK                         _______ _______ _______ _____ _____    ______ ____
ROOT
ATOM      1  C   UNL     1      25.578   3.732  50.705  0.00  0.00    +0.000 C 
ATOM      2  C   UNL     1      26.624   3.662  49.871  0.00  0.00    +0.000 C 
ATOM      3  C   UNL     1      27.045   4.796  49.028  0.00  0.00    +0.000 C 
ATOM      4  O   UNL     1      27.923   4.664  48.182  0.00  0.00    +0.000 OA
ATOM      5  C   UNL     1      26.440   6.113  49.290  0.00  0.00    +0.000 A 
ATOM      6  C   UNL     1      26.943   7.267  48.684  0.00  0.00    +0.000 A 
ATOM      7  C   UNL     1      26.405   8.513  48.995  0.00  0.00    +0.000 A 
ATOM      8  C   UNL     1      25.382   8.621  49.935  0.00  0.00    +0.000 A 
ATOM      9  C   UNL     1      24.874   7.464  50.536  0.00  0.00    +0.000 A 
ATOM     10  C   UNL     1      25.375   6.206  50.180  0.00  0.00    +0.000 A 
ATOM     11  C   UNL     1      24.749   4.974  50.681  0.00  0.00    +0.000 C 
ATOM     12  O   UNL     1      23.576   4.940  51.008  0.00  0.00    +0.000 OA
ENDROOT
BRANCH   6  13
ATOM     13  O   UNL     1      27.972   7.256  47.783  0.00  0.00    +0.000 OA
ATOM     14  H   UNL     1      28.646   7.905  47.834  0.00  0.00    +0.000 HD
ENDBRANCH   6  13
BRANCH   9  15
ATOM     15  O   UNL     1      23.930   7.582  51.511  0.00  0.00    +0.000 OA
ATOM     16  H   UNL     1      23.168   8.107  51.363  0.00  0.00    +0.000 HD
ENDBRANCH   9  15
BRANCH   1  17
ATOM     17  C   UNL     1      25.058   2.660  51.642  0.00  0.00    +0.000 C 
BRANCH  17  18
ATOM     18  O   UNL     1      26.193   1.832  52.058  0.00  0.00    +0.000 OA
BRANCH  18  19
ATOM     19  C   UNL     1      26.714   2.068  53.304  0.00  0.00    +0.000 C 
ATOM     20  O   UNL     1      26.064   2.101  54.339  0.00  0.00    +0.000 OA
BRANCH  19  21
ATOM     21  C   UNL     1      28.230   2.195  53.282  0.00  0.00    +0.000 C 
BRANCH  21  22
ATOM     22  C   UNL     1      29.027   1.438  54.349  0.00  0.00    +0.000 C 
BRANCH  22  23
ATOM     23  C   UNL     1      28.671  -0.037  54.603  0.00  0.00    +0.000 C 
BRANCH  23  25
ATOM     24  C   UNL     1      27.432  -1.513  52.944  0.00  0.00    +0.000 C 
ATOM     25  C   UNL     1      28.776  -0.926  53.361  0.00  0.00    +0.000 C 
ENDBRANCH  23  25
ENDBRANCH  22  23
ENDBRANCH  21  22
ENDBRANCH  19  21
ENDBRANCH  18  19
ENDBRANCH  17  18
BRANCH  17  26
ATOM     26  C   UNL     1      23.916   1.756  51.070  0.00  0.00    +0.000 C 
BRANCH  26  27
ATOM     27  C   UNL     1      22.791   1.434  52.032  0.00  0.00    +0.000 C 
ATOM     28  C   UNL     1      22.754   0.490  52.998  0.00  0.00    +0.000 C 
ATOM     29  C   UNL     1      21.507   0.308  53.826  0.00  0.00    +0.000 C 
ATOM     30  C   UNL     1      23.868  -0.471  53.328  0.00  0.00    +0.000 C 
ENDBRANCH  26  27
ENDBRANCH  17  26
ENDBRANCH   1  17
TORSDOF 11
ENDMDL
MODEL 8
REMARK VINA RESULT:    -7.375      2.161      4.565
REMARK INTER + INTRA:         -13.084
REMARK INTER:                 -11.152
REMARK INTRA:                  -1.933
REMARK UNBOUND:                -1.397
REMARK  Name = 
REMARK  14 active torsions:
REMARK  status: ('A' for Active; 'I' for Inactive)
REMARK    1  A    between atoms: C_1  and  C_2
REMARK    2  A    between atoms: C_2  and  C_3
REMARK    3  A    between atoms: C_3  and  C_4
REMARK    4  A    between atoms: C_4  and  C_5
REMARK    5  A    between atoms: C_5  and  C_6
REMARK    6  A    between atoms: C_6  and  O_8
REMARK    7  A    between atoms: O_8  and  C_9
REMARK    8  A    between atoms: C_9  and  C_10
REMARK    9  A    between atoms: C_9  and  C_15
REMARK   10  A    between atoms: C_10  and  C_11
REMARK   11  A    between atoms: C_12  and  C_13
REMARK   12  A    between atoms: C_12  and  C_14
REMARK   13  A    between atoms: C_20  and  O_21
REMARK   14  A    between atoms: C_24  and  O_25
REMARK                            x       y       z     vdW  Elec       q    Type
REMARK                         _______ _______ _______ _____ _____    ______ ____
ROOT
ATOM      1  C   UNL     1      24.986   2.902  51.845  0.00  0.00    +0.000 C 
ATOM      2  C   UNL     1      24.181   2.047  52.489  0.00  0.00    +0.000 C 
ATOM      3  C   UNL     1      24.696   0.950  53.328  0.00  0.00    +0.000 C 
ATOM      4  O   UNL     1      23.942   0.106  53.800  0.00  0.00    +0.000 OA
ATOM      5  C   UNL     1      26.132   0.946  53.654  0.00  0.00    +0.000 A 
ATOM      6  C   UNL     1      26.649   0.070  54.613  0.00  0.00    +0.000 A 
ATOM      7  C   UNL     1      27.996   0.126  54.959  0.00  0.00    +0.000 A 
ATOM      8  C   UNL     1      28.832   1.075  54.375  0.00  0.00    +0.000 A 
ATOM      9  C   UNL     1      28.316   1.947  53.409  0.00  0.00    +0.000 A 
ATOM     10  C   UNL     1      26.975   1.852  53.018  0.00  0.00    +0.000 A 
ATOM     11  C   UNL     1      26.457   2.650  51.898  0.00  0.00    +0.000 C 
ATOM     12  O   UNL     1      27.183   3.042  51.002  0.00  0.00    +0.000 OA
ENDROOT
BRANCH   6  13
ATOM     13  O   UNL     1      25.891  -0.863  55.264  0.00  0.00    +0.000 OA
ATOM     14  H   UNL     1      26.164  -1.759  55.280  0.00  0.00    +0.000 HD
ENDBRANCH   6  13
BRANCH   9  15
ATOM     15  O   UNL     1      29.118   2.923  52.900  0.00  0.00    +0.000 OA
ATOM     16  H   UNL     1      29.145   3.072  51.975  0.00  0.00    +0.000 HD
ENDBRANCH   9  15
BRANCH   1  17
ATOM     17  C   UNL     1      24.592   4.083  50.979  0.00  0.00    +0.000 C 
BRANCH  17  18
ATOM     18  O   UNL     1      23.620   4.886  51.724  0.00  0.00    +0.000 OA
BRANCH  18  19
ATOM     19  C   UNL     1      22.970   5.877  51.033  0.00  0.00    +0.000 C 
ATOM     20  O   UNL     1      23.522   6.778  50.417  0.00  0.00    +0.000 OA
BRANCH  19  21
ATOM     21  C   UNL     1      21.460   5.686  51.031  0.00  0.00    +0.000 C 
BRANCH  21  22
ATOM     22  C   UNL     1      20.898   4.430  51.707  0.00  0.00    +0.000 C 
BRANCH  22  23
ATOM     23  C   UNL     1      19.710   3.721  51.036  0.00  0.00    +0.000 C 
BRANCH  23  25
ATOM     24  C   UNL     1      20.380   1.686  52.407  0.00  0.00    +0.000 C 
ATOM     25  C   UNL     1      19.232   2.469  51.778  0.00  0.00    +0.000 C 
ENDBRANCH  23  25
ENDBRANCH  22  23
ENDBRANCH  21  22
ENDBRANCH  19  21
ENDBRANCH  18  19
ENDBRANCH  17  18
BRANCH  17  26
ATOM     26  C   UNL     1      24.024   3.727  49.566  0.00  0.00    +0.000 C 
BRANCH  26  27
ATOM     27  C   UNL     1      23.130   2.505  49.507  0.00  0.00    +0.000 C 
ATOM     28  C   UNL     1      22.096   2.259  48.672  0.00  0.00    +0.000 C 
ATOM     29  C   UNL     1      21.304   0.984  48.810  0.00  0.00    +0.000 C 
ATOM     30  C   UNL     1      21.605   3.184  47.587  0.00  0.00    +0.000 C 
ENDBRANCH  26  27
ENDBRANCH  17  26
ENDBRANCH   1  17
TORSDOF 11
ENDMDL
MODEL 9
REMARK VINA RESULT:    -7.240      2.308      5.574
REMARK INTER + INTRA:         -12.870
REMARK INTER:                 -11.124
REMARK INTRA:                  -1.746
REMARK UNBOUND:                -1.397
REMARK  Name = 
REMARK  14 active torsions:
REMARK  status: ('A' for Active; 'I' for Inactive)
REMARK    1  A    between atoms: C_1  and  C_2
REMARK    2  A    between atoms: C_2  and  C_3
REMARK    3  A    between atoms: C_3  and  C_4
REMARK    4  A    between atoms: C_4  and  C_5
REMARK    5  A    between atoms: C_5  and  C_6
REMARK    6  A    between atoms: C_6  and  O_8
REMARK    7  A    between atoms: O_8  and  C_9
REMARK    8  A    between atoms: C_9  and  C_10
REMARK    9  A    between atoms: C_9  and  C_15
REMARK   10  A    between atoms: C_10  and  C_11
REMARK   11  A    between atoms: C_12  and  C_13
REMARK   12  A    between atoms: C_12  and  C_14
REMARK   13  A    between atoms: C_20  and  O_21
REMARK   14  A    between atoms: C_24  and  O_25
REMARK                            x       y       z     vdW  Elec       q    Type
REMARK                         _______ _______ _______ _____ _____    ______ ____
ROOT
ATOM      1  C   UNL     1      25.012   2.543  51.309  0.00  0.00    +0.000 C 
ATOM      2  C   UNL     1      26.032   1.753  51.667  0.00  0.00    +0.000 C 
ATOM      3  C   UNL     1      25.926   0.761  52.753  0.00  0.00    +0.000 C 
ATOM      4  O   UNL     1      26.910   0.144  53.144  0.00  0.00    +0.000 OA
ATOM      5  C   UNL     1      24.587   0.473  53.295  0.00  0.00    +0.000 A 
ATOM      6  C   UNL     1      24.381  -0.602  54.165  0.00  0.00    +0.000 A 
ATOM      7  C   UNL     1      23.099  -0.903  54.615  0.00  0.00    +0.000 A 
ATOM      8  C   UNL     1      22.008  -0.156  54.176  0.00  0.00    +0.000 A 
ATOM      9  C   UNL     1      22.215   0.924  53.311  0.00  0.00    +0.000 A 
ATOM     10  C   UNL     1      23.511   1.264  52.905  0.00  0.00    +0.000 A 
ATOM     11  C   UNL     1      23.764   2.484  52.127  0.00  0.00    +0.000 C 
ATOM     12  O   UNL     1      23.021   3.448  52.190  0.00  0.00    +0.000 OA
ENDROOT
BRANCH   6  13
ATOM     13  O   UNL     1      25.389  -1.411  54.611  0.00  0.00    +0.000 OA
ATOM     14  H   UNL     1      25.728  -1.301  55.478  0.00  0.00    +0.000 HD
ENDBRANCH   6  13
BRANCH   9  15
ATOM     15  O   UNL     1      21.138   1.602  52.824  0.00  0.00    +0.000 OA
ATOM     16  H   UNL     1      20.716   2.251  53.351  0.00  0.00    +0.000 HD
ENDBRANCH   9  15
BRANCH   1  17
ATOM     17  C   UNL     1      24.976   3.577  50.201  0.00  0.00    +0.000 C 
BRANCH  17  18
ATOM     18  O   UNL     1      24.250   3.001  49.067  0.00  0.00    +0.000 OA
BRANCH  18  19
ATOM     19  C   UNL     1      22.996   3.496  48.812  0.00  0.00    +0.000 C 
ATOM     20  O   UNL     1      21.950   2.955  49.142  0.00  0.00    +0.000 OA
BRANCH  19  21
ATOM     21  C   UNL     1      23.040   4.863  48.145  0.00  0.00    +0.000 C 
BRANCH  21  22
ATOM     22  C   UNL     1      22.661   6.083  48.990  0.00  0.00    +0.000 C 
BRANCH  22  23
ATOM     23  C   UNL     1      23.197   7.458  48.555  0.00  0.00    +0.000 C 
BRANCH  23  25
ATOM     24  C   UNL     1      23.948   7.460  50.985  0.00  0.00    +0.000 C 
ATOM     25  C   UNL     1      23.904   8.232  49.670  0.00  0.00    +0.000 C 
ENDBRANCH  23  25
ENDBRANCH  22  23
ENDBRANCH  21  22
ENDBRANCH  19  21
ENDBRANCH  18  19
ENDBRANCH  17  18
BRANCH  17  26
ATOM     26  C   UNL     1      26.368   4.113  49.729  0.00  0.00    +0.000 C 
BRANCH  26  27
ATOM     27  C   UNL     1      26.349   5.450  49.015  0.00  0.00    +0.000 C 
ATOM     28  C   UNL     1      27.367   6.088  48.399  0.00  0.00    +0.000 C 
ATOM     29  C   UNL     1      27.140   7.444  47.778  0.00  0.00    +0.000 C 
ATOM     30  C   UNL     1      28.783   5.582  48.290  0.00  0.00    +0.000 C 
ENDBRANCH  26  27
ENDBRANCH  17  26
ENDBRANCH   1  17
TORSDOF 11
ENDMDL
