MODEL 1
REMARK VINA RESULT:    -8.407      0.000      0.000
REMARK INTER + INTRA:         -13.282
REMARK INTER:                 -12.338
REMARK INTRA:                  -0.944
REMARK UNBOUND:                -0.944
REMARK  Name = 
REMARK  12 active torsions:
REMARK  status: ('A' for Active; 'I' for Inactive)
REMARK    1  A    between atoms: C_1  and  C_2
REMARK    2  A    between atoms: C_2  and  C_3
REMARK    3  A    between atoms: C_3  and  C_4
REMARK    4  A    between atoms: C_4  and  O_6
REMARK    5  A    between atoms: O_6  and  C_7
REMARK    6  A    between atoms: C_7  and  C_8
REMARK    7  A    between atoms: C_7  and  C_13
REMARK    8  A    between atoms: C_8  and  C_9
REMARK    9  A    between atoms: C_10  and  C_11
REMARK   10  A    between atoms: C_10  and  C_12
REMARK   11  A    between atoms: C_18  and  O_19
REMARK   12  A    between atoms: C_22  and  O_23
REMARK                            x       y       z     vdW  Elec       q    Type
REMARK                         _______ _______ _______ _____ _____    ______ ____
ROOT
ATOM      1  C   UNL     1      24.735   0.222  53.053  0.00  0.00    +0.000 C 
ATOM      2  C   UNL     1      25.134  -1.003  52.663  0.00  0.00    +0.000 C 
ATOM      3  C   UNL     1      26.520  -1.466  52.658  0.00  0.00    +0.000 C 
ATOM      4  O   UNL     1      26.800  -2.596  52.276  0.00  0.00    +0.000 OA
ATOM      5  C   UNL     1      27.549  -0.569  53.200  0.00  0.00    +0.000 A 
ATOM      6  C   UNL     1      28.843  -1.064  53.412  0.00  0.00    +0.000 A 
ATOM      7  C   UNL     1      29.845  -0.222  53.870  0.00  0.00    +0.000 A 
ATOM      8  C   UNL     1      29.554   1.115  54.117  0.00  0.00    +0.000 A 
ATOM      9  C   UNL     1      28.251   1.596  53.932  0.00  0.00    +0.000 A 
ATOM     10  C   UNL     1      27.219   0.757  53.484  0.00  0.00    +0.000 A 
ATOM     11  C   UNL     1      25.807   1.236  53.294  0.00  0.00    +0.000 C 
ATOM     12  O   UNL     1      25.513   2.425  53.302  0.00  0.00    +0.000 OA
ENDROOT
BRANCH   6  13
ATOM     13  O   UNL     1      29.203  -2.367  53.193  0.00  0.00    +0.000 OA
ATOM     14  H   UNL     1      29.740  -2.588  52.458  0.00  0.00    +0.000 HD
ENDBRANCH   6  13
BRANCH   9  15
ATOM     15  O   UNL     1      28.011   2.915  54.207  0.00  0.00    +0.000 OA
ATOM     16  H   UNL     1      28.146   3.244  55.075  0.00  0.00    +0.000 HD
ENDBRANCH   9  15
BRANCH   1  17
ATOM     17  C   UNL     1      23.236   0.596  53.288  0.00  0.00    +0.000 C 
BRANCH  17  18
ATOM     18  O   UNL     1      22.451  -0.380  54.030  0.00  0.00    +0.000 OA
BRANCH  18  19
ATOM     19  C   UNL     1      21.153  -0.131  54.328  0.00  0.00    +0.000 C 
ATOM     20  O   UNL     1      20.782   0.707  55.143  0.00  0.00    +0.000 OA
BRANCH  19  21
ATOM     21  C   UNL     1      20.188  -1.118  53.688  0.00  0.00    +0.000 C 
BRANCH  21  23
ATOM     22  C   UNL     1      17.716  -1.303  52.964  0.00  0.00    +0.000 C 
ATOM     23  C   UNL     1      19.066  -0.623  52.773  0.00  0.00    +0.000 C 
ENDBRANCH  21  23
ENDBRANCH  19  21
ENDBRANCH  18  19
ENDBRANCH  17  18
BRANCH  17  24
ATOM     24  C   UNL     1      22.568   0.932  51.915  0.00  0.00    +0.000 C 
BRANCH  24  25
ATOM     25  C   UNL     1      22.926   1.885  50.812  0.00  0.00    +0.000 C 
ATOM     26  C   UNL     1      22.614   2.121  49.528  0.00  0.00    +0.000 C 
ATOM     27  C   UNL     1      23.268   3.302  48.842  0.00  0.00    +0.000 C 
ATOM     28  C   UNL     1      21.671   1.343  48.665  0.00  0.00    +0.000 C 
ENDBRANCH  24  25
ENDBRANCH  17  24
ENDBRANCH   1  17
TORSDOF 9
ENDMDL
MODEL 2
REMARK VINA RESULT:    -8.327      1.862      2.381
REMARK INTER + INTRA:         -13.166
REMARK INTER:                 -12.022
REMARK INTRA:                  -1.144
REMARK UNBOUND:                -0.944
REMARK  Name = 
REMARK  12 active torsions:
REMARK  status: ('A' for Active; 'I' for Inactive)
REMARK    1  A    between atoms: C_1  and  C_2
REMARK    2  A    between atoms: C_2  and  C_3
REMARK    3  A    between atoms: C_3  and  C_4
REMARK    4  A    between atoms: C_4  and  O_6
REMARK    5  A    between atoms: O_6  and  C_7
REMARK    6  A    between atoms: C_7  and  C_8
REMARK    7  A    between atoms: C_7  and  C_13
REMARK    8  A    between atoms: C_8  and  C_9
REMARK    9  A    between atoms: C_10  and  C_11
REMARK   10  A    between atoms: C_10  and  C_12
REMARK   11  A    between atoms: C_18  and  O_19
REMARK   12  A    between atoms: C_22  and  O_23
REMARK                            x       y       z     vdW  Elec       q    Type
REMARK                         _______ _______ _______ _____ _____    ______ ____
ROOT
ATOM      1  C   UNL     1      25.740   0.925  52.608  0.00  0.00    +0.000 C 
ATOM      2  C   UNL     1      25.588  -0.360  52.234  0.00  0.00    +0.000 C 
ATOM      3  C   UNL     1      26.631  -1.380  52.314  0.00  0.00    +0.000 C 
ATOM      4  O   UNL     1      26.411  -2.527  51.942  0.00  0.00    +0.000 OA
ATOM      5  C   UNL     1      27.912  -1.011  52.927  0.00  0.00    +0.000 A 
ATOM      6  C   UNL     1      28.846  -2.016  53.217  0.00  0.00    +0.000 A 
ATOM      7  C   UNL     1      30.085  -1.685  53.744  0.00  0.00    +0.000 A 
ATOM      8  C   UNL     1      30.391  -0.350  53.983  0.00  0.00    +0.000 A 
ATOM      9  C   UNL     1      29.443   0.647  53.718  0.00  0.00    +0.000 A 
ATOM     10  C   UNL     1      28.177   0.332  53.200  0.00  0.00    +0.000 A 
ATOM     11  C   UNL     1      27.130   1.375  52.924  0.00  0.00    +0.000 C 
ATOM     12  O   UNL     1      27.384   2.573  52.923  0.00  0.00    +0.000 OA
ENDROOT
BRANCH   6  13
ATOM     13  O   UNL     1      28.614  -3.350  53.011  0.00  0.00    +0.000 OA
ATOM     14  H   UNL     1      28.873  -3.975  53.658  0.00  0.00    +0.000 HD
ENDBRANCH   6  13
BRANCH   9  15
ATOM     15  O   UNL     1      29.786   1.944  53.989  0.00  0.00    +0.000 OA
ATOM     16  H   UNL     1      29.337   2.646  53.560  0.00  0.00    +0.000 HD
ENDBRANCH   9  15
BRANCH   1  17
ATOM     17  C   UNL     1      24.543   1.919  52.750  0.00  0.00    +0.000 C 
BRANCH  17  18
ATOM     18  O   UNL     1      23.364   1.396  53.424  0.00  0.00    +0.000 OA
BRANCH  18  19
ATOM     19  C   UNL     1      22.186   1.293  52.764  0.00  0.00    +0.000 C 
ATOM     20  O   UNL     1      21.400   2.223  52.609  0.00  0.00    +0.000 OA
BRANCH  19  21
ATOM     21  C   UNL     1      21.831  -0.136  52.381  0.00  0.00    +0.000 C 
BRANCH  21  23
ATOM     22  C   UNL     1      21.555  -1.154  54.738  0.00  0.00    +0.000 C 
ATOM     23  C   UNL     1      22.136  -1.292  53.336  0.00  0.00    +0.000 C 
ENDBRANCH  21  23
ENDBRANCH  19  21
ENDBRANCH  18  19
ENDBRANCH  17  18
BRANCH  17  24
ATOM     24  C   UNL     1      24.181   2.493  51.342  0.00  0.00    +0.000 C 
BRANCH  24  25
ATOM     25  C   UNL     1      24.558   3.758  50.627  0.00  0.00    +0.000 C 
ATOM     26  C   UNL     1      25.555   4.241  49.870  0.00  0.00    +0.000 C 
ATOM     27  C   UNL     1      25.422   5.652  49.334  0.00  0.00    +0.000 C 
ATOM     28  C   UNL     1      26.816   3.540  49.473  0.00  0.00    +0.000 C 
ENDBRANCH  24  25
ENDBRANCH  17  24
ENDBRANCH   1  17
TORSDOF 9
ENDMDL
MODEL 3
REMARK VINA RESULT:    -8.104      1.862      5.053
REMARK INTER + INTRA:         -12.839
REMARK INTER:                 -11.798
REMARK INTRA:                  -1.041
REMARK UNBOUND:                -0.944
REMARK  Name = 
REMARK  12 active torsions:
REMARK  status: ('A' for Active; 'I' for Inactive)
REMARK    1  A    between atoms: C_1  and  C_2
REMARK    2  A    between atoms: C_2  and  C_3
REMARK    3  A    between atoms: C_3  and  C_4
REMARK    4  A    between atoms: C_4  and  O_6
REMARK    5  A    between atoms: O_6  and  C_7
REMARK    6  A    between atoms: C_7  and  C_8
REMARK    7  A    between atoms: C_7  and  C_13
REMARK    8  A    between atoms: C_8  and  C_9
REMARK    9  A    between atoms: C_10  and  C_11
REMARK   10  A    between atoms: C_10  and  C_12
REMARK   11  A    between atoms: C_18  and  O_19
REMARK   12  A    between atoms: C_22  and  O_23
REMARK                            x       y       z     vdW  Elec       q    Type
REMARK                         _______ _______ _______ _____ _____    ______ ____
ROOT
ATOM      1  C   UNL     1      25.361   1.147  52.723  0.00  0.00    +0.000 C 
ATOM      2  C   UNL     1      26.207   2.090  53.180  0.00  0.00    +0.000 C 
ATOM      3  C   UNL     1      27.583   1.841  53.604  0.00  0.00    +0.000 C 
ATOM      4  O   UNL     1      28.284   2.756  54.019  0.00  0.00    +0.000 OA
ATOM      5  C   UNL     1      28.121   0.484  53.440  0.00  0.00    +0.000 A 
ATOM      6  C   UNL     1      29.492   0.266  53.629  0.00  0.00    +0.000 A 
ATOM      7  C   UNL     1      30.014  -1.015  53.534  0.00  0.00    +0.000 A 
ATOM      8  C   UNL     1      29.165  -2.079  53.250  0.00  0.00    +0.000 A 
ATOM      9  C   UNL     1      27.799  -1.850  53.033  0.00  0.00    +0.000 A 
ATOM     10  C   UNL     1      27.255  -0.558  53.108  0.00  0.00    +0.000 A 
ATOM     11  C   UNL     1      25.799  -0.276  52.862  0.00  0.00    +0.000 C 
ATOM     12  O   UNL     1      24.961  -1.166  52.799  0.00  0.00    +0.000 OA
ENDROOT
BRANCH   6  13
ATOM     13  O   UNL     1      30.389   1.263  53.909  0.00  0.00    +0.000 OA
ATOM     14  H   UNL     1      31.081   1.454  53.307  0.00  0.00    +0.000 HD
ENDBRANCH   6  13
BRANCH   9  15
ATOM     15  O   UNL     1      27.009  -2.927  52.737  0.00  0.00    +0.000 OA
ATOM     16  H   UNL     1      26.126  -2.960  53.049  0.00  0.00    +0.000 HD
ENDBRANCH   9  15
BRANCH   1  17
ATOM     17  C   UNL     1      23.996   1.484  52.042  0.00  0.00    +0.000 C 
BRANCH  17  18
ATOM     18  O   UNL     1      23.936   2.762  51.346  0.00  0.00    +0.000 OA
BRANCH  18  19
ATOM     19  C   UNL     1      23.704   2.805  50.012  0.00  0.00    +0.000 C 
ATOM     20  O   UNL     1      22.811   2.181  49.448  0.00  0.00    +0.000 OA
BRANCH  19  21
ATOM     21  C   UNL     1      24.772   3.564  49.239  0.00  0.00    +0.000 C 
BRANCH  21  23
ATOM     22  C   UNL     1      27.208   4.397  49.040  0.00  0.00    +0.000 C 
ATOM     23  C   UNL     1      26.256   3.303  49.509  0.00  0.00    +0.000 C 
ENDBRANCH  21  23
ENDBRANCH  19  21
ENDBRANCH  18  19
ENDBRANCH  17  18
BRANCH  17  24
ATOM     24  C   UNL     1      22.851   1.362  53.098  0.00  0.00    +0.000 C 
BRANCH  24  25
ATOM     25  C   UNL     1      21.562   0.592  53.122  0.00  0.00    +0.000 C 
ATOM     26  C   UNL     1      21.027  -0.481  53.726  0.00  0.00    +0.000 C 
ATOM     27  C   UNL     1      19.588  -0.832  53.409  0.00  0.00    +0.000 C 
ATOM     28  C   UNL     1      21.692  -1.398  54.703  0.00  0.00    +0.000 C 
ENDBRANCH  24  25
ENDBRANCH  17  24
ENDBRANCH   1  17
TORSDOF 9
ENDMDL
MODEL 4
REMARK VINA RESULT:    -7.933      1.954      4.406
REMARK INTER + INTRA:         -12.588
REMARK INTER:                 -11.990
REMARK INTRA:                  -0.598
REMARK UNBOUND:                -0.944
REMARK  Name = 
REMARK  12 active torsions:
REMARK  status: ('A' for Active; 'I' for Inactive)
REMARK    1  A    between atoms: C_1  and  C_2
REMARK    2  A    between atoms: C_2  and  C_3
REMARK    3  A    between atoms: C_3  and  C_4
REMARK    4  A    between atoms: C_4  and  O_6
REMARK    5  A    between atoms: O_6  and  C_7
REMARK    6  A    between atoms: C_7  and  C_8
REMARK    7  A    between atoms: C_7  and  C_13
REMARK    8  A    between atoms: C_8  and  C_9
REMARK    9  A    between atoms: C_10  and  C_11
REMARK   10  A    between atoms: C_10  and  C_12
REMARK   11  A    between atoms: C_18  and  O_19
REMARK   12  A    between atoms: C_22  and  O_23
REMARK                            x       y       z     vdW  Elec       q    Type
REMARK                         _______ _______ _______ _____ _____    ______ ____
ROOT
ATOM      1  C   UNL     1      25.600   0.812  52.274  0.00  0.00    +0.000 C 
ATOM      2  C   UNL     1      25.562  -0.512  52.029  0.00  0.00    +0.000 C 
ATOM      3  C   UNL     1      26.667  -1.436  52.271  0.00  0.00    +0.000 C 
ATOM      4  O   UNL     1      26.553  -2.628  52.009  0.00  0.00    +0.000 OA
ATOM      5  C   UNL     1      27.880  -0.910  52.909  0.00  0.00    +0.000 A 
ATOM      6  C   UNL     1      28.863  -1.807  53.351  0.00  0.00    +0.000 A 
ATOM      7  C   UNL     1      30.041  -1.331  53.906  0.00  0.00    +0.000 A 
ATOM      8  C   UNL     1      30.238   0.041  54.020  0.00  0.00    +0.000 A 
ATOM      9  C   UNL     1      29.239   0.931  53.603  0.00  0.00    +0.000 A 
ATOM     10  C   UNL     1      28.033   0.470  53.054  0.00  0.00    +0.000 A 
ATOM     11  C   UNL     1      26.934   1.397  52.615  0.00  0.00    +0.000 C 
ATOM     12  O   UNL     1      27.102   2.604  52.502  0.00  0.00    +0.000 OA
ENDROOT
BRANCH   6  13
ATOM     13  O   UNL     1      28.739  -3.169  53.273  0.00  0.00    +0.000 OA
ATOM     14  H   UNL     1      28.277  -3.636  53.941  0.00  0.00    +0.000 HD
ENDBRANCH   6  13
BRANCH   9  15
ATOM     15  O   UNL     1      29.473   2.270  53.754  0.00  0.00    +0.000 OA
ATOM     16  H   UNL     1      29.668   2.799  53.005  0.00  0.00    +0.000 HD
ENDBRANCH   9  15
BRANCH   1  17
ATOM     17  C   UNL     1      24.330   1.721  52.248  0.00  0.00    +0.000 C 
BRANCH  17  18
ATOM     18  O   UNL     1      24.577   3.154  52.329  0.00  0.00    +0.000 OA
BRANCH  18  19
ATOM     19  C   UNL     1      24.136   3.981  51.351  0.00  0.00    +0.000 C 
ATOM     20  O   UNL     1      23.396   4.941  51.544  0.00  0.00    +0.000 OA
BRANCH  19  21
ATOM     21  C   UNL     1      24.495   3.507  49.951  0.00  0.00    +0.000 C 
BRANCH  21  23
ATOM     22  C   UNL     1      26.592   4.772  49.134  0.00  0.00    +0.000 C 
ATOM     23  C   UNL     1      25.958   3.438  49.508  0.00  0.00    +0.000 C 
ENDBRANCH  21  23
ENDBRANCH  19  21
ENDBRANCH  18  19
ENDBRANCH  17  18
BRANCH  17  24
ATOM     24  C   UNL     1      23.340   1.255  53.364  0.00  0.00    +0.000 C 
BRANCH  24  25
ATOM     25  C   UNL     1      21.989   0.602  53.323  0.00  0.00    +0.000 C 
ATOM     26  C   UNL     1      21.355  -0.462  53.841  0.00  0.00    +0.000 C 
ATOM     27  C   UNL     1      19.895  -0.660  53.491  0.00  0.00    +0.000 C 
ATOM     28  C   UNL     1      21.926  -1.504  54.749  0.00  0.00    +0.000 C 
ENDBRANCH  24  25
ENDBRANCH  17  24
ENDBRANCH   1  17
TORSDOF 9
ENDMDL
MODEL 5
REMARK VINA RESULT:    -7.830      2.357      4.310
REMARK INTER + INTRA:         -12.436
REMARK INTER:                 -11.080
REMARK INTRA:                  -1.356
REMARK UNBOUND:                -0.944
REMARK  Name = 
REMARK  12 active torsions:
REMARK  status: ('A' for Active; 'I' for Inactive)
REMARK    1  A    between atoms: C_1  and  C_2
REMARK    2  A    between atoms: C_2  and  C_3
REMARK    3  A    between atoms: C_3  and  C_4
REMARK    4  A    between atoms: C_4  and  O_6
REMARK    5  A    between atoms: O_6  and  C_7
REMARK    6  A    between atoms: C_7  and  C_8
REMARK    7  A    between atoms: C_7  and  C_13
REMARK    8  A    between atoms: C_8  and  C_9
REMARK    9  A    between atoms: C_10  and  C_11
REMARK   10  A    between atoms: C_10  and  C_12
REMARK   11  A    between atoms: C_18  and  O_19
REMARK   12  A    between atoms: C_22  and  O_23
REMARK                            x       y       z     vdW  Elec       q    Type
REMARK                         _______ _______ _______ _____ _____    ______ ____
ROOT
ATOM      1  C   UNL     1      23.221   1.366  51.965  0.00  0.00    +0.000 C 
ATOM      2  C   UNL     1      23.165   0.378  52.878  0.00  0.00    +0.000 C 
ATOM      3  C   UNL     1      24.302  -0.097  53.663  0.00  0.00    +0.000 C 
ATOM      4  O   UNL     1      24.166  -1.011  54.468  0.00  0.00    +0.000 OA
ATOM      5  C   UNL     1      25.582   0.606  53.519  0.00  0.00    +0.000 A 
ATOM      6  C   UNL     1      26.623   0.319  54.413  0.00  0.00    +0.000 A 
ATOM      7  C   UNL     1      27.859   0.929  54.262  0.00  0.00    +0.000 A 
ATOM      8  C   UNL     1      28.055   1.827  53.219  0.00  0.00    +0.000 A 
ATOM      9  C   UNL     1      27.002   2.132  52.347  0.00  0.00    +0.000 A 
ATOM     10  C   UNL     1      25.738   1.538  52.492  0.00  0.00    +0.000 A 
ATOM     11  C   UNL     1      24.582   1.857  51.586  0.00  0.00    +0.000 C 
ATOM     12  O   UNL     1      24.722   2.480  50.541  0.00  0.00    +0.000 OA
ENDROOT
BRANCH   6  13
ATOM     13  O   UNL     1      26.504  -0.551  55.464  0.00  0.00    +0.000 OA
ATOM     14  H   UNL     1      26.358  -0.224  56.329  0.00  0.00    +0.000 HD
ENDBRANCH   6  13
BRANCH   9  15
ATOM     15  O   UNL     1      27.240   3.036  51.348  0.00  0.00    +0.000 OA
ATOM     16  H   UNL     1      28.097   3.107  50.975  0.00  0.00    +0.000 HD
ENDBRANCH   9  15
BRANCH   1  17
ATOM     17  C   UNL     1      21.949   2.019  51.334  0.00  0.00    +0.000 C 
BRANCH  17  18
ATOM     18  O   UNL     1      21.209   2.926  52.201  0.00  0.00    +0.000 OA
BRANCH  18  19
ATOM     19  C   UNL     1      20.390   3.864  51.670  0.00  0.00    +0.000 C 
ATOM     20  O   UNL     1      19.165   3.834  51.749  0.00  0.00    +0.000 OA
BRANCH  19  21
ATOM     21  C   UNL     1      21.118   4.879  50.801  0.00  0.00    +0.000 C 
BRANCH  21  23
ATOM     22  C   UNL     1      23.476   5.581  51.585  0.00  0.00    +0.000 C 
ATOM     23  C   UNL     1      22.004   5.951  51.439  0.00  0.00    +0.000 C 
ENDBRANCH  21  23
ENDBRANCH  19  21
ENDBRANCH  18  19
ENDBRANCH  17  18
BRANCH  17  24
ATOM     24  C   UNL     1      21.022   0.896  50.769  0.00  0.00    +0.000 C 
BRANCH  24  25
ATOM     25  C   UNL     1      19.664   0.395  51.169  0.00  0.00    +0.000 C 
ATOM     26  C   UNL     1      19.065  -0.199  52.213  0.00  0.00    +0.000 C 
ATOM     27  C   UNL     1      17.578  -0.472  52.119  0.00  0.00    +0.000 C 
ATOM     28  C   UNL     1      19.699  -0.635  53.496  0.00  0.00    +0.000 C 
ENDBRANCH  24  25
ENDBRANCH  17  24
ENDBRANCH   1  17
TORSDOF 9
ENDMDL
MODEL 6
REMARK VINA RESULT:    -7.828      3.003      6.153
REMARK INTER + INTRA:         -12.433
REMARK INTER:                 -11.313
REMARK INTRA:                  -1.121
REMARK UNBOUND:                -0.944
REMARK  Name = 
REMARK  12 active torsions:
REMARK  status: ('A' for Active; 'I' for Inactive)
REMARK    1  A    between atoms: C_1  and  C_2
REMARK    2  A    between atoms: C_2  and  C_3
REMARK    3  A    between atoms: C_3  and  C_4
REMARK    4  A    between atoms: C_4  and  O_6
REMARK    5  A    between atoms: O_6  and  C_7
REMARK    6  A    between atoms: C_7  and  C_8
REMARK    7  A    between atoms: C_7  and  C_13
REMARK    8  A    between atoms: C_8  and  C_9
REMARK    9  A    between atoms: C_10  and  C_11
REMARK   10  A    between atoms: C_10  and  C_12
REMARK   11  A    between atoms: C_18  and  O_19
REMARK   12  A    between atoms: C_22  and  O_23
REMARK                            x       y       z     vdW  Elec       q    Type
REMARK                         _______ _______ _______ _____ _____    ______ ____
ROOT
ATOM      1  C   UNL     1      25.109   2.328  51.197  0.00  0.00    +0.000 C 
ATOM      2  C   UNL     1      26.127   2.691  50.394  0.00  0.00    +0.000 C 
ATOM      3  C   UNL     1      26.341   4.040  49.877  0.00  0.00    +0.000 C 
ATOM      4  O   UNL     1      27.291   4.284  49.141  0.00  0.00    +0.000 OA
ATOM      5  C   UNL     1      25.436   5.104  50.330  0.00  0.00    +0.000 A 
ATOM      6  C   UNL     1      25.746   6.438  50.028  0.00  0.00    +0.000 A 
ATOM      7  C   UNL     1      24.878   7.455  50.396  0.00  0.00    +0.000 A 
ATOM      8  C   UNL     1      23.702   7.140  51.067  0.00  0.00    +0.000 A 
ATOM      9  C   UNL     1      23.413   5.807  51.391  0.00  0.00    +0.000 A 
ATOM     10  C   UNL     1      24.285   4.765  51.042  0.00  0.00    +0.000 A 
ATOM     11  C   UNL     1      24.015   3.328  51.392  0.00  0.00    +0.000 C 
ATOM     12  O   UNL     1      22.926   2.949  51.803  0.00  0.00    +0.000 OA
ENDROOT
BRANCH   6  13
ATOM     13  O   UNL     1      26.885   6.824  49.373  0.00  0.00    +0.000 OA
ATOM     14  H   UNL     1      27.343   7.594  49.645  0.00  0.00    +0.000 HD
ENDBRANCH   6  13
BRANCH   9  15
ATOM     15  O   UNL     1      22.252   5.552  52.068  0.00  0.00    +0.000 OA
ATOM     16  H   UNL     1      22.096   4.699  52.426  0.00  0.00    +0.000 HD
ENDBRANCH   9  15
BRANCH   1  17
ATOM     17  C   UNL     1      25.052   0.951  51.934  0.00  0.00    +0.000 C 
BRANCH  17  18
ATOM     18  O   UNL     1      24.622   0.997  53.325  0.00  0.00    +0.000 OA
BRANCH  18  19
ATOM     19  C   UNL     1      24.213  -0.131  53.953  0.00  0.00    +0.000 C 
ATOM     20  O   UNL     1      24.861  -0.708  54.821  0.00  0.00    +0.000 OA
BRANCH  19  21
ATOM     21  C   UNL     1      22.949  -0.730  53.356  0.00  0.00    +0.000 C 
BRANCH  21  23
ATOM     22  C   UNL     1      20.802   0.318  54.336  0.00  0.00    +0.000 C 
ATOM     23  C   UNL     1      21.696  -0.911  54.217  0.00  0.00    +0.000 C 
ENDBRANCH  21  23
ENDBRANCH  19  21
ENDBRANCH  18  19
ENDBRANCH  17  18
BRANCH  17  24
ATOM     24  C   UNL     1      26.434   0.235  51.794  0.00  0.00    +0.000 C 
BRANCH  24  25
ATOM     25  C   UNL     1      27.604   0.083  52.723  0.00  0.00    +0.000 C 
ATOM     26  C   UNL     1      28.433   0.848  53.450  0.00  0.00    +0.000 C 
ATOM     27  C   UNL     1      29.483   0.155  54.295  0.00  0.00    +0.000 C 
ATOM     28  C   UNL     1      28.450   2.342  53.537  0.00  0.00    +0.000 C 
ENDBRANCH  24  25
ENDBRANCH  17  24
ENDBRANCH   1  17
TORSDOF 9
ENDMDL
MODEL 7
REMARK VINA RESULT:    -7.564      2.992      6.927
REMARK INTER + INTRA:         -12.046
REMARK INTER:                 -11.266
REMARK INTRA:                  -0.781
REMARK UNBOUND:                -0.944
REMARK  Name = 
REMARK  12 active torsions:
REMARK  status: ('A' for Active; 'I' for Inactive)
REMARK    1  A    between atoms: C_1  and  C_2
REMARK    2  A    between atoms: C_2  and  C_3
REMARK    3  A    between atoms: C_3  and  C_4
REMARK    4  A    between atoms: C_4  and  O_6
REMARK    5  A    between atoms: O_6  and  C_7
REMARK    6  A    between atoms: C_7  and  C_8
REMARK    7  A    between atoms: C_7  and  C_13
REMARK    8  A    between atoms: C_8  and  C_9
REMARK    9  A    between atoms: C_10  and  C_11
REMARK   10  A    between atoms: C_10  and  C_12
REMARK   11  A    between atoms: C_18  and  O_19
REMARK   12  A    between atoms: C_22  and  O_23
REMARK                            x       y       z     vdW  Elec       q    Type
REMARK                         _______ _______ _______ _____ _____    ______ ____
ROOT
ATOM      1  C   UNL     1      24.815   2.900  52.063  0.00  0.00    +0.000 C 
ATOM      2  C   UNL     1      25.759   2.818  51.106  0.00  0.00    +0.000 C 
ATOM      3  C   UNL     1      25.970   3.812  50.056  0.00  0.00    +0.000 C 
ATOM      4  O   UNL     1      26.847   3.655  49.215  0.00  0.00    +0.000 OA
ATOM      5  C   UNL     1      25.159   5.036  50.091  0.00  0.00    +0.000 A 
ATOM      6  C   UNL     1      25.487   6.097  49.236  0.00  0.00    +0.000 A 
ATOM      7  C   UNL     1      24.703   7.240  49.211  0.00  0.00    +0.000 A 
ATOM      8  C   UNL     1      23.590   7.323  50.041  0.00  0.00    +0.000 A 
ATOM      9  C   UNL     1      23.285   6.271  50.915  0.00  0.00    +0.000 A 
ATOM     10  C   UNL     1      24.075   5.112  50.967  0.00  0.00    +0.000 A 
ATOM     11  C   UNL     1      23.787   3.974  51.906  0.00  0.00    +0.000 C 
ATOM     12  O   UNL     1      22.732   3.885  52.521  0.00  0.00    +0.000 OA
ENDROOT
BRANCH   6  13
ATOM     13  O   UNL     1      26.567   6.087  48.393  0.00  0.00    +0.000 OA
ATOM     14  H   UNL     1      26.796   5.304  47.934  0.00  0.00    +0.000 HD
ENDBRANCH   6  13
BRANCH   9  15
ATOM     15  O   UNL     1      22.191   6.410  51.725  0.00  0.00    +0.000 OA
ATOM     16  H   UNL     1      21.339   6.515  51.348  0.00  0.00    +0.000 HD
ENDBRANCH   9  15
BRANCH   1  17
ATOM     17  C   UNL     1      24.782   1.960  53.311  0.00  0.00    +0.000 C 
BRANCH  17  18
ATOM     18  O   UNL     1      26.040   1.822  54.031  0.00  0.00    +0.000 OA
BRANCH  18  19
ATOM     19  C   UNL     1      26.580   0.597  54.238  0.00  0.00    +0.000 C 
ATOM     20  O   UNL     1      26.339  -0.105  55.215  0.00  0.00    +0.000 OA
BRANCH  19  21
ATOM     21  C   UNL     1      27.664   0.238  53.233  0.00  0.00    +0.000 C 
BRANCH  21  23
ATOM     22  C   UNL     1      29.842  -1.087  53.643  0.00  0.00    +0.000 C 
ATOM     23  C   UNL     1      29.139   0.265  53.641  0.00  0.00    +0.000 C 
ENDBRANCH  21  23
ENDBRANCH  19  21
ENDBRANCH  18  19
ENDBRANCH  17  18
BRANCH  17  24
ATOM     24  C   UNL     1      24.217   0.566  52.890  0.00  0.00    +0.000 C 
BRANCH  24  25
ATOM     25  C   UNL     1      22.960  -0.175  53.244  0.00  0.00    +0.000 C 
ATOM     26  C   UNL     1      22.484  -0.968  54.217  0.00  0.00    +0.000 C 
ATOM     27  C   UNL     1      21.051  -1.448  54.108  0.00  0.00    +0.000 C 
ATOM     28  C   UNL     1      23.212  -1.448  55.434  0.00  0.00    +0.000 C 
ENDBRANCH  24  25
ENDBRANCH  17  24
ENDBRANCH   1  17
TORSDOF 9
ENDMDL
MODEL 8
REMARK VINA RESULT:    -7.518      2.861      5.302
REMARK INTER + INTRA:         -11.979
REMARK INTER:                 -10.910
REMARK INTRA:                  -1.069
REMARK UNBOUND:                -0.944
REMARK  Name = 
REMARK  12 active torsions:
REMARK  status: ('A' for Active; 'I' for Inactive)
REMARK    1  A    between atoms: C_1  and  C_2
REMARK    2  A    between atoms: C_2  and  C_3
REMARK    3  A    between atoms: C_3  and  C_4
REMARK    4  A    between atoms: C_4  and  O_6
REMARK    5  A    between atoms: O_6  and  C_7
REMARK    6  A    between atoms: C_7  and  C_8
REMARK    7  A    between atoms: C_7  and  C_13
REMARK    8  A    between atoms: C_8  and  C_9
REMARK    9  A    between atoms: C_10  and  C_11
REMARK   10  A    between atoms: C_10  and  C_12
REMARK   11  A    between atoms: C_18  and  O_19
REMARK   12  A    between atoms: C_22  and  O_23
REMARK                            x       y       z     vdW  Elec       q    Type
REMARK                         _______ _______ _______ _____ _____    ______ ____
ROOT
ATOM      1  C   UNL     1      24.116   2.034  51.642  0.00  0.00    +0.000 C 
ATOM      2  C   UNL     1      22.887   1.533  51.419  0.00  0.00    +0.000 C 
ATOM      3  C   UNL     1      22.287   0.432  52.169  0.00  0.00    +0.000 C 
ATOM      4  O   UNL     1      21.163   0.028  51.894  0.00  0.00    +0.000 OA
ATOM      5  C   UNL     1      23.034  -0.115  53.309  0.00  0.00    +0.000 A 
ATOM      6  C   UNL     1      22.397  -1.013  54.175  0.00  0.00    +0.000 A 
ATOM      7  C   UNL     1      23.099  -1.586  55.225  0.00  0.00    +0.000 A 
ATOM      8  C   UNL     1      24.438  -1.261  55.409  0.00  0.00    +0.000 A 
ATOM      9  C   UNL     1      25.061  -0.340  54.556  0.00  0.00    +0.000 A 
ATOM     10  C   UNL     1      24.364   0.264  53.498  0.00  0.00    +0.000 A 
ATOM     11  C   UNL     1      24.997   1.270  52.578  0.00  0.00    +0.000 C 
ATOM     12  O   UNL     1      26.206   1.462  52.551  0.00  0.00    +0.000 OA
ENDROOT
BRANCH   6  13
ATOM     13  O   UNL     1      21.082  -1.379  54.058  0.00  0.00    +0.000 OA
ATOM     14  H   UNL     1      20.753  -2.107  54.547  0.00  0.00    +0.000 HD
ENDBRANCH   6  13
BRANCH   9  15
ATOM     15  O   UNL     1      26.375  -0.039  54.791  0.00  0.00    +0.000 OA
ATOM     16  H   UNL     1      26.913  -0.635  55.274  0.00  0.00    +0.000 HD
ENDBRANCH   9  15
BRANCH   1  17
ATOM     17  C   UNL     1      24.624   3.366  51.001  0.00  0.00    +0.000 C 
BRANCH  17  18
ATOM     18  O   UNL     1      23.588   4.264  50.509  0.00  0.00    +0.000 OA
BRANCH  18  19
ATOM     19  C   UNL     1      23.182   5.317  51.259  0.00  0.00    +0.000 C 
ATOM     20  O   UNL     1      23.906   5.924  52.042  0.00  0.00    +0.000 OA
BRANCH  19  21
ATOM     21  C   UNL     1      21.685   5.572  51.179  0.00  0.00    +0.000 C 
BRANCH  21  23
ATOM     22  C   UNL     1      20.047   3.684  51.828  0.00  0.00    +0.000 C 
ATOM     23  C   UNL     1      20.734   4.466  50.715  0.00  0.00    +0.000 C 
ENDBRANCH  21  23
ENDBRANCH  19  21
ENDBRANCH  18  19
ENDBRANCH  17  18
BRANCH  17  24
ATOM     24  C   UNL     1      25.662   3.035  49.882  0.00  0.00    +0.000 C 
BRANCH  24  25
ATOM     25  C   UNL     1      26.803   3.809  49.287  0.00  0.00    +0.000 C 
ATOM     26  C   UNL     1      27.071   5.044  48.833  0.00  0.00    +0.000 C 
ATOM     27  C   UNL     1      28.475   5.334  48.345  0.00  0.00    +0.000 C 
ATOM     28  C   UNL     1      26.129   6.204  48.751  0.00  0.00    +0.000 C 
ENDBRANCH  24  25
ENDBRANCH  17  24
ENDBRANCH   1  17
TORSDOF 9
ENDMDL
MODEL 9
REMARK VINA RESULT:    -7.410      2.296      4.502
REMARK INTER + INTRA:         -11.820
REMARK INTER:                 -10.483
REMARK INTRA:                  -1.337
REMARK UNBOUND:                -0.944
REMARK  Name = 
REMARK  12 active torsions:
REMARK  status: ('A' for Active; 'I' for Inactive)
REMARK    1  A    between atoms: C_1  and  C_2
REMARK    2  A    between atoms: C_2  and  C_3
REMARK    3  A    between atoms: C_3  and  C_4
REMARK    4  A    between atoms: C_4  and  O_6
REMARK    5  A    between atoms: O_6  and  C_7
REMARK    6  A    between atoms: C_7  and  C_8
REMARK    7  A    between atoms: C_7  and  C_13
REMARK    8  A    between atoms: C_8  and  C_9
REMARK    9  A    between atoms: C_10  and  C_11
REMARK   10  A    between atoms: C_10  and  C_12
REMARK   11  A    between atoms: C_18  and  O_19
REMARK   12  A    between atoms: C_22  and  O_23
REMARK                            x       y       z     vdW  Elec       q    Type
REMARK                         _______ _______ _______ _____ _____    ______ ____
ROOT
ATOM      1  C   UNL     1      24.317   1.957  51.518  0.00  0.00    +0.000 C 
ATOM      2  C   UNL     1      23.802   0.927  52.216  0.00  0.00    +0.000 C 
ATOM      3  C   UNL     1      24.515   0.184  53.253  0.00  0.00    +0.000 C 
ATOM      4  O   UNL     1      23.975  -0.749  53.835  0.00  0.00    +0.000 OA
ATOM      5  C   UNL     1      25.858   0.642  53.630  0.00  0.00    +0.000 A 
ATOM      6  C   UNL     1      26.473   0.092  54.763  0.00  0.00    +0.000 A 
ATOM      7  C   UNL     1      27.763   0.467  55.107  0.00  0.00    +0.000 A 
ATOM      8  C   UNL     1      28.438   1.392  54.318  0.00  0.00    +0.000 A 
ATOM      9  C   UNL     1      27.806   1.960  53.204  0.00  0.00    +0.000 A 
ATOM     10  C   UNL     1      26.496   1.606  52.849  0.00  0.00    +0.000 A 
ATOM     11  C   UNL     1      25.782   2.210  51.671  0.00  0.00    +0.000 C 
ATOM     12  O   UNL     1      26.364   2.876  50.825  0.00  0.00    +0.000 OA
ENDROOT
BRANCH   6  13
ATOM     13  O   UNL     1      25.871  -0.821  55.587  0.00  0.00    +0.000 OA
ATOM     14  H   UNL     1      25.129  -1.307  55.286  0.00  0.00    +0.000 HD
ENDBRANCH   6  13
BRANCH   9  15
ATOM     15  O   UNL     1      28.506   2.880  52.472  0.00  0.00    +0.000 OA
ATOM     16  H   UNL     1      28.059   3.427  51.856  0.00  0.00    +0.000 HD
ENDBRANCH   9  15
BRANCH   1  17
ATOM     17  C   UNL     1      23.452   2.886  50.607  0.00  0.00    +0.000 C 
BRANCH  17  18
ATOM     18  O   UNL     1      22.669   3.900  51.300  0.00  0.00    +0.000 OA
BRANCH  18  19
ATOM     19  C   UNL     1      23.286   4.918  51.947  0.00  0.00    +0.000 C 
ATOM     20  O   UNL     1      23.488   4.942  53.157  0.00  0.00    +0.000 OA
BRANCH  19  21
ATOM     21  C   UNL     1      23.550   6.125  51.059  0.00  0.00    +0.000 C 
BRANCH  21  23
ATOM     22  C   UNL     1      25.083   5.698  49.026  0.00  0.00    +0.000 C 
ATOM     23  C   UNL     1      24.920   6.322  50.407  0.00  0.00    +0.000 C 
ENDBRANCH  21  23
ENDBRANCH  19  21
ENDBRANCH  18  19
ENDBRANCH  17  18
BRANCH  17  24
ATOM     24  C   UNL     1      22.547   2.007  49.685  0.00  0.00    +0.000 C 
BRANCH  24  25
ATOM     25  C   UNL     1      21.075   1.715  49.679  0.00  0.00    +0.000 C 
ATOM     26  C   UNL     1      20.159   1.079  50.426  0.00  0.00    +0.000 C 
ATOM     27  C   UNL     1      18.715   1.117  49.968  0.00  0.00    +0.000 C 
ATOM     28  C   UNL     1      20.391   0.317  51.693  0.00  0.00    +0.000 C 
ENDBRANCH  24  25
ENDBRANCH  17  24
ENDBRANCH   1  17
TORSDOF 9
ENDMDL
