MODEL 1
REMARK VINA RESULT:    -8.444      0.000      0.000
REMARK INTER + INTRA:          -9.826
REMARK INTER:                  -9.678
REMARK INTRA:                  -0.149
REMARK UNBOUND:                -0.149
REMARK  Name = 
REMARK  3 active torsions:
REMARK  status: ('A' for Active; 'I' for Inactive)
REMARK    1  A    between atoms: C_4  and  N_5
REMARK    2  A    between atoms: C_7  and  S_8
REMARK    3  A    between atoms: S_8  and  C_11
REMARK                            x       y       z     vdW  Elec       q    Type
REMARK                         _______ _______ _______ _____ _____    ______ ____
ROOT
ATOM      1  N   UNL     1      18.305   3.397  51.772  0.00  0.00    +0.000 N 
ATOM      2  C   UNL     1      19.575   2.942  52.052  0.00  0.00    +0.000 A 
ATOM      3  N   UNL     1      20.579   3.751  51.755  0.00  0.00    +0.000 NA
ATOM      4  C   UNL     1      21.815   3.299  51.984  0.00  0.00    +0.000 A 
ATOM      5  C   UNL     1      22.104   2.018  52.504  0.00  0.00    +0.000 A 
ATOM      6  C   UNL     1      23.366   1.398  52.772  0.00  0.00    +0.000 A 
ATOM      7  C   UNL     1      23.447   0.046  53.153  0.00  0.00    +0.000 A 
ATOM      8  C   UNL     1      22.279  -0.676  53.358  0.00  0.00    +0.000 A 
ATOM      9  C   UNL     1      21.049  -0.041  53.208  0.00  0.00    +0.000 A 
ATOM     10  C   UNL     1      20.943   1.270  52.769  0.00  0.00    +0.000 A 
ATOM     11  N   UNL     1      19.707   1.738  52.597  0.00  0.00    +0.000 NA
ATOM     12  H   UNL     1      18.178   4.286  51.368  0.00  0.00    +0.000 HD
ATOM     13  H   UNL     1      17.524   2.834  51.977  0.00  0.00    +0.000 HD
ENDROOT
BRANCH   4  14
ATOM     14  N   UNL     1      22.786   4.244  51.685  0.00  0.00    +0.000 N 
ATOM     15  H   UNL     1      23.546   4.002  51.106  0.00  0.00    +0.000 HD
ATOM     16  H   UNL     1      22.716   5.155  52.049  0.00  0.00    +0.000 HD
ENDBRANCH   4  14
BRANCH   6  17
ATOM     17  S   UNL     1      24.885   2.333  52.636  0.00  0.00    +0.000 S 
ATOM     18  O   UNL     1      25.059   2.666  51.224  0.00  0.00    +0.000 OA
ATOM     19  O   UNL     1      24.816   3.414  53.603  0.00  0.00    +0.000 OA
BRANCH  17  20
ATOM     20  C   UNL     1      26.280   1.304  53.024  0.00  0.00    +0.000 A 
ATOM     21  C   UNL     1      27.412   1.854  53.622  0.00  0.00    +0.000 A 
ATOM     22  C   UNL     1      28.533   1.048  53.841  0.00  0.00    +0.000 A 
ATOM     23  C   UNL     1      28.515  -0.302  53.473  0.00  0.00    +0.000 A 
ATOM     24 CL   UNL     1      29.958  -1.220  53.720  0.00  0.00    +0.000 Cl
ATOM     25  C   UNL     1      27.359  -0.859  52.911  0.00  0.00    +0.000 A 
ATOM     26 CL   UNL     1      27.259  -2.525  52.462  0.00  0.00    +0.000 Cl
ATOM     27  C   UNL     1      26.235  -0.058  52.690  0.00  0.00    +0.000 A 
ENDBRANCH  17  20
ENDBRANCH   6  17
TORSDOF 3
ENDMDL
MODEL 2
REMARK VINA RESULT:    -8.407      2.558      3.887
REMARK INTER + INTRA:          -9.784
REMARK INTER:                  -9.085
REMARK INTRA:                  -0.700
REMARK UNBOUND:                -0.149
REMARK  Name = 
REMARK  3 active torsions:
REMARK  status: ('A' for Active; 'I' for Inactive)
REMARK    1  A    between atoms: C_4  and  N_5
REMARK    2  A    between atoms: C_7  and  S_8
REMARK    3  A    between atoms: S_8  and  C_11
REMARK                            x       y       z     vdW  Elec       q    Type
REMARK                         _______ _______ _______ _____ _____    ______ ____
ROOT
ATOM      1  N   UNL     1      21.749   7.106  48.927  0.00  0.00    +0.000 N 
ATOM      2  C   UNL     1      22.580   6.149  49.466  0.00  0.00    +0.000 A 
ATOM      3  N   UNL     1      22.157   5.538  50.561  0.00  0.00    +0.000 NA
ATOM      4  C   UNL     1      22.976   4.639  51.113  0.00  0.00    +0.000 A 
ATOM      5  C   UNL     1      24.256   4.321  50.607  0.00  0.00    +0.000 A 
ATOM      6  C   UNL     1      25.240   3.408  51.105  0.00  0.00    +0.000 A 
ATOM      7  C   UNL     1      26.525   3.342  50.536  0.00  0.00    +0.000 A 
ATOM      8  C   UNL     1      26.817   4.111  49.418  0.00  0.00    +0.000 A 
ATOM      9  C   UNL     1      25.824   4.914  48.864  0.00  0.00    +0.000 A 
ATOM     10  C   UNL     1      24.571   5.046  49.445  0.00  0.00    +0.000 A 
ATOM     11  N   UNL     1      23.734   5.901  48.858  0.00  0.00    +0.000 NA
ATOM     12  H   UNL     1      20.887   7.310  49.357  0.00  0.00    +0.000 HD
ATOM     13  H   UNL     1      22.017   7.588  48.111  0.00  0.00    +0.000 HD
ENDROOT
BRANCH   4  14
ATOM     14  N   UNL     1      22.414   4.025  52.224  0.00  0.00    +0.000 N 
ATOM     15  H   UNL     1      22.361   4.511  53.079  0.00  0.00    +0.000 HD
ATOM     16  H   UNL     1      22.069   3.106  52.157  0.00  0.00    +0.000 HD
ENDBRANCH   4  14
BRANCH   6  17
ATOM     17  S   UNL     1      24.858   2.315  52.468  0.00  0.00    +0.000 S 
ATOM     18  O   UNL     1      24.624   3.155  53.640  0.00  0.00    +0.000 OA
ATOM     19  O   UNL     1      23.800   1.425  52.026  0.00  0.00    +0.000 OA
BRANCH  17  20
ATOM     20  C   UNL     1      26.282   1.344  52.899  0.00  0.00    +0.000 A 
ATOM     21  C   UNL     1      27.411   1.956  53.441  0.00  0.00    +0.000 A 
ATOM     22  C   UNL     1      28.552   1.190  53.693  0.00  0.00    +0.000 A 
ATOM     23  C   UNL     1      28.559  -0.182  53.414  0.00  0.00    +0.000 A 
ATOM     24 CL   UNL     1      30.027  -1.050  53.696  0.00  0.00    +0.000 Cl
ATOM     25  C   UNL     1      27.408  -0.799  52.909  0.00  0.00    +0.000 A 
ATOM     26 CL   UNL     1      27.339  -2.492  52.571  0.00  0.00    +0.000 Cl
ATOM     27  C   UNL     1      26.263  -0.038  52.655  0.00  0.00    +0.000 A 
ENDBRANCH  17  20
ENDBRANCH   6  17
TORSDOF 3
ENDMDL
MODEL 3
REMARK VINA RESULT:    -8.400      4.427      5.479
REMARK INTER + INTRA:          -9.776
REMARK INTER:                  -9.553
REMARK INTRA:                  -0.223
REMARK UNBOUND:                -0.149
REMARK  Name = 
REMARK  3 active torsions:
REMARK  status: ('A' for Active; 'I' for Inactive)
REMARK    1  A    between atoms: C_4  and  N_5
REMARK    2  A    between atoms: C_7  and  S_8
REMARK    3  A    between atoms: S_8  and  C_11
REMARK                            x       y       z     vdW  Elec       q    Type
REMARK                         _______ _______ _______ _____ _____    ______ ____
ROOT
ATOM      1  N   UNL     1      22.063  -1.773  55.115  0.00  0.00    +0.000 N 
ATOM      2  C   UNL     1      22.705  -0.837  54.334  0.00  0.00    +0.000 A 
ATOM      3  N   UNL     1      21.941   0.039  53.701  0.00  0.00    +0.000 NA
ATOM      4  C   UNL     1      22.554   0.921  52.908  0.00  0.00    +0.000 A 
ATOM      5  C   UNL     1      23.951   0.960  52.700  0.00  0.00    +0.000 A 
ATOM      6  C   UNL     1      24.733   1.824  51.867  0.00  0.00    +0.000 A 
ATOM      7  C   UNL     1      26.110   1.604  51.681  0.00  0.00    +0.000 A 
ATOM      8  C   UNL     1      26.740   0.587  52.384  0.00  0.00    +0.000 A 
ATOM      9  C   UNL     1      26.002  -0.181  53.281  0.00  0.00    +0.000 A 
ATOM     10  C   UNL     1      24.632  -0.027  53.432  0.00  0.00    +0.000 A 
ATOM     11  N   UNL     1      24.031  -0.872  54.270  0.00  0.00    +0.000 NA
ATOM     12  H   UNL     1      21.080  -1.769  55.181  0.00  0.00    +0.000 HD
ATOM     13  H   UNL     1      22.587  -2.445  55.609  0.00  0.00    +0.000 HD
ENDROOT
BRANCH   4  14
ATOM     14  N   UNL     1      21.666   1.821  52.334  0.00  0.00    +0.000 N 
ATOM     15  H   UNL     1      21.020   2.303  52.900  0.00  0.00    +0.000 HD
ATOM     16  H   UNL     1      21.683   1.977  51.362  0.00  0.00    +0.000 HD
ENDBRANCH   4  14
BRANCH   6  17
ATOM     17  S   UNL     1      23.976   3.218  51.040  0.00  0.00    +0.000 S 
ATOM     18  O   UNL     1      23.090   2.679  50.011  0.00  0.00    +0.000 OA
ATOM     19  O   UNL     1      23.410   4.075  52.067  0.00  0.00    +0.000 OA
BRANCH  17  20
ATOM     20  C   UNL     1      25.198   4.136  50.135  0.00  0.00    +0.000 A 
ATOM     21  C   UNL     1      26.244   3.472  49.497  0.00  0.00    +0.000 A 
ATOM     22  C   UNL     1      27.243   4.216  48.863  0.00  0.00    +0.000 A 
ATOM     23  C   UNL     1      27.188   5.615  48.858  0.00  0.00    +0.000 A 
ATOM     24 CL   UNL     1      28.491   6.465  48.106  0.00  0.00    +0.000 Cl
ATOM     25  C   UNL     1      26.111   6.275  49.464  0.00  0.00    +0.000 A 
ATOM     26 CL   UNL     1      25.966   7.997  49.468  0.00  0.00    +0.000 Cl
ATOM     27  C   UNL     1      25.110   5.536  50.099  0.00  0.00    +0.000 A 
ENDBRANCH  17  20
ENDBRANCH   6  17
TORSDOF 3
ENDMDL
MODEL 4
REMARK VINA RESULT:    -8.286      1.497      2.196
REMARK INTER + INTRA:          -9.645
REMARK INTER:                  -9.725
REMARK INTRA:                   0.080
REMARK UNBOUND:                -0.149
REMARK  Name = 
REMARK  3 active torsions:
REMARK  status: ('A' for Active; 'I' for Inactive)
REMARK    1  A    between atoms: C_4  and  N_5
REMARK    2  A    between atoms: C_7  and  S_8
REMARK    3  A    between atoms: S_8  and  C_11
REMARK                            x       y       z     vdW  Elec       q    Type
REMARK                         _______ _______ _______ _____ _____    ______ ____
ROOT
ATOM      1  N   UNL     1      17.524   0.476  51.790  0.00  0.00    +0.000 N 
ATOM      2  C   UNL     1      18.860   0.494  52.127  0.00  0.00    +0.000 A 
ATOM      3  N   UNL     1      19.635   1.330  51.454  0.00  0.00    +0.000 NA
ATOM      4  C   UNL     1      20.938   1.323  51.745  0.00  0.00    +0.000 A 
ATOM      5  C   UNL     1      21.528   0.472  52.707  0.00  0.00    +0.000 A 
ATOM      6  C   UNL     1      22.899   0.339  53.099  0.00  0.00    +0.000 A 
ATOM      7  C   UNL     1      23.308  -0.680  53.978  0.00  0.00    +0.000 A 
ATOM      8  C   UNL     1      22.355  -1.515  54.545  0.00  0.00    +0.000 A 
ATOM      9  C   UNL     1      21.009  -1.314  54.253  0.00  0.00    +0.000 A 
ATOM     10  C   UNL     1      20.587  -0.360  53.338  0.00  0.00    +0.000 A 
ATOM     11  N   UNL     1      19.278  -0.315  53.093  0.00  0.00    +0.000 NA
ATOM     12  H   UNL     1      17.187   1.066  51.077  0.00  0.00    +0.000 HD
ATOM     13  H   UNL     1      16.906  -0.127  52.263  0.00  0.00    +0.000 HD
ENDROOT
BRANCH   4  14
ATOM     14  N   UNL     1      21.646   2.269  51.018  0.00  0.00    +0.000 N 
ATOM     15  H   UNL     1      21.555   3.226  51.235  0.00  0.00    +0.000 HD
ATOM     16  H   UNL     1      22.240   1.985  50.287  0.00  0.00    +0.000 HD
ENDBRANCH   4  14
BRANCH   6  17
ATOM     17  S   UNL     1      24.134   1.475  52.481  0.00  0.00    +0.000 S 
ATOM     18  O   UNL     1      24.010   1.496  51.026  0.00  0.00    +0.000 OA
ATOM     19  O   UNL     1      23.980   2.721  53.212  0.00  0.00    +0.000 OA
BRANCH  17  20
ATOM     20  C   UNL     1      25.765   0.834  52.777  0.00  0.00    +0.000 A 
ATOM     21  C   UNL     1      26.043  -0.511  52.541  0.00  0.00    +0.000 A 
ATOM     22  C   UNL     1      27.306  -1.016  52.861  0.00  0.00    +0.000 A 
ATOM     23  C   UNL     1      28.287  -0.177  53.402  0.00  0.00    +0.000 A 
ATOM     24 CL   UNL     1      29.804  -0.888  53.827  0.00  0.00    +0.000 Cl
ATOM     25  C   UNL     1      28.015   1.183  53.597  0.00  0.00    +0.000 A 
ATOM     26 CL   UNL     1      29.190   2.280  54.233  0.00  0.00    +0.000 Cl
ATOM     27  C   UNL     1      26.754   1.694  53.279  0.00  0.00    +0.000 A 
ENDBRANCH  17  20
ENDBRANCH   6  17
TORSDOF 3
ENDMDL
MODEL 5
REMARK VINA RESULT:    -8.098      4.256      6.320
REMARK INTER + INTRA:          -9.430
REMARK INTER:                  -8.739
REMARK INTRA:                  -0.691
REMARK UNBOUND:                -0.149
REMARK  Name = 
REMARK  3 active torsions:
REMARK  status: ('A' for Active; 'I' for Inactive)
REMARK    1  A    between atoms: C_4  and  N_5
REMARK    2  A    between atoms: C_7  and  S_8
REMARK    3  A    between atoms: S_8  and  C_11
REMARK                            x       y       z     vdW  Elec       q    Type
REMARK                         _______ _______ _______ _____ _____    ______ ____
ROOT
ATOM      1  N   UNL     1      26.927   9.514  48.727  0.00  0.00    +0.000 N 
ATOM      2  C   UNL     1      26.389   8.329  49.179  0.00  0.00    +0.000 A 
ATOM      3  N   UNL     1      25.413   8.417  50.068  0.00  0.00    +0.000 NA
ATOM      4  C   UNL     1      24.916   7.272  50.543  0.00  0.00    +0.000 A 
ATOM      5  C   UNL     1      25.381   5.992  50.165  0.00  0.00    +0.000 A 
ATOM      6  C   UNL     1      24.964   4.695  50.608  0.00  0.00    +0.000 A 
ATOM      7  C   UNL     1      25.660   3.536  50.219  0.00  0.00    +0.000 A 
ATOM      8  C   UNL     1      26.712   3.641  49.320  0.00  0.00    +0.000 A 
ATOM      9  C   UNL     1      27.044   4.889  48.801  0.00  0.00    +0.000 A 
ATOM     10  C   UNL     1      26.418   6.054  49.220  0.00  0.00    +0.000 A 
ATOM     11  N   UNL     1      26.877   7.192  48.699  0.00  0.00    +0.000 NA
ATOM     12  H   UNL     1      26.584  10.373  49.067  0.00  0.00    +0.000 HD
ATOM     13  H   UNL     1      27.654   9.503  48.063  0.00  0.00    +0.000 HD
ENDROOT
BRANCH   4  14
ATOM     14  N   UNL     1      23.867   7.478  51.428  0.00  0.00    +0.000 N 
ATOM     15  H   UNL     1      23.541   6.735  51.987  0.00  0.00    +0.000 HD
ATOM     16  H   UNL     1      23.450   8.367  51.499  0.00  0.00    +0.000 HD
ENDBRANCH   4  14
BRANCH   6  17
ATOM     17  S   UNL     1      23.537   4.513  51.671  0.00  0.00    +0.000 S 
ATOM     18  O   UNL     1      23.881   5.109  52.959  0.00  0.00    +0.000 OA
ATOM     19  O   UNL     1      22.390   5.032  50.947  0.00  0.00    +0.000 OA
BRANCH  17  20
ATOM     20  C   UNL     1      23.256   2.798  52.038  0.00  0.00    +0.000 A 
ATOM     21  C   UNL     1      22.099   2.165  51.590  0.00  0.00    +0.000 A 
ATOM     22  C   UNL     1      21.853   0.840  51.962  0.00  0.00    +0.000 A 
ATOM     23  C   UNL     1      22.768   0.151  52.767  0.00  0.00    +0.000 A 
ATOM     24 CL   UNL     1      22.367  -1.464  53.234  0.00  0.00    +0.000 Cl
ATOM     25  C   UNL     1      23.951   0.779  53.178  0.00  0.00    +0.000 A 
ATOM     26 CL   UNL     1      25.135  -0.024  54.148  0.00  0.00    +0.000 Cl
ATOM     27  C   UNL     1      24.201   2.103  52.810  0.00  0.00    +0.000 A 
ENDBRANCH  17  20
ENDBRANCH   6  17
TORSDOF 3
ENDMDL
MODEL 6
REMARK VINA RESULT:    -8.058      4.922      7.084
REMARK INTER + INTRA:          -9.384
REMARK INTER:                  -8.529
REMARK INTRA:                  -0.855
REMARK UNBOUND:                -0.149
REMARK  Name = 
REMARK  3 active torsions:
REMARK  status: ('A' for Active; 'I' for Inactive)
REMARK    1  A    between atoms: C_4  and  N_5
REMARK    2  A    between atoms: C_7  and  S_8
REMARK    3  A    between atoms: S_8  and  C_11
REMARK                            x       y       z     vdW  Elec       q    Type
REMARK                         _______ _______ _______ _____ _____    ______ ____
ROOT
ATOM      1  N   UNL     1      28.301  -0.322  54.760  0.00  0.00    +0.000 N 
ATOM      2  C   UNL     1      27.359   0.230  53.921  0.00  0.00    +0.000 A 
ATOM      3  N   UNL     1      27.741   1.268  53.194  0.00  0.00    +0.000 NA
ATOM      4  C   UNL     1      26.821   1.836  52.411  0.00  0.00    +0.000 A 
ATOM      5  C   UNL     1      25.478   1.404  52.328  0.00  0.00    +0.000 A 
ATOM      6  C   UNL     1      24.389   1.929  51.560  0.00  0.00    +0.000 A 
ATOM      7  C   UNL     1      23.079   1.445  51.731  0.00  0.00    +0.000 A 
ATOM      8  C   UNL     1      22.851   0.382  52.594  0.00  0.00    +0.000 A 
ATOM      9  C   UNL     1      23.927  -0.203  53.255  0.00  0.00    +0.000 A 
ATOM     10  C   UNL     1      25.217   0.298  53.154  0.00  0.00    +0.000 A 
ATOM     11  N   UNL     1      26.146  -0.308  53.894  0.00  0.00    +0.000 NA
ATOM     12  H   UNL     1      29.209   0.058  54.800  0.00  0.00    +0.000 HD
ATOM     13  H   UNL     1      28.067  -1.098  55.320  0.00  0.00    +0.000 HD
ENDROOT
BRANCH   4  14
ATOM     14  N   UNL     1      27.339   2.881  51.659  0.00  0.00    +0.000 N 
ATOM     15  H   UNL     1      27.526   3.749  52.086  0.00  0.00    +0.000 HD
ATOM     16  H   UNL     1      27.522   2.754  50.700  0.00  0.00    +0.000 HD
ENDBRANCH   4  14
BRANCH   6  17
ATOM     17  S   UNL     1      24.668   3.217  50.351  0.00  0.00    +0.000 S 
ATOM     18  O   UNL     1      24.908   4.455  51.089  0.00  0.00    +0.000 OA
ATOM     19  O   UNL     1      25.692   2.740  49.439  0.00  0.00    +0.000 OA
BRANCH  17  20
ATOM     20  C   UNL     1      23.181   3.532  49.431  0.00  0.00    +0.000 A 
ATOM     21  C   UNL     1      22.879   2.771  48.304  0.00  0.00    +0.000 A 
ATOM     22  C   UNL     1      21.750   3.090  47.543  0.00  0.00    +0.000 A 
ATOM     23  C   UNL     1      20.924   4.156  47.917  0.00  0.00    +0.000 A 
ATOM     24 CL   UNL     1      19.581   4.526  46.894  0.00  0.00    +0.000 Cl
ATOM     25  C   UNL     1      21.209   4.890  49.076  0.00  0.00    +0.000 A 
ATOM     26 CL   UNL     1      20.215   6.199  49.610  0.00  0.00    +0.000 Cl
ATOM     27  C   UNL     1      22.336   4.576  49.840  0.00  0.00    +0.000 A 
ENDBRANCH  17  20
ENDBRANCH   6  17
TORSDOF 3
ENDMDL
MODEL 7
REMARK VINA RESULT:    -7.608      5.550      7.752
REMARK INTER + INTRA:          -8.869
REMARK INTER:                  -7.978
REMARK INTRA:                  -0.890
REMARK UNBOUND:                -0.149
REMARK  Name = 
REMARK  3 active torsions:
REMARK  status: ('A' for Active; 'I' for Inactive)
REMARK    1  A    between atoms: C_4  and  N_5
REMARK    2  A    between atoms: C_7  and  S_8
REMARK    3  A    between atoms: S_8  and  C_11
REMARK                            x       y       z     vdW  Elec       q    Type
REMARK                         _______ _______ _______ _____ _____    ______ ____
ROOT
ATOM      1  N   UNL     1      28.820  10.218  48.518  0.00  0.00    +0.000 N 
ATOM      2  C   UNL     1      28.005   9.134  48.762  0.00  0.00    +0.000 A 
ATOM      3  N   UNL     1      26.872   9.371  49.403  0.00  0.00    +0.000 NA
ATOM      4  C   UNL     1      26.097   8.319  49.681  0.00  0.00    +0.000 A 
ATOM      5  C   UNL     1      26.425   6.986  49.346  0.00  0.00    +0.000 A 
ATOM      6  C   UNL     1      25.711   5.771  49.602  0.00  0.00    +0.000 A 
ATOM      7  C   UNL     1      26.282   4.518  49.317  0.00  0.00    +0.000 A 
ATOM      8  C   UNL     1      27.522   4.458  48.695  0.00  0.00    +0.000 A 
ATOM      9  C   UNL     1      28.166   5.641  48.343  0.00  0.00    +0.000 A 
ATOM     10  C   UNL     1      27.655   6.887  48.673  0.00  0.00    +0.000 A 
ATOM     11  N   UNL     1      28.403   7.940  48.342  0.00  0.00    +0.000 NA
ATOM     12  H   UNL     1      28.549  11.116  48.819  0.00  0.00    +0.000 HD
ATOM     13  H   UNL     1      29.673  10.095  48.042  0.00  0.00    +0.000 HD
ENDROOT
BRANCH   4  14
ATOM     14  N   UNL     1      24.915   8.685  50.308  0.00  0.00    +0.000 N 
ATOM     15  H   UNL     1      24.385   9.438  49.957  0.00  0.00    +0.000 HD
ATOM     16  H   UNL     1      24.605   8.193  51.102  0.00  0.00    +0.000 HD
ENDBRANCH   4  14
BRANCH   6  17
ATOM     17  S   UNL     1      24.061   5.816  50.291  0.00  0.00    +0.000 S 
ATOM     18  O   UNL     1      24.184   6.267  51.675  0.00  0.00    +0.000 OA
ATOM     19  O   UNL     1      23.232   6.585  49.379  0.00  0.00    +0.000 OA
BRANCH  17  20
ATOM     20  C   UNL     1      23.401   4.172  50.418  0.00  0.00    +0.000 A 
ATOM     21  C   UNL     1      22.603   3.655  49.399  0.00  0.00    +0.000 A 
ATOM     22  C   UNL     1      22.022   2.393  49.555  0.00  0.00    +0.000 A 
ATOM     23  C   UNL     1      22.248   1.650  50.721  0.00  0.00    +0.000 A 
ATOM     24 CL   UNL     1      21.447   0.126  50.866  0.00  0.00    +0.000 Cl
ATOM     25  C   UNL     1      23.085   2.157  51.723  0.00  0.00    +0.000 A 
ATOM     26 CL   UNL     1      23.430   1.280  53.171  0.00  0.00    +0.000 Cl
ATOM     27  C   UNL     1      23.669   3.418  51.572  0.00  0.00    +0.000 A 
ENDBRANCH  17  20
ENDBRANCH   6  17
TORSDOF 3
ENDMDL
MODEL 8
REMARK VINA RESULT:    -7.587      2.142      3.393
REMARK INTER + INTRA:          -8.845
REMARK INTER:                  -8.037
REMARK INTRA:                  -0.807
REMARK UNBOUND:                -0.149
REMARK  Name = 
REMARK  3 active torsions:
REMARK  status: ('A' for Active; 'I' for Inactive)
REMARK    1  A    between atoms: C_4  and  N_5
REMARK    2  A    between atoms: C_7  and  S_8
REMARK    3  A    between atoms: S_8  and  C_11
REMARK                            x       y       z     vdW  Elec       q    Type
REMARK                         _______ _______ _______ _____ _____    ______ ____
ROOT
ATOM      1  N   UNL     1      19.956   4.912  49.446  0.00  0.00    +0.000 N 
ATOM      2  C   UNL     1      21.063   4.245  49.924  0.00  0.00    +0.000 A 
ATOM      3  N   UNL     1      20.905   3.545  51.036  0.00  0.00    +0.000 NA
ATOM      4  C   UNL     1      21.984   2.931  51.528  0.00  0.00    +0.000 A 
ATOM      5  C   UNL     1      23.268   3.001  50.943  0.00  0.00    +0.000 A 
ATOM      6  C   UNL     1      24.506   2.422  51.372  0.00  0.00    +0.000 A 
ATOM      7  C   UNL     1      25.717   2.734  50.727  0.00  0.00    +0.000 A 
ATOM      8  C   UNL     1      25.701   3.546  49.601  0.00  0.00    +0.000 A 
ATOM      9  C   UNL     1      24.484   4.017  49.116  0.00  0.00    +0.000 A 
ATOM     10  C   UNL     1      23.285   3.778  49.773  0.00  0.00    +0.000 A 
ATOM     11  N   UNL     1      22.200   4.344  49.246  0.00  0.00    +0.000 NA
ATOM     12  H   UNL     1      19.100   4.855  49.929  0.00  0.00    +0.000 HD
ATOM     13  H   UNL     1      20.021   5.445  48.620  0.00  0.00    +0.000 HD
ENDROOT
BRANCH   4  14
ATOM     14  N   UNL     1      21.696   2.188  52.664  0.00  0.00    +0.000 N 
ATOM     15  H   UNL     1      22.292   1.451  52.934  0.00  0.00    +0.000 HD
ATOM     16  H   UNL     1      20.898   2.398  53.200  0.00  0.00    +0.000 HD
ENDBRANCH   4  14
BRANCH   6  17
ATOM     17  S   UNL     1      24.546   1.275  52.744  0.00  0.00    +0.000 S 
ATOM     18  O   UNL     1      24.287   2.047  53.957  0.00  0.00    +0.000 OA
ATOM     19  O   UNL     1      23.656   0.176  52.415  0.00  0.00    +0.000 OA
BRANCH  17  20
ATOM     20  C   UNL     1      26.189   0.638  52.969  0.00  0.00    +0.000 A 
ATOM     21  C   UNL     1      26.504  -0.652  52.547  0.00  0.00    +0.000 A 
ATOM     22  C   UNL     1      27.777  -1.168  52.809  0.00  0.00    +0.000 A 
ATOM     23  C   UNL     1      28.730  -0.391  53.479  0.00  0.00    +0.000 A 
ATOM     24 CL   UNL     1      30.260  -1.119  53.820  0.00  0.00    +0.000 Cl
ATOM     25  C   UNL     1      28.420   0.920  53.862  0.00  0.00    +0.000 A 
ATOM     26 CL   UNL     1      29.560   1.942  54.665  0.00  0.00    +0.000 Cl
ATOM     27  C   UNL     1      27.150   1.441  53.602  0.00  0.00    +0.000 A 
ENDBRANCH  17  20
ENDBRANCH   6  17
TORSDOF 3
ENDMDL
MODEL 9
REMARK VINA RESULT:    -7.507      2.683      3.474
REMARK INTER + INTRA:          -8.753
REMARK INTER:                  -7.882
REMARK INTRA:                  -0.871
REMARK UNBOUND:                -0.149
REMARK  Name = 
REMARK  3 active torsions:
REMARK  status: ('A' for Active; 'I' for Inactive)
REMARK    1  A    between atoms: C_4  and  N_5
REMARK    2  A    between atoms: C_7  and  S_8
REMARK    3  A    between atoms: S_8  and  C_11
REMARK                            x       y       z     vdW  Elec       q    Type
REMARK                         _______ _______ _______ _____ _____    ______ ____
ROOT
ATOM      1  N   UNL     1      18.590   6.955  48.744  0.00  0.00    +0.000 N 
ATOM      2  C   UNL     1      19.570   6.111  49.221  0.00  0.00    +0.000 A 
ATOM      3  N   UNL     1      20.503   6.652  49.987  0.00  0.00    +0.000 NA
ATOM      4  C   UNL     1      21.480   5.849  50.417  0.00  0.00    +0.000 A 
ATOM      5  C   UNL     1      21.577   4.478  50.090  0.00  0.00    +0.000 A 
ATOM      6  C   UNL     1      22.572   3.514  50.453  0.00  0.00    +0.000 A 
ATOM      7  C   UNL     1      22.569   2.221  49.899  0.00  0.00    +0.000 A 
ATOM      8  C   UNL     1      21.535   1.843  49.053  0.00  0.00    +0.000 A 
ATOM      9  C   UNL     1      20.506   2.743  48.789  0.00  0.00    +0.000 A 
ATOM     10  C   UNL     1      20.521   4.044  49.270  0.00  0.00    +0.000 A 
ATOM     11  N   UNL     1      19.513   4.828  48.886  0.00  0.00    +0.000 NA
ATOM     12  H   UNL     1      18.608   7.912  48.977  0.00  0.00    +0.000 HD
ATOM     13  H   UNL     1      17.872   6.601  48.172  0.00  0.00    +0.000 HD
ENDROOT
BRANCH   4  14
ATOM     14  N   UNL     1      22.374   6.505  51.251  0.00  0.00    +0.000 N 
ATOM     15  H   UNL     1      23.334   6.283  51.215  0.00  0.00    +0.000 HD
ATOM     16  H   UNL     1      22.051   7.192  51.876  0.00  0.00    +0.000 HD
ENDBRANCH   4  14
BRANCH   6  17
ATOM     17  S   UNL     1      23.849   3.929  51.635  0.00  0.00    +0.000 S 
ATOM     18  O   UNL     1      24.772   4.843  50.967  0.00  0.00    +0.000 OA
ATOM     19  O   UNL     1      23.188   4.371  52.850  0.00  0.00    +0.000 OA
BRANCH  17  20
ATOM     20  C   UNL     1      24.835   2.498  52.005  0.00  0.00    +0.000 A 
ATOM     21  C   UNL     1      26.041   2.285  51.339  0.00  0.00    +0.000 A 
ATOM     22  C   UNL     1      26.760   1.112  51.581  0.00  0.00    +0.000 A 
ATOM     23  C   UNL     1      26.280   0.163  52.492  0.00  0.00    +0.000 A 
ATOM     24 CL   UNL     1      27.194  -1.290  52.692  0.00  0.00    +0.000 Cl
ATOM     25  C   UNL     1      25.089   0.403  53.190  0.00  0.00    +0.000 A 
ATOM     26 CL   UNL     1      24.457  -0.712  54.349  0.00  0.00    +0.000 Cl
ATOM     27  C   UNL     1      24.366   1.574  52.952  0.00  0.00    +0.000 A 
ENDBRANCH  17  20
ENDBRANCH   6  17
TORSDOF 3
ENDMDL
