MODEL 1
REMARK VINA RESULT:    -7.904      0.000      0.000
REMARK INTER + INTRA:         -10.128
REMARK INTER:                  -9.752
REMARK INTRA:                  -0.375
REMARK UNBOUND:                -0.375
REMARK  Name = 
REMARK  6 active torsions:
REMARK  status: ('A' for Active; 'I' for Inactive)
REMARK    1  A    between atoms: C_1  and  N_2
REMARK    2  A    between atoms: N_2  and  C_3
REMARK    3  A    between atoms: N_2  and  C_4
REMARK    4  A    between atoms: C_9  and  S_10
REMARK    5  A    between atoms: S_10  and  N_13
REMARK    6  A    between atoms: C_20  and  C_21
REMARK                            x       y       z     vdW  Elec       q    Type
REMARK                         _______ _______ _______ _____ _____    ______ ____
ROOT
ATOM      1  S   UNL     1      24.032   2.125  52.284  0.00  0.00    +0.000 S 
ATOM      2  O   UNL     1      22.771   1.771  52.887  0.00  0.00    +0.000 OA
ATOM      3  O   UNL     1      24.703   1.188  51.406  0.00  0.00    +0.000 OA
ENDROOT
BRANCH   1   9
ATOM      4  C   UNL     1      25.974   6.133  49.442  0.00  0.00    +0.000 A 
ATOM      5  C   UNL     1      26.960   5.226  48.998  0.00  0.00    +0.000 A 
ATOM      6  C   UNL     1      26.841   3.855  49.170  0.00  0.00    +0.000 A 
ATOM      7  C   UNL     1      25.786   3.345  49.907  0.00  0.00    +0.000 A 
ATOM      8  C   UNL     1      24.840   4.184  50.524  0.00  0.00    +0.000 A 
ATOM      9  C   UNL     1      23.834   3.684  51.405  0.00  0.00    +0.000 A 
ATOM     10  C   UNL     1      22.796   4.506  51.849  0.00  0.00    +0.000 A 
ATOM     11  C   UNL     1      22.751   5.830  51.446  0.00  0.00    +0.000 A 
ATOM     12  C   UNL     1      23.777   6.353  50.655  0.00  0.00    +0.000 A 
ATOM     13  C   UNL     1      24.880   5.586  50.210  0.00  0.00    +0.000 A 
BRANCH   4  15
ATOM     14  C   UNL     1      26.084   7.767  47.606  0.00  0.00    +0.000 C 
ATOM     15  N   UNL     1      26.061   7.492  49.047  0.00  0.00    +0.000 N 
ATOM     16  C   UNL     1      26.848   8.435  49.849  0.00  0.00    +0.000 C 
ENDBRANCH   4  15
ENDBRANCH   1   9
BRANCH   1  17
ATOM     17  N   UNL     1      25.061   2.460  53.584  0.00  0.00    +0.000 N 
ATOM     18  C   UNL     1      26.220   1.645  53.643  0.00  0.00    +0.000 A 
ATOM     19  N   UNL     1      27.329   2.304  53.230  0.00  0.00    +0.000 NA
ATOM     20  C   UNL     1      28.483   1.589  53.257  0.00  0.00    +0.000 A 
ATOM     21  C   UNL     1      28.537   0.261  53.667  0.00  0.00    +0.000 A 
ATOM     22 BR   UNL     1      30.193  -0.656  53.647  0.00  0.00    +0.000 Br
ATOM     23  N   UNL     1      27.439  -0.404  54.086  0.00  0.00    +0.000 NA
ATOM     24  C   UNL     1      26.277   0.308  54.069  0.00  0.00    +0.000 A 
ATOM     25  H   UNL     1      24.870   3.163  54.246  0.00  0.00    +0.000 HD
BRANCH  24  26
ATOM     26  C   UNL     1      25.117  -0.393  54.560  0.00  0.00    +0.000 C 
ATOM     27  N   UNL     1      24.169  -0.967  54.904  0.00  0.00    +0.000 NA
ENDBRANCH  24  26
ENDBRANCH   1  17
TORSDOF 4
ENDMDL
MODEL 2
REMARK VINA RESULT:    -7.736      5.047      7.903
REMARK INTER + INTRA:          -9.920
REMARK INTER:                  -9.361
REMARK INTRA:                  -0.559
REMARK UNBOUND:                -0.375
REMARK  Name = 
REMARK  6 active torsions:
REMARK  status: ('A' for Active; 'I' for Inactive)
REMARK    1  A    between atoms: C_1  and  N_2
REMARK    2  A    between atoms: N_2  and  C_3
REMARK    3  A    between atoms: N_2  and  C_4
REMARK    4  A    between atoms: C_9  and  S_10
REMARK    5  A    between atoms: S_10  and  N_13
REMARK    6  A    between atoms: C_20  and  C_21
REMARK                            x       y       z     vdW  Elec       q    Type
REMARK                         _______ _______ _______ _____ _____    ______ ____
ROOT
ATOM      1  S   UNL     1      21.589   2.302  51.837  0.00  0.00    +0.000 S 
ATOM      2  O   UNL     1      21.908   3.696  52.022  0.00  0.00    +0.000 OA
ATOM      3  O   UNL     1      21.543   1.741  50.502  0.00  0.00    +0.000 OA
ENDROOT
BRANCH   1   9
ATOM      4  C   UNL     1      26.275  -0.013  52.609  0.00  0.00    +0.000 A 
ATOM      5  C   UNL     1      26.808   0.982  51.762  0.00  0.00    +0.000 A 
ATOM      6  C   UNL     1      26.104   2.128  51.424  0.00  0.00    +0.000 A 
ATOM      7  C   UNL     1      24.785   2.264  51.823  0.00  0.00    +0.000 A 
ATOM      8  C   UNL     1      24.119   1.251  52.537  0.00  0.00    +0.000 A 
ATOM      9  C   UNL     1      22.723   1.314  52.828  0.00  0.00    +0.000 A 
ATOM     10  C   UNL     1      22.129   0.395  53.697  0.00  0.00    +0.000 A 
ATOM     11  C   UNL     1      22.900  -0.601  54.270  0.00  0.00    +0.000 A 
ATOM     12  C   UNL     1      24.248  -0.725  53.925  0.00  0.00    +0.000 A 
ATOM     13  C   UNL     1      24.898   0.144  53.017  0.00  0.00    +0.000 A 
BRANCH   4  15
ATOM     14  C   UNL     1      28.457  -0.652  53.549  0.00  0.00    +0.000 C 
ATOM     15  N   UNL     1      27.125  -1.047  53.078  0.00  0.00    +0.000 N 
ATOM     16  C   UNL     1      27.083  -2.368  52.442  0.00  0.00    +0.000 C 
ENDBRANCH   4  15
ENDBRANCH   1   9
BRANCH   1  17
ATOM     17  N   UNL     1      20.067   2.102  52.546  0.00  0.00    +0.000 N 
ATOM     18  C   UNL     1      19.088   1.535  51.691  0.00  0.00    +0.000 A 
ATOM     19  N   UNL     1      18.851   0.232  51.979  0.00  0.00    +0.000 NA
ATOM     20  C   UNL     1      17.924  -0.383  51.200  0.00  0.00    +0.000 A 
ATOM     21  C   UNL     1      17.261   0.264  50.164  0.00  0.00    +0.000 A 
ATOM     22 BR   UNL     1      16.000  -0.689  49.122  0.00  0.00    +0.000 Br
ATOM     23  N   UNL     1      17.485   1.563  49.872  0.00  0.00    +0.000 NA
ATOM     24  C   UNL     1      18.409   2.191  50.652  0.00  0.00    +0.000 A 
ATOM     25  H   UNL     1      19.876   2.358  53.478  0.00  0.00    +0.000 HD
BRANCH  24  26
ATOM     26  C   UNL     1      18.611   3.590  50.365  0.00  0.00    +0.000 C 
ATOM     27  N   UNL     1      18.764   4.726  50.187  0.00  0.00    +0.000 NA
ENDBRANCH  24  26
ENDBRANCH   1  17
TORSDOF 4
ENDMDL
MODEL 3
REMARK VINA RESULT:    -7.717      4.628      7.579
REMARK INTER + INTRA:          -9.896
REMARK INTER:                  -9.394
REMARK INTRA:                  -0.503
REMARK UNBOUND:                -0.375
REMARK  Name = 
REMARK  6 active torsions:
REMARK  status: ('A' for Active; 'I' for Inactive)
REMARK    1  A    between atoms: C_1  and  N_2
REMARK    2  A    between atoms: N_2  and  C_3
REMARK    3  A    between atoms: N_2  and  C_4
REMARK    4  A    between atoms: C_9  and  S_10
REMARK    5  A    between atoms: S_10  and  N_13
REMARK    6  A    between atoms: C_20  and  C_21
REMARK                            x       y       z     vdW  Elec       q    Type
REMARK                         _______ _______ _______ _____ _____    ______ ____
ROOT
ATOM      1  S   UNL     1      20.712   0.596  52.817  0.00  0.00    +0.000 S 
ATOM      2  O   UNL     1      19.622  -0.235  53.264  0.00  0.00    +0.000 OA
ATOM      3  O   UNL     1      20.566   2.037  52.807  0.00  0.00    +0.000 OA
ENDROOT
BRANCH   1   9
ATOM      4  C   UNL     1      25.944   0.019  53.269  0.00  0.00    +0.000 A 
ATOM      5  C   UNL     1      26.051   0.984  52.244  0.00  0.00    +0.000 A 
ATOM      6  C   UNL     1      24.985   1.784  51.860  0.00  0.00    +0.000 A 
ATOM      7  C   UNL     1      23.731   1.561  52.403  0.00  0.00    +0.000 A 
ATOM      8  C   UNL     1      23.494   0.515  53.315  0.00  0.00    +0.000 A 
ATOM      9  C   UNL     1      22.183   0.182  53.770  0.00  0.00    +0.000 A 
ATOM     10  C   UNL     1      21.996  -0.727  54.814  0.00  0.00    +0.000 A 
ATOM     11  C   UNL     1      23.095  -1.328  55.404  0.00  0.00    +0.000 A 
ATOM     12  C   UNL     1      24.376  -1.075  54.909  0.00  0.00    +0.000 A 
ATOM     13  C   UNL     1      24.630  -0.201  53.825  0.00  0.00    +0.000 A 
BRANCH   4  15
ATOM     14  C   UNL     1      28.066   0.230  54.497  0.00  0.00    +0.000 C 
ATOM     15  N   UNL     1      27.121  -0.608  53.749  0.00  0.00    +0.000 N 
ATOM     16  C   UNL     1      27.758  -1.666  52.957  0.00  0.00    +0.000 C 
ENDBRANCH   4  15
ENDBRANCH   1   9
BRANCH   1  17
ATOM     17  N   UNL     1      21.032   0.086  51.237  0.00  0.00    +0.000 N 
ATOM     18  C   UNL     1      20.703   1.034  50.234  0.00  0.00    +0.000 A 
ATOM     19  N   UNL     1      21.801   1.652  49.735  0.00  0.00    +0.000 NA
ATOM     20  C   UNL     1      21.568   2.577  48.769  0.00  0.00    +0.000 A 
ATOM     21  C   UNL     1      20.290   2.889  48.317  0.00  0.00    +0.000 A 
ATOM     22 BR   UNL     1      20.069   4.210  46.980  0.00  0.00    +0.000 Br
ATOM     23  N   UNL     1      19.190   2.276  48.803  0.00  0.00    +0.000 NA
ATOM     24  C   UNL     1      19.414   1.342  49.769  0.00  0.00    +0.000 A 
ATOM     25  H   UNL     1      21.416  -0.796  51.029  0.00  0.00    +0.000 HD
BRANCH  24  26
ATOM     26  C   UNL     1      18.240   0.658  50.251  0.00  0.00    +0.000 C 
ATOM     27  N   UNL     1      17.327   0.072  50.664  0.00  0.00    +0.000 NA
ENDBRANCH  24  26
ENDBRANCH   1  17
TORSDOF 4
ENDMDL
MODEL 4
REMARK VINA RESULT:    -7.650      3.715      7.838
REMARK INTER + INTRA:          -9.814
REMARK INTER:                  -9.556
REMARK INTRA:                  -0.258
REMARK UNBOUND:                -0.375
REMARK  Name = 
REMARK  6 active torsions:
REMARK  status: ('A' for Active; 'I' for Inactive)
REMARK    1  A    between atoms: C_1  and  N_2
REMARK    2  A    between atoms: N_2  and  C_3
REMARK    3  A    between atoms: N_2  and  C_4
REMARK    4  A    between atoms: C_9  and  S_10
REMARK    5  A    between atoms: S_10  and  N_13
REMARK    6  A    between atoms: C_20  and  C_21
REMARK                            x       y       z     vdW  Elec       q    Type
REMARK                         _______ _______ _______ _____ _____    ______ ____
ROOT
ATOM      1  S   UNL     1      25.179   3.711  50.454  0.00  0.00    +0.000 S 
ATOM      2  O   UNL     1      26.548   4.111  50.243  0.00  0.00    +0.000 OA
ATOM      3  O   UNL     1      24.241   3.733  49.351  0.00  0.00    +0.000 OA
ENDROOT
BRANCH   1   9
ATOM      4  C   UNL     1      22.899  -0.065  53.362  0.00  0.00    +0.000 A 
ATOM      5  C   UNL     1      21.669   0.533  53.016  0.00  0.00    +0.000 A 
ATOM      6  C   UNL     1      21.553   1.457  51.988  0.00  0.00    +0.000 A 
ATOM      7  C   UNL     1      22.692   1.913  51.345  0.00  0.00    +0.000 A 
ATOM      8  C   UNL     1      23.978   1.493  51.730  0.00  0.00    +0.000 A 
ATOM      9  C   UNL     1      25.164   2.062  51.178  0.00  0.00    +0.000 A 
ATOM     10  C   UNL     1      26.417   1.498  51.433  0.00  0.00    +0.000 A 
ATOM     11  C   UNL     1      26.512   0.383  52.248  0.00  0.00    +0.000 A 
ATOM     12  C   UNL     1      25.368  -0.130  52.863  0.00  0.00    +0.000 A 
ATOM     13  C   UNL     1      24.078   0.422  52.683  0.00  0.00    +0.000 A 
BRANCH   4  15
ATOM     14  C   UNL     1      21.639  -1.866  54.468  0.00  0.00    +0.000 C 
ATOM     15  N   UNL     1      22.905  -1.149  54.275  0.00  0.00    +0.000 N 
ATOM     16  C   UNL     1      23.745  -1.085  55.477  0.00  0.00    +0.000 C 
ENDBRANCH   4  15
ENDBRANCH   1   9
BRANCH   1  17
ATOM     17  N   UNL     1      24.601   4.746  51.660  0.00  0.00    +0.000 N 
ATOM     18  C   UNL     1      23.686   5.730  51.204  0.00  0.00    +0.000 A 
ATOM     19  N   UNL     1      22.406   5.428  51.533  0.00  0.00    +0.000 NA
ATOM     20  C   UNL     1      21.469   6.324  51.129  0.00  0.00    +0.000 A 
ATOM     21  C   UNL     1      21.785   7.474  50.414  0.00  0.00    +0.000 A 
ATOM     22 BR   UNL     1      20.401   8.649  49.878  0.00  0.00    +0.000 Br
ATOM     23  N   UNL     1      23.056   7.787  50.086  0.00  0.00    +0.000 NA
ATOM     24  C   UNL     1      24.005   6.897  50.493  0.00  0.00    +0.000 A 
ATOM     25  H   UNL     1      24.876   4.671  52.603  0.00  0.00    +0.000 HD
BRANCH  24  26
ATOM     26  C   UNL     1      25.365   7.259  50.180  0.00  0.00    +0.000 C 
ATOM     27  N   UNL     1      26.443   7.569  49.880  0.00  0.00    +0.000 NA
ENDBRANCH  24  26
ENDBRANCH   1  17
TORSDOF 4
ENDMDL
MODEL 5
REMARK VINA RESULT:    -7.537      2.722      4.174
REMARK INTER + INTRA:          -9.674
REMARK INTER:                  -9.340
REMARK INTRA:                  -0.335
REMARK UNBOUND:                -0.375
REMARK  Name = 
REMARK  6 active torsions:
REMARK  status: ('A' for Active; 'I' for Inactive)
REMARK    1  A    between atoms: C_1  and  N_2
REMARK    2  A    between atoms: N_2  and  C_3
REMARK    3  A    between atoms: N_2  and  C_4
REMARK    4  A    between atoms: C_9  and  S_10
REMARK    5  A    between atoms: S_10  and  N_13
REMARK    6  A    between atoms: C_20  and  C_21
REMARK                            x       y       z     vdW  Elec       q    Type
REMARK                         _______ _______ _______ _____ _____    ______ ____
ROOT
ATOM      1  S   UNL     1      23.539   3.935  50.612  0.00  0.00    +0.000 S 
ATOM      2  O   UNL     1      23.407   3.996  52.047  0.00  0.00    +0.000 OA
ATOM      3  O   UNL     1      22.513   4.511  49.766  0.00  0.00    +0.000 OA
ENDROOT
BRANCH   1   9
ATOM      4  C   UNL     1      26.519   8.009  49.052  0.00  0.00    +0.000 A 
ATOM      5  C   UNL     1      25.563   8.836  49.679  0.00  0.00    +0.000 A 
ATOM      6  C   UNL     1      24.618   8.341  50.566  0.00  0.00    +0.000 A 
ATOM      7  C   UNL     1      24.513   6.975  50.764  0.00  0.00    +0.000 A 
ATOM      8  C   UNL     1      25.319   6.061  50.061  0.00  0.00    +0.000 A 
ATOM      9  C   UNL     1      25.125   4.649  50.146  0.00  0.00    +0.000 A 
ATOM     10  C   UNL     1      26.053   3.763  49.594  0.00  0.00    +0.000 A 
ATOM     11  C   UNL     1      27.167   4.259  48.939  0.00  0.00    +0.000 A 
ATOM     12  C   UNL     1      27.323   5.637  48.775  0.00  0.00    +0.000 A 
ATOM     13  C   UNL     1      26.396   6.586  49.269  0.00  0.00    +0.000 A 
BRANCH   4  15
ATOM     14  C   UNL     1      28.425   9.564  49.053  0.00  0.00    +0.000 C 
ATOM     15  N   UNL     1      27.580   8.609  48.328  0.00  0.00    +0.000 N 
ATOM     16  C   UNL     1      27.403   8.926  46.906  0.00  0.00    +0.000 C 
ENDBRANCH   4  15
ENDBRANCH   1   9
BRANCH   1  17
ATOM     17  N   UNL     1      23.656   2.287  50.253  0.00  0.00    +0.000 N 
ATOM     18  C   UNL     1      23.366   1.424  51.341  0.00  0.00    +0.000 A 
ATOM     19  N   UNL     1      22.138   0.860  51.232  0.00  0.00    +0.000 NA
ATOM     20  C   UNL     1      21.786   0.020  52.240  0.00  0.00    +0.000 A 
ATOM     21  C   UNL     1      22.615  -0.246  53.324  0.00  0.00    +0.000 A 
ATOM     22 BR   UNL     1      22.022  -1.417  54.688  0.00  0.00    +0.000 Br
ATOM     23  N   UNL     1      23.841   0.306  53.440  0.00  0.00    +0.000 NA
ATOM     24  C   UNL     1      24.207   1.146  52.431  0.00  0.00    +0.000 A 
ATOM     25  H   UNL     1      23.905   1.952  49.361  0.00  0.00    +0.000 HD
BRANCH  24  26
ATOM     26  C   UNL     1      25.535   1.696  52.536  0.00  0.00    +0.000 C 
ATOM     27  N   UNL     1      26.622   2.090  52.635  0.00  0.00    +0.000 NA
ENDBRANCH  24  26
ENDBRANCH   1  17
TORSDOF 4
ENDMDL
MODEL 6
REMARK VINA RESULT:    -7.427      1.189      2.489
REMARK INTER + INTRA:          -9.540
REMARK INTER:                  -9.768
REMARK INTRA:                   0.228
REMARK UNBOUND:                -0.375
REMARK  Name = 
REMARK  6 active torsions:
REMARK  status: ('A' for Active; 'I' for Inactive)
REMARK    1  A    between atoms: C_1  and  N_2
REMARK    2  A    between atoms: N_2  and  C_3
REMARK    3  A    between atoms: N_2  and  C_4
REMARK    4  A    between atoms: C_9  and  S_10
REMARK    5  A    between atoms: S_10  and  N_13
REMARK    6  A    between atoms: C_20  and  C_21
REMARK                            x       y       z     vdW  Elec       q    Type
REMARK                         _______ _______ _______ _____ _____    ______ ____
ROOT
ATOM      1  S   UNL     1      24.479   3.037  51.567  0.00  0.00    +0.000 S 
ATOM      2  O   UNL     1      23.182   3.611  51.821  0.00  0.00    +0.000 OA
ATOM      3  O   UNL     1      24.585   1.742  50.925  0.00  0.00    +0.000 OA
ENDROOT
BRANCH   1   9
ATOM      4  C   UNL     1      25.005   7.600  48.957  0.00  0.00    +0.000 A 
ATOM      5  C   UNL     1      23.961   8.086  49.773  0.00  0.00    +0.000 A 
ATOM      6  C   UNL     1      23.546   7.429  50.922  0.00  0.00    +0.000 A 
ATOM      7  C   UNL     1      24.079   6.190  51.233  0.00  0.00    +0.000 A 
ATOM      8  C   UNL     1      25.011   5.553  50.393  0.00  0.00    +0.000 A 
ATOM      9  C   UNL     1      25.459   4.217  50.624  0.00  0.00    +0.000 A 
ATOM     10  C   UNL     1      26.521   3.681  49.893  0.00  0.00    +0.000 A 
ATOM     11  C   UNL     1      27.137   4.446  48.917  0.00  0.00    +0.000 A 
ATOM     12  C   UNL     1      26.651   5.722  48.624  0.00  0.00    +0.000 A 
ATOM     13  C   UNL     1      25.551   6.306  49.295  0.00  0.00    +0.000 A 
BRANCH   4  15
ATOM     14  C   UNL     1      26.606   9.341  48.277  0.00  0.00    +0.000 C 
ATOM     15  N   UNL     1      25.514   8.427  47.924  0.00  0.00    +0.000 N 
ATOM     16  C   UNL     1      24.606   8.949  46.896  0.00  0.00    +0.000 C 
ENDBRANCH   4  15
ENDBRANCH   1   9
BRANCH   1  17
ATOM     17  N   UNL     1      25.219   2.936  53.084  0.00  0.00    +0.000 N 
ATOM     18  C   UNL     1      26.143   1.868  53.220  0.00  0.00    +0.000 A 
ATOM     19  N   UNL     1      27.428   2.295  53.165  0.00  0.00    +0.000 NA
ATOM     20  C   UNL     1      28.374   1.328  53.287  0.00  0.00    +0.000 A 
ATOM     21  C   UNL     1      28.061  -0.017  53.446  0.00  0.00    +0.000 A 
ATOM     22 BR   UNL     1      29.454  -1.291  53.585  0.00  0.00    +0.000 Br
ATOM     23  N   UNL     1      26.784  -0.453  53.507  0.00  0.00    +0.000 NA
ATOM     24  C   UNL     1      25.827   0.511  53.392  0.00  0.00    +0.000 A 
ATOM     25  H   UNL     1      25.025   3.568  53.815  0.00  0.00    +0.000 HD
BRANCH  24  26
ATOM     26  C   UNL     1      24.468   0.046  53.504  0.00  0.00    +0.000 C 
ATOM     27  N   UNL     1      23.387  -0.372  53.568  0.00  0.00    +0.000 NA
ENDBRANCH  24  26
ENDBRANCH   1  17
TORSDOF 4
ENDMDL
MODEL 7
REMARK VINA RESULT:    -7.296      3.009      4.484
REMARK INTER + INTRA:          -9.378
REMARK INTER:                  -9.072
REMARK INTRA:                  -0.306
REMARK UNBOUND:                -0.375
REMARK  Name = 
REMARK  6 active torsions:
REMARK  status: ('A' for Active; 'I' for Inactive)
REMARK    1  A    between atoms: C_1  and  N_2
REMARK    2  A    between atoms: N_2  and  C_3
REMARK    3  A    between atoms: N_2  and  C_4
REMARK    4  A    between atoms: C_9  and  S_10
REMARK    5  A    between atoms: S_10  and  N_13
REMARK    6  A    between atoms: C_20  and  C_21
REMARK                            x       y       z     vdW  Elec       q    Type
REMARK                         _______ _______ _______ _____ _____    ______ ____
ROOT
ATOM      1  S   UNL     1      23.493   3.889  50.364  0.00  0.00    +0.000 S 
ATOM      2  O   UNL     1      22.471   4.849  50.028  0.00  0.00    +0.000 OA
ATOM      3  O   UNL     1      23.443   2.554  49.805  0.00  0.00    +0.000 OA
ENDROOT
BRANCH   1   9
ATOM      4  C   UNL     1      26.556   7.957  48.954  0.00  0.00    +0.000 A 
ATOM      5  C   UNL     1      25.566   8.787  49.523  0.00  0.00    +0.000 A 
ATOM      6  C   UNL     1      24.573   8.296  50.358  0.00  0.00    +0.000 A 
ATOM      7  C   UNL     1      24.457   6.930  50.556  0.00  0.00    +0.000 A 
ATOM      8  C   UNL     1      25.301   6.013  49.904  0.00  0.00    +0.000 A 
ATOM      9  C   UNL     1      25.102   4.602  49.983  0.00  0.00    +0.000 A 
ATOM     10  C   UNL     1      26.059   3.714  49.488  0.00  0.00    +0.000 A 
ATOM     11  C   UNL     1      27.209   4.207  48.894  0.00  0.00    +0.000 A 
ATOM     12  C   UNL     1      27.373   5.584  48.733  0.00  0.00    +0.000 A 
ATOM     13  C   UNL     1      26.421   6.535  49.170  0.00  0.00    +0.000 A 
BRANCH   4  15
ATOM     14  C   UNL     1      28.790   8.973  49.117  0.00  0.00    +0.000 C 
ATOM     15  N   UNL     1      27.655   8.555  48.288  0.00  0.00    +0.000 N 
ATOM     16  C   UNL     1      27.420   9.410  47.119  0.00  0.00    +0.000 C 
ENDBRANCH   4  15
ENDBRANCH   1   9
BRANCH   1  17
ATOM     17  N   UNL     1      23.436   3.759  52.049  0.00  0.00    +0.000 N 
ATOM     18  C   UNL     1      22.927   2.525  52.528  0.00  0.00    +0.000 A 
ATOM     19  N   UNL     1      23.909   1.712  52.988  0.00  0.00    +0.000 NA
ATOM     20  C   UNL     1      23.500   0.507  53.464  0.00  0.00    +0.000 A 
ATOM     21  C   UNL     1      22.166   0.115  53.474  0.00  0.00    +0.000 A 
ATOM     22 BR   UNL     1      21.702  -1.595  54.140  0.00  0.00    +0.000 Br
ATOM     23  N   UNL     1      21.180   0.918  53.024  0.00  0.00    +0.000 NA
ATOM     24  C   UNL     1      21.579   2.132  52.550  0.00  0.00    +0.000 A 
ATOM     25  H   UNL     1      23.732   4.482  52.649  0.00  0.00    +0.000 HD
BRANCH  24  26
ATOM     26  C   UNL     1      20.517   3.003  52.113  0.00  0.00    +0.000 C 
ATOM     27  N   UNL     1      19.670   3.735  51.805  0.00  0.00    +0.000 NA
ENDBRANCH  24  26
ENDBRANCH   1  17
TORSDOF 4
ENDMDL
MODEL 8
REMARK VINA RESULT:    -7.261      4.366      7.452
REMARK INTER + INTRA:          -9.335
REMARK INTER:                  -8.839
REMARK INTRA:                  -0.496
REMARK UNBOUND:                -0.375
REMARK  Name = 
REMARK  6 active torsions:
REMARK  status: ('A' for Active; 'I' for Inactive)
REMARK    1  A    between atoms: C_1  and  N_2
REMARK    2  A    between atoms: N_2  and  C_3
REMARK    3  A    between atoms: N_2  and  C_4
REMARK    4  A    between atoms: C_9  and  S_10
REMARK    5  A    between atoms: S_10  and  N_13
REMARK    6  A    between atoms: C_20  and  C_21
REMARK                            x       y       z     vdW  Elec       q    Type
REMARK                         _______ _______ _______ _____ _____    ______ ____
ROOT
ATOM      1  S   UNL     1      20.419   2.097  51.918  0.00  0.00    +0.000 S 
ATOM      2  O   UNL     1      19.091   1.561  52.082  0.00  0.00    +0.000 OA
ATOM      3  O   UNL     1      20.661   3.510  52.132  0.00  0.00    +0.000 OA
ENDROOT
BRANCH   1   9
ATOM      4  C   UNL     1      25.280   0.485  53.216  0.00  0.00    +0.000 A 
ATOM      5  C   UNL     1      25.742   1.673  52.609  0.00  0.00    +0.000 A 
ATOM      6  C   UNL     1      24.896   2.727  52.299  0.00  0.00    +0.000 A 
ATOM      7  C   UNL     1      23.530   2.583  52.470  0.00  0.00    +0.000 A 
ATOM      8  C   UNL     1      22.963   1.377  52.920  0.00  0.00    +0.000 A 
ATOM      9  C   UNL     1      21.552   1.165  52.963  0.00  0.00    +0.000 A 
ATOM     10  C   UNL     1      21.015   0.038  53.589  0.00  0.00    +0.000 A 
ATOM     11  C   UNL     1      21.861  -0.897  54.161  0.00  0.00    +0.000 A 
ATOM     12  C   UNL     1      23.245  -0.744  54.049  0.00  0.00    +0.000 A 
ATOM     13  C   UNL     1      23.853   0.350  53.387  0.00  0.00    +0.000 A 
BRANCH   4  15
ATOM     14  C   UNL     1      27.201   0.020  54.682  0.00  0.00    +0.000 C 
ATOM     15  N   UNL     1      26.227  -0.457  53.694  0.00  0.00    +0.000 N 
ATOM     16  C   UNL     1      26.747  -1.489  52.790  0.00  0.00    +0.000 C 
ENDBRANCH   4  15
ENDBRANCH   1   9
BRANCH   1  17
ATOM     17  N   UNL     1      20.850   1.723  50.327  0.00  0.00    +0.000 N 
ATOM     18  C   UNL     1      21.177   2.847  49.524  0.00  0.00    +0.000 A 
ATOM     19  N   UNL     1      22.514   2.970  49.339  0.00  0.00    +0.000 NA
ATOM     20  C   UNL     1      22.907   4.026  48.581  0.00  0.00    +0.000 A 
ATOM     21  C   UNL     1      22.010   4.935  48.033  0.00  0.00    +0.000 A 
ATOM     22 BR   UNL     1      22.661   6.387  47.007  0.00  0.00    +0.000 Br
ATOM     23  N   UNL     1      20.676   4.819  48.206  0.00  0.00    +0.000 NA
ATOM     24  C   UNL     1      20.271   3.759  48.961  0.00  0.00    +0.000 A 
ATOM     25  H   UNL     1      20.873   0.800  49.984  0.00  0.00    +0.000 HD
BRANCH  24  26
ATOM     26  C   UNL     1      18.844   3.614  49.105  0.00  0.00    +0.000 C 
ATOM     27  N   UNL     1      17.689   3.549  49.207  0.00  0.00    +0.000 NA
ENDBRANCH  24  26
ENDBRANCH   1  17
TORSDOF 4
ENDMDL
MODEL 9
REMARK VINA RESULT:    -7.215      4.189      7.646
REMARK INTER + INTRA:          -9.278
REMARK INTER:                  -8.877
REMARK INTRA:                  -0.401
REMARK UNBOUND:                -0.375
REMARK  Name = 
REMARK  6 active torsions:
REMARK  status: ('A' for Active; 'I' for Inactive)
REMARK    1  A    between atoms: C_1  and  N_2
REMARK    2  A    between atoms: N_2  and  C_3
REMARK    3  A    between atoms: N_2  and  C_4
REMARK    4  A    between atoms: C_9  and  S_10
REMARK    5  A    between atoms: S_10  and  N_13
REMARK    6  A    between atoms: C_20  and  C_21
REMARK                            x       y       z     vdW  Elec       q    Type
REMARK                         _______ _______ _______ _____ _____    ______ ____
ROOT
ATOM      1  S   UNL     1      22.488   3.033  51.089  0.00  0.00    +0.000 S 
ATOM      2  O   UNL     1      21.530   1.957  51.046  0.00  0.00    +0.000 OA
ATOM      3  O   UNL     1      22.423   4.018  52.149  0.00  0.00    +0.000 OA
ENDROOT
BRANCH   1   9
ATOM      4  C   UNL     1      26.353   0.181  53.289  0.00  0.00    +0.000 A 
ATOM      5  C   UNL     1      25.331  -0.518  53.969  0.00  0.00    +0.000 A 
ATOM      6  C   UNL     1      23.997  -0.432  53.598  0.00  0.00    +0.000 A 
ATOM      7  C   UNL     1      23.617   0.458  52.608  0.00  0.00    +0.000 A 
ATOM      8  C   UNL     1      24.544   1.312  51.984  0.00  0.00    +0.000 A 
ATOM      9  C   UNL     1      24.147   2.333  51.068  0.00  0.00    +0.000 A 
ATOM     10  C   UNL     1      25.095   3.035  50.321  0.00  0.00    +0.000 A 
ATOM     11  C   UNL     1      26.440   2.752  50.483  0.00  0.00    +0.000 A 
ATOM     12  C   UNL     1      26.846   1.817  51.438  0.00  0.00    +0.000 A 
ATOM     13  C   UNL     1      25.939   1.105  52.259  0.00  0.00    +0.000 A 
BRANCH   4  15
ATOM     14  C   UNL     1      28.203  -1.437  53.179  0.00  0.00    +0.000 C 
ATOM     15  N   UNL     1      27.706  -0.118  53.586  0.00  0.00    +0.000 N 
ATOM     16  C   UNL     1      28.310   0.394  54.821  0.00  0.00    +0.000 C 
ENDBRANCH   4  15
ENDBRANCH   1   9
BRANCH   1  17
ATOM     17  N   UNL     1      22.312   3.836  49.611  0.00  0.00    +0.000 N 
ATOM     18  C   UNL     1      21.608   5.066  49.688  0.00  0.00    +0.000 A 
ATOM     19  N   UNL     1      22.439   6.134  49.611  0.00  0.00    +0.000 NA
ATOM     20  C   UNL     1      21.839   7.351  49.679  0.00  0.00    +0.000 A 
ATOM     21  C   UNL     1      20.466   7.507  49.830  0.00  0.00    +0.000 A 
ATOM     22 BR   UNL     1      19.729   9.247  49.936  0.00  0.00    +0.000 Br
ATOM     23  N   UNL     1      19.629   6.450  49.902  0.00  0.00    +0.000 NA
ATOM     24  C   UNL     1      20.220   5.224  49.828  0.00  0.00    +0.000 A 
ATOM     25  H   UNL     1      22.668   3.479  48.765  0.00  0.00    +0.000 HD
BRANCH  24  26
ATOM     26  C   UNL     1      19.318   4.100  49.860  0.00  0.00    +0.000 C 
ATOM     27  N   UNL     1      18.551   3.229  49.872  0.00  0.00    +0.000 NA
ENDBRANCH  24  26
ENDBRANCH   1  17
TORSDOF 4
ENDMDL
