MODEL 1
REMARK VINA RESULT:    -9.401      0.000      0.000
REMARK INTER + INTRA:         -11.524
REMARK INTER:                 -11.050
REMARK INTRA:                  -0.474
REMARK UNBOUND:                -0.474
REMARK  Name = 
REMARK  4 active torsions:
REMARK  status: ('A' for Active; 'I' for Inactive)
REMARK    1  A    between atoms: C_4  and  C_5
REMARK    2  A    between atoms: C_14  and  C_15
REMARK    3  A    between atoms: C_21  and  O_22
REMARK    4  A    between atoms: C_24  and  O_25
REMARK                            x       y       z     vdW  Elec       q    Type
REMARK                         _______ _______ _______ _____ _____    ______ ____
ROOT
ATOM      1  O   UNL     1      20.546   1.740  52.413  0.00  0.00    +0.000 OA
ATOM      2  C   UNL     1      21.764   1.653  52.480  0.00  0.00    +0.000 A 
ATOM      3  C   UNL     1      22.577   2.532  51.627  0.00  0.00    +0.000 A 
ATOM      4  C   UNL     1      23.908   2.441  51.689  0.00  0.00    +0.000 A 
ATOM      5  O   UNL     1      24.599   1.578  52.506  0.00  0.00    +0.000 OA
ATOM      6  C   UNL     1      23.908   0.688  53.301  0.00  0.00    +0.000 A 
ATOM      7  C   UNL     1      24.680  -0.219  54.075  0.00  0.00    +0.000 A 
ATOM      8  C   UNL     1      23.956  -1.084  54.927  0.00  0.00    +0.000 A 
ATOM      9  C   UNL     1      22.560  -1.063  55.004  0.00  0.00    +0.000 A 
ATOM     10  C   UNL     1      21.834  -0.177  54.213  0.00  0.00    +0.000 A 
ATOM     11  C   UNL     1      22.498   0.704  53.354  0.00  0.00    +0.000 A 
ENDROOT
BRANCH   4  12
ATOM     12  C   UNL     1      24.763   3.295  50.859  0.00  0.00    +0.000 A 
ATOM     13  C   UNL     1      25.842   2.709  50.175  0.00  0.00    +0.000 A 
ATOM     14  C   UNL     1      26.680   3.485  49.373  0.00  0.00    +0.000 A 
ATOM     15  C   UNL     1      26.450   4.855  49.241  0.00  0.00    +0.000 A 
ATOM     16  C   UNL     1      25.386   5.449  49.918  0.00  0.00    +0.000 A 
ATOM     17  C   UNL     1      24.544   4.675  50.724  0.00  0.00    +0.000 A 
ATOM     18 CL   UNL     1      23.244   5.475  51.536  0.00  0.00    +0.000 Cl
ENDBRANCH   4  12
BRANCH   7  19
ATOM     19  C   UNL     1      26.168  -0.263  53.997  0.00  0.00    +0.000 A 
ATOM     20  C   UNL     1      26.873  -0.999  53.055  0.00  0.00    +0.000 A 
ATOM     21  N   UNL     1      28.224  -1.064  52.957  0.00  0.00    +0.000 NA
ATOM     22  C   UNL     1      28.904  -0.351  53.861  0.00  0.00    +0.000 A 
ATOM     23  N   UNL     1      28.365   0.408  54.820  0.00  0.00    +0.000 NA
ATOM     24  C   UNL     1      27.011   0.434  54.854  0.00  0.00    +0.000 A 
ENDBRANCH   7  19
BRANCH   8  25
ATOM     25  O   UNL     1      24.626  -1.997  55.702  0.00  0.00    +0.000 OA
ATOM     26  H   UNL     1      24.177  -2.748  56.036  0.00  0.00    +0.000 HD
ENDBRANCH   8  25
BRANCH  10  27
ATOM     27  O   UNL     1      20.473  -0.189  54.297  0.00  0.00    +0.000 OA
ATOM     28  H   UNL     1      20.036  -0.893  54.734  0.00  0.00    +0.000 HD
ENDBRANCH  10  27
TORSDOF 4
ENDMDL
MODEL 2
REMARK VINA RESULT:    -9.366      2.888      4.742
REMARK INTER + INTRA:         -11.483
REMARK INTER:                 -10.723
REMARK INTRA:                  -0.760
REMARK UNBOUND:                -0.474
REMARK  Name = 
REMARK  4 active torsions:
REMARK  status: ('A' for Active; 'I' for Inactive)
REMARK    1  A    between atoms: C_4  and  C_5
REMARK    2  A    between atoms: C_14  and  C_15
REMARK    3  A    between atoms: C_21  and  O_22
REMARK    4  A    between atoms: C_24  and  O_25
REMARK                            x       y       z     vdW  Elec       q    Type
REMARK                         _______ _______ _______ _____ _____    ______ ____
ROOT
ATOM      1  O   UNL     1      26.787  -0.058  54.759  0.00  0.00    +0.000 OA
ATOM      2  C   UNL     1      25.869   0.353  54.063  0.00  0.00    +0.000 A 
ATOM      3  C   UNL     1      26.158   1.392  53.064  0.00  0.00    +0.000 A 
ATOM      4  C   UNL     1      25.162   1.850  52.303  0.00  0.00    +0.000 A 
ATOM      5  O   UNL     1      23.857   1.421  52.373  0.00  0.00    +0.000 OA
ATOM      6  C   UNL     1      23.496   0.483  53.318  0.00  0.00    +0.000 A 
ATOM      7  C   UNL     1      22.123   0.127  53.381  0.00  0.00    +0.000 A 
ATOM      8  C   UNL     1      21.782  -0.878  54.315  0.00  0.00    +0.000 A 
ATOM      9  C   UNL     1      22.732  -1.486  55.142  0.00  0.00    +0.000 A 
ATOM     10  C   UNL     1      24.066  -1.094  55.070  0.00  0.00    +0.000 A 
ATOM     11  C   UNL     1      24.461  -0.107  54.161  0.00  0.00    +0.000 A 
ENDROOT
BRANCH   4  12
ATOM     12  C   UNL     1      25.398   2.886  51.291  0.00  0.00    +0.000 A 
ATOM     13  C   UNL     1      26.452   2.709  50.379  0.00  0.00    +0.000 A 
ATOM     14  C   UNL     1      26.711   3.670  49.400  0.00  0.00    +0.000 A 
ATOM     15  C   UNL     1      25.921   4.816  49.318  0.00  0.00    +0.000 A 
ATOM     16  C   UNL     1      24.875   5.005  50.221  0.00  0.00    +0.000 A 
ATOM     17  C   UNL     1      24.612   4.045  51.204  0.00  0.00    +0.000 A 
ATOM     18 CL   UNL     1      23.302   4.343  52.292  0.00  0.00    +0.000 Cl
ENDBRANCH   4  12
BRANCH   7  19
ATOM     19  C   UNL     1      21.095   0.773  52.515  0.00  0.00    +0.000 A 
ATOM     20  C   UNL     1      20.430   1.945  52.845  0.00  0.00    +0.000 A 
ATOM     21  N   UNL     1      19.489   2.558  52.084  0.00  0.00    +0.000 NA
ATOM     22  C   UNL     1      19.197   1.952  50.927  0.00  0.00    +0.000 A 
ATOM     23  N   UNL     1      19.757   0.826  50.475  0.00  0.00    +0.000 NA
ATOM     24  C   UNL     1      20.695   0.274  51.281  0.00  0.00    +0.000 A 
ENDBRANCH   7  19
BRANCH   8  25
ATOM     25  O   UNL     1      20.474  -1.273  54.444  0.00  0.00    +0.000 OA
ATOM     26  H   UNL     1      19.949  -1.409  53.681  0.00  0.00    +0.000 HD
ENDBRANCH   8  25
BRANCH  10  27
ATOM     27  O   UNL     1      24.969  -1.693  55.898  0.00  0.00    +0.000 OA
ATOM     28  H   UNL     1      25.879  -1.482  55.830  0.00  0.00    +0.000 HD
ENDBRANCH  10  27
TORSDOF 4
ENDMDL
MODEL 3
REMARK VINA RESULT:    -9.143      1.615      1.919
REMARK INTER + INTRA:         -11.221
REMARK INTER:                 -10.616
REMARK INTRA:                  -0.605
REMARK UNBOUND:                -0.474
REMARK  Name = 
REMARK  4 active torsions:
REMARK  status: ('A' for Active; 'I' for Inactive)
REMARK    1  A    between atoms: C_4  and  C_5
REMARK    2  A    between atoms: C_14  and  C_15
REMARK    3  A    between atoms: C_21  and  O_22
REMARK    4  A    between atoms: C_24  and  O_25
REMARK                            x       y       z     vdW  Elec       q    Type
REMARK                         _______ _______ _______ _____ _____    ______ ____
ROOT
ATOM      1  O   UNL     1      19.606  -0.337  52.669  0.00  0.00    +0.000 OA
ATOM      2  C   UNL     1      20.757   0.068  52.579  0.00  0.00    +0.000 A 
ATOM      3  C   UNL     1      21.080   1.028  51.514  0.00  0.00    +0.000 A 
ATOM      4  C   UNL     1      22.335   1.472  51.405  0.00  0.00    +0.000 A 
ATOM      5  O   UNL     1      23.374   1.103  52.226  0.00  0.00    +0.000 OA
ATOM      6  C   UNL     1      23.162   0.169  53.218  0.00  0.00    +0.000 A 
ATOM      7  C   UNL     1      24.289  -0.216  53.992  0.00  0.00    +0.000 A 
ATOM      8  C   UNL     1      24.041  -1.130  55.042  0.00  0.00    +0.000 A 
ATOM      9  C   UNL     1      22.765  -1.638  55.307  0.00  0.00    +0.000 A 
ATOM     10  C   UNL     1      21.688  -1.256  54.512  0.00  0.00    +0.000 A 
ATOM     11  C   UNL     1      21.874  -0.353  53.462  0.00  0.00    +0.000 A 
ENDROOT
BRANCH   4  12
ATOM     12  C   UNL     1      22.708   2.431  50.359  0.00  0.00    +0.000 A 
ATOM     13  C   UNL     1      22.426   2.112  49.020  0.00  0.00    +0.000 A 
ATOM     14  C   UNL     1      22.764   2.996  47.994  0.00  0.00    +0.000 A 
ATOM     15  C   UNL     1      23.384   4.209  48.292  0.00  0.00    +0.000 A 
ATOM     16  C   UNL     1      23.674   4.536  49.616  0.00  0.00    +0.000 A 
ATOM     17  C   UNL     1      23.338   3.652  50.648  0.00  0.00    +0.000 A 
ATOM     18 CL   UNL     1      23.726   4.117  52.266  0.00  0.00    +0.000 Cl
ENDBRANCH   4  12
BRANCH   7  19
ATOM     19  C   UNL     1      25.658   0.307  53.717  0.00  0.00    +0.000 A 
ATOM     20  C   UNL     1      26.673  -0.444  53.142  0.00  0.00    +0.000 A 
ATOM     21  N   UNL     1      27.928  -0.003  52.881  0.00  0.00    +0.000 NA
ATOM     22  C   UNL     1      28.176   1.267  53.221  0.00  0.00    +0.000 A 
ATOM     23  N   UNL     1      27.300   2.111  53.775  0.00  0.00    +0.000 NA
ATOM     24  C   UNL     1      26.063   1.606  53.999  0.00  0.00    +0.000 A 
ENDBRANCH   7  19
BRANCH   8  25
ATOM     25  O   UNL     1      25.078  -1.560  55.831  0.00  0.00    +0.000 OA
ATOM     26  H   UNL     1      25.635  -2.251  55.536  0.00  0.00    +0.000 HD
ENDBRANCH   8  25
BRANCH  10  27
ATOM     27  O   UNL     1      20.458  -1.779  54.784  0.00  0.00    +0.000 OA
ATOM     28  H   UNL     1      19.899  -1.363  55.410  0.00  0.00    +0.000 HD
ENDBRANCH  10  27
TORSDOF 4
ENDMDL
MODEL 4
REMARK VINA RESULT:    -9.140      2.690      5.349
REMARK INTER + INTRA:         -11.217
REMARK INTER:                 -10.392
REMARK INTRA:                  -0.825
REMARK UNBOUND:                -0.474
REMARK  Name = 
REMARK  4 active torsions:
REMARK  status: ('A' for Active; 'I' for Inactive)
REMARK    1  A    between atoms: C_4  and  C_5
REMARK    2  A    between atoms: C_14  and  C_15
REMARK    3  A    between atoms: C_21  and  O_22
REMARK    4  A    between atoms: C_24  and  O_25
REMARK                            x       y       z     vdW  Elec       q    Type
REMARK                         _______ _______ _______ _____ _____    ______ ____
ROOT
ATOM      1  O   UNL     1      22.476  -1.881  55.390  0.00  0.00    +0.000 OA
ATOM      2  C   UNL     1      23.076  -1.094  54.672  0.00  0.00    +0.000 A 
ATOM      3  C   UNL     1      24.547  -1.127  54.672  0.00  0.00    +0.000 A 
ATOM      4  C   UNL     1      25.211  -0.268  53.895  0.00  0.00    +0.000 A 
ATOM      5  O   UNL     1      24.624   0.665  53.073  0.00  0.00    +0.000 OA
ATOM      6  C   UNL     1      23.251   0.791  53.053  0.00  0.00    +0.000 A 
ATOM      7  C   UNL     1      22.709   1.814  52.230  0.00  0.00    +0.000 A 
ATOM      8  C   UNL     1      21.298   1.890  52.178  0.00  0.00    +0.000 A 
ATOM      9  C   UNL     1      20.475   1.020  52.898  0.00  0.00    +0.000 A 
ATOM     10  C   UNL     1      21.041   0.044  53.714  0.00  0.00    +0.000 A 
ATOM     11  C   UNL     1      22.431  -0.080  53.802  0.00  0.00    +0.000 A 
ENDROOT
BRANCH   4  12
ATOM     12  C   UNL     1      26.678  -0.261  53.860  0.00  0.00    +0.000 A 
ATOM     13  C   UNL     1      27.366   0.685  54.636  0.00  0.00    +0.000 A 
ATOM     14  C   UNL     1      28.762   0.726  54.632  0.00  0.00    +0.000 A 
ATOM     15  C   UNL     1      29.486  -0.179  53.856  0.00  0.00    +0.000 A 
ATOM     16  C   UNL     1      28.813  -1.120  53.077  0.00  0.00    +0.000 A 
ATOM     17  C   UNL     1      27.415  -1.164  53.077  0.00  0.00    +0.000 A 
ATOM     18 CL   UNL     1      26.645  -2.355  52.089  0.00  0.00    +0.000 Cl
ENDBRANCH   4  12
BRANCH   7  19
ATOM     19  C   UNL     1      23.573   2.757  51.464  0.00  0.00    +0.000 A 
ATOM     20  C   UNL     1      24.141   2.462  50.233  0.00  0.00    +0.000 A 
ATOM     21  N   UNL     1      24.933   3.294  49.511  0.00  0.00    +0.000 NA
ATOM     22  C   UNL     1      25.170   4.489  50.063  0.00  0.00    +0.000 A 
ATOM     23  N   UNL     1      24.689   4.915  51.235  0.00  0.00    +0.000 NA
ATOM     24  C   UNL     1      23.899   4.037  51.898  0.00  0.00    +0.000 A 
ENDBRANCH   7  19
BRANCH   8  25
ATOM     25  O   UNL     1      20.696   2.856  51.412  0.00  0.00    +0.000 OA
ATOM     26  H   UNL     1      19.966   2.635  50.870  0.00  0.00    +0.000 HD
ENDBRANCH   8  25
BRANCH  10  27
ATOM     27  O   UNL     1      20.213  -0.782  54.416  0.00  0.00    +0.000 OA
ATOM     28  H   UNL     1      19.959  -0.558  55.290  0.00  0.00    +0.000 HD
ENDBRANCH  10  27
TORSDOF 4
ENDMDL
MODEL 5
REMARK VINA RESULT:    -8.972      3.348      5.448
REMARK INTER + INTRA:         -11.020
REMARK INTER:                 -10.186
REMARK INTRA:                  -0.834
REMARK UNBOUND:                -0.474
REMARK  Name = 
REMARK  4 active torsions:
REMARK  status: ('A' for Active; 'I' for Inactive)
REMARK    1  A    between atoms: C_4  and  C_5
REMARK    2  A    between atoms: C_14  and  C_15
REMARK    3  A    between atoms: C_21  and  O_22
REMARK    4  A    between atoms: C_24  and  O_25
REMARK                            x       y       z     vdW  Elec       q    Type
REMARK                         _______ _______ _______ _____ _____    ______ ____
ROOT
ATOM      1  O   UNL     1      21.341  -1.677  55.116  0.00  0.00    +0.000 OA
ATOM      2  C   UNL     1      21.762  -1.000  54.188  0.00  0.00    +0.000 A 
ATOM      3  C   UNL     1      23.195  -0.674  54.152  0.00  0.00    +0.000 A 
ATOM      4  C   UNL     1      23.663   0.069  53.146  0.00  0.00    +0.000 A 
ATOM      5  O   UNL     1      22.900   0.564  52.114  0.00  0.00    +0.000 OA
ATOM      6  C   UNL     1      21.539   0.342  52.102  0.00  0.00    +0.000 A 
ATOM      7  C   UNL     1      20.799   0.931  51.043  0.00  0.00    +0.000 A 
ATOM      8  C   UNL     1      19.415   0.645  51.015  0.00  0.00    +0.000 A 
ATOM      9  C   UNL     1      18.798  -0.163  51.975  0.00  0.00    +0.000 A 
ATOM     10  C   UNL     1      19.551  -0.704  53.013  0.00  0.00    +0.000 A 
ATOM     11  C   UNL     1      20.925  -0.457  53.089  0.00  0.00    +0.000 A 
ENDROOT
BRANCH   4  12
ATOM     12  C   UNL     1      25.084   0.421  53.064  0.00  0.00    +0.000 A 
ATOM     13  C   UNL     1      26.028  -0.611  52.932  0.00  0.00    +0.000 A 
ATOM     14  C   UNL     1      27.391  -0.319  52.850  0.00  0.00    +0.000 A 
ATOM     15  C   UNL     1      27.827   1.005  52.896  0.00  0.00    +0.000 A 
ATOM     16  C   UNL     1      26.900   2.038  53.031  0.00  0.00    +0.000 A 
ATOM     17  C   UNL     1      25.533   1.750  53.115  0.00  0.00    +0.000 A 
ATOM     18 CL   UNL     1      24.439   3.077  53.282  0.00  0.00    +0.000 Cl
ENDBRANCH   4  12
BRANCH   7  19
ATOM     19  C   UNL     1      21.439   1.804  50.017  0.00  0.00    +0.000 A 
ATOM     20  C   UNL     1      21.881   1.352  48.782  0.00  0.00    +0.000 A 
ATOM     21  N   UNL     1      22.468   2.116  47.827  0.00  0.00    +0.000 NA
ATOM     22  C   UNL     1      22.624   3.408  48.137  0.00  0.00    +0.000 A 
ATOM     23  N   UNL     1      22.245   3.987  49.281  0.00  0.00    +0.000 NA
ATOM     24  C   UNL     1      21.657   3.167  50.184  0.00  0.00    +0.000 A 
ENDBRANCH   7  19
BRANCH   8  25
ATOM     25  O   UNL     1      18.627   1.183  50.028  0.00  0.00    +0.000 OA
ATOM     26  H   UNL     1      17.708   1.288  50.170  0.00  0.00    +0.000 HD
ENDBRANCH   8  25
BRANCH  10  27
ATOM     27  O   UNL     1      18.920  -1.476  53.944  0.00  0.00    +0.000 OA
ATOM     28  H   UNL     1      19.343  -2.239  54.285  0.00  0.00    +0.000 HD
ENDBRANCH  10  27
TORSDOF 4
ENDMDL
MODEL 6
REMARK VINA RESULT:    -8.460      3.413      6.667
REMARK INTER + INTRA:         -10.418
REMARK INTER:                  -9.843
REMARK INTRA:                  -0.575
REMARK UNBOUND:                -0.474
REMARK  Name = 
REMARK  4 active torsions:
REMARK  status: ('A' for Active; 'I' for Inactive)
REMARK    1  A    between atoms: C_4  and  C_5
REMARK    2  A    between atoms: C_14  and  C_15
REMARK    3  A    between atoms: C_21  and  O_22
REMARK    4  A    between atoms: C_24  and  O_25
REMARK                            x       y       z     vdW  Elec       q    Type
REMARK                         _______ _______ _______ _____ _____    ______ ____
ROOT
ATOM      1  O   UNL     1      25.677  -1.082  53.941  0.00  0.00    +0.000 OA
ATOM      2  C   UNL     1      24.958  -0.319  53.311  0.00  0.00    +0.000 A 
ATOM      3  C   UNL     1      23.514  -0.592  53.267  0.00  0.00    +0.000 A 
ATOM      4  C   UNL     1      22.722   0.233  52.578  0.00  0.00    +0.000 A 
ATOM      5  O   UNL     1      23.152   1.345  51.892  0.00  0.00    +0.000 OA
ATOM      6  C   UNL     1      24.498   1.642  51.846  0.00  0.00    +0.000 A 
ATOM      7  C   UNL     1      24.883   2.767  51.070  0.00  0.00    +0.000 A 
ATOM      8  C   UNL     1      26.260   3.091  51.082  0.00  0.00    +0.000 A 
ATOM      9  C   UNL     1      27.197   2.346  51.803  0.00  0.00    +0.000 A 
ATOM     10  C   UNL     1      26.787   1.234  52.533  0.00  0.00    +0.000 A 
ATOM     11  C   UNL     1      25.437   0.869  52.561  0.00  0.00    +0.000 A 
ENDROOT
BRANCH   4  12
ATOM     12  C   UNL     1      21.275   0.004  52.503  0.00  0.00    +0.000 A 
ATOM     13  C   UNL     1      20.614  -0.502  53.635  0.00  0.00    +0.000 A 
ATOM     14  C   UNL     1      19.237  -0.733  53.607  0.00  0.00    +0.000 A 
ATOM     15  C   UNL     1      18.505  -0.461  52.451  0.00  0.00    +0.000 A 
ATOM     16  C   UNL     1      19.151   0.038  51.320  0.00  0.00    +0.000 A 
ATOM     17  C   UNL     1      20.531   0.270  51.343  0.00  0.00    +0.000 A 
ATOM     18 CL   UNL     1      21.269   0.887  49.907  0.00  0.00    +0.000 Cl
ENDBRANCH   4  12
BRANCH   7  19
ATOM     19  C   UNL     1      23.898   3.566  50.286  0.00  0.00    +0.000 A 
ATOM     20  C   UNL     1      23.181   4.636  50.803  0.00  0.00    +0.000 A 
ATOM     21  N   UNL     1      22.277   5.381  50.120  0.00  0.00    +0.000 NA
ATOM     22  C   UNL     1      22.080   5.027  48.846  0.00  0.00    +0.000 A 
ATOM     23  N   UNL     1      22.700   4.027  48.211  0.00  0.00    +0.000 NA
ATOM     24  C   UNL     1      23.596   3.331  48.950  0.00  0.00    +0.000 A 
ENDBRANCH   7  19
BRANCH   8  25
ATOM     25  O   UNL     1      26.715   4.159  50.352  0.00  0.00    +0.000 OA
ATOM     26  H   UNL     1      27.187   4.015  49.556  0.00  0.00    +0.000 HD
ENDBRANCH   8  25
BRANCH  10  27
ATOM     27  O   UNL     1      27.725   0.517  53.216  0.00  0.00    +0.000 OA
ATOM     28  H   UNL     1      27.706  -0.419  53.196  0.00  0.00    +0.000 HD
ENDBRANCH  10  27
TORSDOF 4
ENDMDL
MODEL 7
REMARK VINA RESULT:    -8.375      2.952      5.648
REMARK INTER + INTRA:         -10.319
REMARK INTER:                  -9.705
REMARK INTRA:                  -0.614
REMARK UNBOUND:                -0.474
REMARK  Name = 
REMARK  4 active torsions:
REMARK  status: ('A' for Active; 'I' for Inactive)
REMARK    1  A    between atoms: C_4  and  C_5
REMARK    2  A    between atoms: C_14  and  C_15
REMARK    3  A    between atoms: C_21  and  O_22
REMARK    4  A    between atoms: C_24  and  O_25
REMARK                            x       y       z     vdW  Elec       q    Type
REMARK                         _______ _______ _______ _____ _____    ______ ____
ROOT
ATOM      1  O   UNL     1      25.948   4.181  49.111  0.00  0.00    +0.000 OA
ATOM      2  C   UNL     1      25.590   3.417  49.997  0.00  0.00    +0.000 A 
ATOM      3  C   UNL     1      26.611   2.852  50.891  0.00  0.00    +0.000 A 
ATOM      4  C   UNL     1      26.230   2.014  51.857  0.00  0.00    +0.000 A 
ATOM      5  O   UNL     1      24.932   1.628  52.097  0.00  0.00    +0.000 OA
ATOM      6  C   UNL     1      23.922   2.078  51.273  0.00  0.00    +0.000 A 
ATOM      7  C   UNL     1      22.613   1.595  51.535  0.00  0.00    +0.000 A 
ATOM      8  C   UNL     1      21.582   2.112  50.717  0.00  0.00    +0.000 A 
ATOM      9  C   UNL     1      21.828   3.038  49.699  0.00  0.00    +0.000 A 
ATOM     10  C   UNL     1      23.128   3.471  49.454  0.00  0.00    +0.000 A 
ATOM     11  C   UNL     1      24.186   2.996  50.235  0.00  0.00    +0.000 A 
ENDROOT
BRANCH   4  12
ATOM     12  C   UNL     1      27.211   1.422  52.774  0.00  0.00    +0.000 A 
ATOM     13  C   UNL     1      28.067   2.277  53.489  0.00  0.00    +0.000 A 
ATOM     14  C   UNL     1      29.013   1.756  54.373  0.00  0.00    +0.000 A 
ATOM     15  C   UNL     1      29.115   0.377  54.556  0.00  0.00    +0.000 A 
ATOM     16  C   UNL     1      28.274  -0.482  53.849  0.00  0.00    +0.000 A 
ATOM     17  C   UNL     1      27.324   0.036  52.961  0.00  0.00    +0.000 A 
ATOM     18 CL   UNL     1      26.315  -1.084  52.117  0.00  0.00    +0.000 Cl
ENDBRANCH   4  12
BRANCH   7  19
ATOM     19  C   UNL     1      22.334   0.599  52.609  0.00  0.00    +0.000 A 
ATOM     20  C   UNL     1      22.730  -0.730  52.555  0.00  0.00    +0.000 A 
ATOM     21  N   UNL     1      22.492  -1.662  53.511  0.00  0.00    +0.000 NA
ATOM     22  C   UNL     1      21.812  -1.234  54.580  0.00  0.00    +0.000 A 
ATOM     23  N   UNL     1      21.372   0.014  54.774  0.00  0.00    +0.000 NA
ATOM     24  C   UNL     1      21.653   0.894  53.784  0.00  0.00    +0.000 A 
ENDBRANCH   7  19
BRANCH   8  25
ATOM     25  O   UNL     1      20.289   1.690  50.900  0.00  0.00    +0.000 OA
ATOM     26  H   UNL     1      20.096   1.041  51.547  0.00  0.00    +0.000 HD
ENDBRANCH   8  25
BRANCH  10  27
ATOM     27  O   UNL     1      23.341   4.364  48.445  0.00  0.00    +0.000 OA
ATOM     28  H   UNL     1      24.026   4.215  47.824  0.00  0.00    +0.000 HD
ENDBRANCH  10  27
TORSDOF 4
ENDMDL
MODEL 8
REMARK VINA RESULT:    -8.276      2.857      5.469
REMARK INTER + INTRA:         -10.201
REMARK INTER:                  -9.723
REMARK INTRA:                  -0.479
REMARK UNBOUND:                -0.474
REMARK  Name = 
REMARK  4 active torsions:
REMARK  status: ('A' for Active; 'I' for Inactive)
REMARK    1  A    between atoms: C_4  and  C_5
REMARK    2  A    between atoms: C_14  and  C_15
REMARK    3  A    between atoms: C_21  and  O_22
REMARK    4  A    between atoms: C_24  and  O_25
REMARK                            x       y       z     vdW  Elec       q    Type
REMARK                         _______ _______ _______ _____ _____    ______ ____
ROOT
ATOM      1  O   UNL     1      22.791  -2.215  55.214  0.00  0.00    +0.000 OA
ATOM      2  C   UNL     1      22.795  -1.255  54.457  0.00  0.00    +0.000 A 
ATOM      3  C   UNL     1      21.612  -1.023  53.614  0.00  0.00    +0.000 A 
ATOM      4  C   UNL     1      21.608   0.020  52.781  0.00  0.00    +0.000 A 
ATOM      5  O   UNL     1      22.639   0.920  52.643  0.00  0.00    +0.000 OA
ATOM      6  C   UNL     1      23.801   0.744  53.363  0.00  0.00    +0.000 A 
ATOM      7  C   UNL     1      24.851   1.671  53.130  0.00  0.00    +0.000 A 
ATOM      8  C   UNL     1      26.013   1.510  53.920  0.00  0.00    +0.000 A 
ATOM      9  C   UNL     1      26.135   0.493  54.872  0.00  0.00    +0.000 A 
ATOM     10  C   UNL     1      25.095  -0.414  55.056  0.00  0.00    +0.000 A 
ATOM     11  C   UNL     1      23.921  -0.300  54.305  0.00  0.00    +0.000 A 
ENDROOT
BRANCH   4  12
ATOM     12  C   UNL     1      20.453   0.294  51.919  0.00  0.00    +0.000 A 
ATOM     13  C   UNL     1      19.169  -0.022  52.393  0.00  0.00    +0.000 A 
ATOM     14  C   UNL     1      18.042   0.224  51.605  0.00  0.00    +0.000 A 
ATOM     15  C   UNL     1      18.184   0.789  50.338  0.00  0.00    +0.000 A 
ATOM     16  C   UNL     1      19.454   1.102  49.855  0.00  0.00    +0.000 A 
ATOM     17  C   UNL     1      20.586   0.857  50.640  0.00  0.00    +0.000 A 
ATOM     18 CL   UNL     1      22.130   1.268  49.980  0.00  0.00    +0.000 Cl
ENDBRANCH   4  12
BRANCH   7  19
ATOM     19  C   UNL     1      24.742   2.755  52.112  0.00  0.00    +0.000 A 
ATOM     20  C   UNL     1      24.022   3.926  52.301  0.00  0.00    +0.000 A 
ATOM     21  N   UNL     1      23.899   4.930  51.397  0.00  0.00    +0.000 NA
ATOM     22  C   UNL     1      24.533   4.741  50.234  0.00  0.00    +0.000 A 
ATOM     23  N   UNL     1      25.266   3.671  49.911  0.00  0.00    +0.000 NA
ATOM     24  C   UNL     1      25.353   2.712  50.865  0.00  0.00    +0.000 A 
ENDBRANCH   7  19
BRANCH   8  25
ATOM     25  O   UNL     1      27.076   2.360  53.751  0.00  0.00    +0.000 OA
ATOM     26  H   UNL     1      27.665   2.235  53.033  0.00  0.00    +0.000 HD
ENDBRANCH   8  25
BRANCH  10  27
ATOM     27  O   UNL     1      25.247  -1.405  55.981  0.00  0.00    +0.000 OA
ATOM     28  H   UNL     1      26.029  -1.920  55.991  0.00  0.00    +0.000 HD
ENDBRANCH  10  27
TORSDOF 4
ENDMDL
MODEL 9
REMARK VINA RESULT:    -8.127      2.962      5.637
REMARK INTER + INTRA:         -10.027
REMARK INTER:                 -10.002
REMARK INTRA:                  -0.024
REMARK UNBOUND:                -0.474
REMARK  Name = 
REMARK  4 active torsions:
REMARK  status: ('A' for Active; 'I' for Inactive)
REMARK    1  A    between atoms: C_4  and  C_5
REMARK    2  A    between atoms: C_14  and  C_15
REMARK    3  A    between atoms: C_21  and  O_22
REMARK    4  A    between atoms: C_24  and  O_25
REMARK                            x       y       z     vdW  Elec       q    Type
REMARK                         _______ _______ _______ _____ _____    ______ ____
ROOT
ATOM      1  O   UNL     1      22.285   0.043  53.839  0.00  0.00    +0.000 OA
ATOM      2  C   UNL     1      23.158   0.645  53.229  0.00  0.00    +0.000 A 
ATOM      3  C   UNL     1      24.564   0.352  53.547  0.00  0.00    +0.000 A 
ATOM      4  C   UNL     1      25.524   1.008  52.890  0.00  0.00    +0.000 A 
ATOM      5  O   UNL     1      25.305   1.953  51.915  0.00  0.00    +0.000 OA
ATOM      6  C   UNL     1      24.015   2.317  51.594  0.00  0.00    +0.000 A 
ATOM      7  C   UNL     1      23.857   3.343  50.624  0.00  0.00    +0.000 A 
ATOM      8  C   UNL     1      22.527   3.662  50.265  0.00  0.00    +0.000 A 
ATOM      9  C   UNL     1      21.423   3.019  50.833  0.00  0.00    +0.000 A 
ATOM     10  C   UNL     1      21.615   2.035  51.799  0.00  0.00    +0.000 A 
ATOM     11  C   UNL     1      22.908   1.676  52.190  0.00  0.00    +0.000 A 
ENDROOT
BRANCH   4  12
ATOM     12  C   UNL     1      26.941   0.752  53.171  0.00  0.00    +0.000 A 
ATOM     13  C   UNL     1      27.741   1.815  53.622  0.00  0.00    +0.000 A 
ATOM     14  C   UNL     1      29.094   1.615  53.902  0.00  0.00    +0.000 A 
ATOM     15  C   UNL     1      29.663   0.353  53.738  0.00  0.00    +0.000 A 
ATOM     16  C   UNL     1      28.880  -0.710  53.287  0.00  0.00    +0.000 A 
ATOM     17  C   UNL     1      27.524  -0.514  53.004  0.00  0.00    +0.000 A 
ATOM     18 CL   UNL     1      26.612  -1.872  52.447  0.00  0.00    +0.000 Cl
ENDBRANCH   4  12
BRANCH   7  19
ATOM     19  C   UNL     1      25.022   4.047  50.017  0.00  0.00    +0.000 A 
ATOM     20  C   UNL     1      26.106   3.398  49.442  0.00  0.00    +0.000 A 
ATOM     21  N   UNL     1      27.183   4.005  48.884  0.00  0.00    +0.000 NA
ATOM     22  C   UNL     1      27.169   5.343  48.910  0.00  0.00    +0.000 A 
ATOM     23  N   UNL     1      26.195   6.102  49.421  0.00  0.00    +0.000 NA
ATOM     24  C   UNL     1      25.147   5.429  49.953  0.00  0.00    +0.000 A 
ENDBRANCH   7  19
BRANCH   8  25
ATOM     25  O   UNL     1      22.288   4.647  49.341  0.00  0.00    +0.000 OA
ATOM     26  H   UNL     1      21.410   4.848  49.087  0.00  0.00    +0.000 HD
ENDBRANCH   8  25
BRANCH  10  27
ATOM     27  O   UNL     1      20.520   1.434  52.347  0.00  0.00    +0.000 OA
ATOM     28  H   UNL     1      20.511   0.507  52.481  0.00  0.00    +0.000 HD
ENDBRANCH  10  27
TORSDOF 4
ENDMDL
