MODEL 1
REMARK VINA RESULT:    -8.061      0.000      0.000
REMARK INTER + INTRA:          -9.350
REMARK INTER:                  -9.239
REMARK INTRA:                  -0.110
REMARK UNBOUND:                -0.110
REMARK  Name = 
REMARK  7 active torsions:
REMARK  status: ('A' for Active; 'I' for Inactive)
REMARK    1  A    between atoms: C_1  and  C_2
REMARK    2  A    between atoms: C_10  and  C_11
REMARK    3  A    between atoms: C_14  and  N_15
REMARK    4  A    between atoms: C_20  and  C_22
REMARK    5  A    between atoms: C_22  and  C_23
REMARK    6  A    between atoms: C_22  and  C_24
REMARK    7  A    between atoms: C_22  and  C_25
REMARK                            x       y       z     vdW  Elec       q    Type
REMARK                         _______ _______ _______ _____ _____    ______ ____
ROOT
ATOM      1  C   UNL     1      21.571   6.029  51.396  0.00  0.00    +0.000 C 
ATOM      2  C   UNL     1      22.630   4.923  51.301  0.00  0.00    +0.000 C 
ATOM      3  C   UNL     1      23.059   4.467  52.713  0.00  0.00    +0.000 C 
ATOM      4  C   UNL     1      23.769   3.136  52.674  0.00  0.00    +0.000 A 
ATOM      5  C   UNL     1      25.137   3.032  52.957  0.00  0.00    +0.000 A 
ATOM      6  C   UNL     1      25.735   1.796  52.802  0.00  0.00    +0.000 A 
ATOM      7  C   UNL     1      25.024   0.687  52.401  0.00  0.00    +0.000 A 
ATOM      8  C   UNL     1      23.673   0.739  52.142  0.00  0.00    +0.000 A 
ATOM      9  C   UNL     1      23.044   1.985  52.280  0.00  0.00    +0.000 A 
ATOM     10  C   UNL     1      21.605   2.117  51.886  0.00  0.00    +0.000 C 
ATOM     11  N   UNL     1      21.190   2.980  50.996  0.00  0.00    +0.000 NA
ATOM     12  N   UNL     1      22.144   3.803  50.460  0.00  0.00    +0.000 N 
ATOM     13  C   UNL     1      22.538   3.697  49.119  0.00  0.00    +0.000 C 
ATOM     14  O   UNL     1      23.360   4.489  48.640  0.00  0.00    +0.000 OA
ATOM     15  O   UNL     1      25.808  -0.415  52.274  0.00  0.00    +0.000 OA
ATOM     16  C   UNL     1      27.110   0.151  52.534  0.00  0.00    +0.000 C 
ATOM     17  O   UNL     1      27.055   1.523  52.975  0.00  0.00    +0.000 OA
ENDROOT
BRANCH  10  18
ATOM     18  C   UNL     1      20.619   1.155  52.459  0.00  0.00    +0.000 A 
ATOM     19  C   UNL     1      20.811   0.603  53.726  0.00  0.00    +0.000 A 
ATOM     20  C   UNL     1      19.932  -0.370  54.198  0.00  0.00    +0.000 A 
ATOM     21  C   UNL     1      18.878  -0.836  53.402  0.00  0.00    +0.000 A 
ATOM     22  C   UNL     1      18.629  -0.202  52.182  0.00  0.00    +0.000 A 
ATOM     23  C   UNL     1      19.505   0.778  51.701  0.00  0.00    +0.000 A 
BRANCH  21  24
ATOM     24  N   UNL     1      17.959  -1.750  53.919  0.00  0.00    +0.000 N 
ATOM     25  H   UNL     1      18.267  -2.626  54.246  0.00  0.00    +0.000 HD
ATOM     26  H   UNL     1      17.003  -1.519  53.956  0.00  0.00    +0.000 HD
ENDBRANCH  21  24
ENDBRANCH  10  18
BRANCH  13  27
ATOM     27  C   UNL     1      21.921   2.584  48.218  0.00  0.00    +0.000 C 
ATOM     28  C   UNL     1      20.480   2.964  47.851  0.00  0.00    +0.000 C 
ATOM     29  C   UNL     1      22.735   2.489  46.905  0.00  0.00    +0.000 C 
ATOM     30  C   UNL     1      21.986   1.176  48.828  0.00  0.00    +0.000 C 
ENDBRANCH  13  27
TORSDOF 3
ENDMDL
MODEL 2
REMARK VINA RESULT:    -7.438      2.598      5.642
REMARK INTER + INTRA:          -8.635
REMARK INTER:                  -8.524
REMARK INTRA:                  -0.111
REMARK UNBOUND:                -0.110
REMARK  Name = 
REMARK  7 active torsions:
REMARK  status: ('A' for Active; 'I' for Inactive)
REMARK    1  A    between atoms: C_1  and  C_2
REMARK    2  A    between atoms: C_10  and  C_11
REMARK    3  A    between atoms: C_14  and  N_15
REMARK    4  A    between atoms: C_20  and  C_22
REMARK    5  A    between atoms: C_22  and  C_23
REMARK    6  A    between atoms: C_22  and  C_24
REMARK    7  A    between atoms: C_22  and  C_25
REMARK                            x       y       z     vdW  Elec       q    Type
REMARK                         _______ _______ _______ _____ _____    ______ ____
ROOT
ATOM      1  C   UNL     1      22.660   3.071  47.118  0.00  0.00    +0.000 C 
ATOM      2  C   UNL     1      21.906   2.754  48.416  0.00  0.00    +0.000 C 
ATOM      3  C   UNL     1      21.949   1.237  48.704  0.00  0.00    +0.000 C 
ATOM      4  C   UNL     1      21.590   0.934  50.139  0.00  0.00    +0.000 A 
ATOM      5  C   UNL     1      20.396   0.283  50.470  0.00  0.00    +0.000 A 
ATOM      6  C   UNL     1      20.093   0.132  51.810  0.00  0.00    +0.000 A 
ATOM      7  C   UNL     1      20.934   0.586  52.802  0.00  0.00    +0.000 A 
ATOM      8  C   UNL     1      22.130   1.204  52.521  0.00  0.00    +0.000 A 
ATOM      9  C   UNL     1      22.456   1.380  51.168  0.00  0.00    +0.000 A 
ATOM     10  C   UNL     1      23.685   2.160  50.815  0.00  0.00    +0.000 C 
ATOM     11  N   UNL     1      23.656   3.219  50.048  0.00  0.00    +0.000 NA
ATOM     12  N   UNL     1      22.433   3.565  49.539  0.00  0.00    +0.000 N 
ATOM     13  C   UNL     1      21.768   4.730  49.949  0.00  0.00    +0.000 C 
ATOM     14  O   UNL     1      20.690   5.053  49.433  0.00  0.00    +0.000 OA
ATOM     15  O   UNL     1      20.430   0.373  54.046  0.00  0.00    +0.000 OA
ATOM     16  C   UNL     1      19.131  -0.165  53.721  0.00  0.00    +0.000 C 
ATOM     17  O   UNL     1      18.958  -0.420  52.312  0.00  0.00    +0.000 OA
ENDROOT
BRANCH  10  18
ATOM     18  C   UNL     1      24.980   1.772  51.445  0.00  0.00    +0.000 A 
ATOM     19  C   UNL     1      25.113   0.556  52.117  0.00  0.00    +0.000 A 
ATOM     20  C   UNL     1      26.300   0.261  52.785  0.00  0.00    +0.000 A 
ATOM     21  C   UNL     1      27.352   1.184  52.828  0.00  0.00    +0.000 A 
ATOM     22  C   UNL     1      27.251   2.350  52.063  0.00  0.00    +0.000 A 
ATOM     23  C   UNL     1      26.065   2.654  51.387  0.00  0.00    +0.000 A 
BRANCH  21  24
ATOM     24  N   UNL     1      28.563   0.842  53.430  0.00  0.00    +0.000 N 
ATOM     25  H   UNL     1      28.585   0.150  54.131  0.00  0.00    +0.000 HD
ATOM     26  H   UNL     1      29.394   1.291  53.155  0.00  0.00    +0.000 HD
ENDBRANCH  21  24
ENDBRANCH  10  18
BRANCH  13  27
ATOM     27  C   UNL     1      22.402   5.635  51.049  0.00  0.00    +0.000 C 
ATOM     28  C   UNL     1      23.839   5.995  50.648  0.00  0.00    +0.000 C 
ATOM     29  C   UNL     1      21.594   6.950  51.147  0.00  0.00    +0.000 C 
ATOM     30  C   UNL     1      22.353   5.032  52.462  0.00  0.00    +0.000 C 
ENDBRANCH  13  27
TORSDOF 3
ENDMDL
MODEL 3
REMARK VINA RESULT:    -7.165      2.829      5.699
REMARK INTER + INTRA:          -8.323
REMARK INTER:                  -8.204
REMARK INTRA:                  -0.119
REMARK UNBOUND:                -0.110
REMARK  Name = 
REMARK  7 active torsions:
REMARK  status: ('A' for Active; 'I' for Inactive)
REMARK    1  A    between atoms: C_1  and  C_2
REMARK    2  A    between atoms: C_10  and  C_11
REMARK    3  A    between atoms: C_14  and  N_15
REMARK    4  A    between atoms: C_20  and  C_22
REMARK    5  A    between atoms: C_22  and  C_23
REMARK    6  A    between atoms: C_22  and  C_24
REMARK    7  A    between atoms: C_22  and  C_25
REMARK                            x       y       z     vdW  Elec       q    Type
REMARK                         _______ _______ _______ _____ _____    ______ ____
ROOT
ATOM      1  C   UNL     1      22.713   2.297  47.300  0.00  0.00    +0.000 C 
ATOM      2  C   UNL     1      21.571   2.944  48.094  0.00  0.00    +0.000 C 
ATOM      3  C   UNL     1      20.370   1.977  48.192  0.00  0.00    +0.000 C 
ATOM      4  C   UNL     1      19.412   2.391  49.282  0.00  0.00    +0.000 A 
ATOM      5  C   UNL     1      18.134   2.880  48.983  0.00  0.00    +0.000 A 
ATOM      6  C   UNL     1      17.355   3.332  50.030  0.00  0.00    +0.000 A 
ATOM      7  C   UNL     1      17.795   3.295  51.335  0.00  0.00    +0.000 A 
ATOM      8  C   UNL     1      19.031   2.796  51.676  0.00  0.00    +0.000 A 
ATOM      9  C   UNL     1      19.847   2.341  50.630  0.00  0.00    +0.000 A 
ATOM     10  C   UNL     1      21.247   1.908  50.939  0.00  0.00    +0.000 C 
ATOM     11  N   UNL     1      22.296   2.439  50.367  0.00  0.00    +0.000 NA
ATOM     12  N   UNL     1      22.050   3.399  49.422  0.00  0.00    +0.000 N 
ATOM     13  C   UNL     1      22.380   4.745  49.636  0.00  0.00    +0.000 C 
ATOM     14  O   UNL     1      22.201   5.586  48.746  0.00  0.00    +0.000 OA
ATOM     15  O   UNL     1      16.892   3.823  52.202  0.00  0.00    +0.000 OA
ATOM     16  C   UNL     1      15.883   4.294  51.285  0.00  0.00    +0.000 C 
ATOM     17  O   UNL     1      16.120   3.889  49.922  0.00  0.00    +0.000 OA
ENDROOT
BRANCH  10  18
ATOM     18  C   UNL     1      21.459   0.900  52.019  0.00  0.00    +0.000 A 
ATOM     19  C   UNL     1      20.393   0.146  52.512  0.00  0.00    +0.000 A 
ATOM     20  C   UNL     1      20.595  -0.715  53.590  0.00  0.00    +0.000 A 
ATOM     21  C   UNL     1      21.845  -0.806  54.215  0.00  0.00    +0.000 A 
ATOM     22  C   UNL     1      22.928  -0.130  53.648  0.00  0.00    +0.000 A 
ATOM     23  C   UNL     1      22.737   0.734  52.564  0.00  0.00    +0.000 A 
BRANCH  21  24
ATOM     24  N   UNL     1      22.052  -1.731  55.239  0.00  0.00    +0.000 N 
ATOM     25  H   UNL     1      22.168  -2.685  55.023  0.00  0.00    +0.000 HD
ATOM     26  H   UNL     1      22.081  -1.431  56.175  0.00  0.00    +0.000 HD
ENDBRANCH  21  24
ENDBRANCH  10  18
BRANCH  13  27
ATOM     27  C   UNL     1      22.996   5.181  51.001  0.00  0.00    +0.000 C 
ATOM     28  C   UNL     1      24.313   4.427  51.230  0.00  0.00    +0.000 C 
ATOM     29  C   UNL     1      23.320   6.693  50.947  0.00  0.00    +0.000 C 
ATOM     30  C   UNL     1      22.047   5.020  52.197  0.00  0.00    +0.000 C 
ENDBRANCH  13  27
TORSDOF 3
ENDMDL
MODEL 4
REMARK VINA RESULT:    -7.128      3.203      4.551
REMARK INTER + INTRA:          -8.280
REMARK INTER:                  -7.754
REMARK INTRA:                  -0.526
REMARK UNBOUND:                -0.110
REMARK  Name = 
REMARK  7 active torsions:
REMARK  status: ('A' for Active; 'I' for Inactive)
REMARK    1  A    between atoms: C_1  and  C_2
REMARK    2  A    between atoms: C_10  and  C_11
REMARK    3  A    between atoms: C_14  and  N_15
REMARK    4  A    between atoms: C_20  and  C_22
REMARK    5  A    between atoms: C_22  and  C_23
REMARK    6  A    between atoms: C_22  and  C_24
REMARK    7  A    between atoms: C_22  and  C_25
REMARK                            x       y       z     vdW  Elec       q    Type
REMARK                         _______ _______ _______ _____ _____    ______ ____
ROOT
ATOM      1  C   UNL     1      21.136   6.658  51.393  0.00  0.00    +0.000 C 
ATOM      2  C   UNL     1      22.347   6.411  50.485  0.00  0.00    +0.000 C 
ATOM      3  C   UNL     1      23.655   6.769  51.225  0.00  0.00    +0.000 C 
ATOM      4  C   UNL     1      24.861   6.169  50.543  0.00  0.00    +0.000 A 
ATOM      5  C   UNL     1      25.802   6.972  49.887  0.00  0.00    +0.000 A 
ATOM      6  C   UNL     1      26.822   6.341  49.202  0.00  0.00    +0.000 A 
ATOM      7  C   UNL     1      26.938   4.969  49.168  0.00  0.00    +0.000 A 
ATOM      8  C   UNL     1      26.052   4.145  49.823  0.00  0.00    +0.000 A 
ATOM      9  C   UNL     1      25.000   4.759  50.516  0.00  0.00    +0.000 A 
ATOM     10  C   UNL     1      23.942   3.900  51.137  0.00  0.00    +0.000 C 
ATOM     11  N   UNL     1      22.672   4.022  50.851  0.00  0.00    +0.000 NA
ATOM     12  N   UNL     1      22.342   5.020  49.972  0.00  0.00    +0.000 N 
ATOM     13  C   UNL     1      21.866   4.738  48.684  0.00  0.00    +0.000 C 
ATOM     14  O   UNL     1      21.520   5.655  47.927  0.00  0.00    +0.000 OA
ATOM     15  O   UNL     1      27.985   4.555  48.408  0.00  0.00    +0.000 OA
ATOM     16  C   UNL     1      28.448   5.816  47.881  0.00  0.00    +0.000 C 
ATOM     17  O   UNL     1      27.785   6.955  48.465  0.00  0.00    +0.000 OA
ENDROOT
BRANCH  10  18
ATOM     18  C   UNL     1      24.364   2.792  52.042  0.00  0.00    +0.000 A 
ATOM     19  C   UNL     1      25.263   3.023  53.083  0.00  0.00    +0.000 A 
ATOM     20  C   UNL     1      25.722   1.953  53.851  0.00  0.00    +0.000 A 
ATOM     21  C   UNL     1      25.327   0.640  53.567  0.00  0.00    +0.000 A 
ATOM     22  C   UNL     1      24.346   0.432  52.595  0.00  0.00    +0.000 A 
ATOM     23  C   UNL     1      23.877   1.499  51.820  0.00  0.00    +0.000 A 
BRANCH  21  24
ATOM     24  N   UNL     1      25.730  -0.408  54.395  0.00  0.00    +0.000 N 
ATOM     25  H   UNL     1      26.310  -1.121  54.039  0.00  0.00    +0.000 HD
ATOM     26  H   UNL     1      25.434  -0.437  55.333  0.00  0.00    +0.000 HD
ENDBRANCH  21  24
ENDBRANCH  10  18
BRANCH  13  27
ATOM     27  C   UNL     1      21.754   3.257  48.208  0.00  0.00    +0.000 C 
ATOM     28  C   UNL     1      20.993   2.439  49.260  0.00  0.00    +0.000 C 
ATOM     29  C   UNL     1      20.940   3.211  46.893  0.00  0.00    +0.000 C 
ATOM     30  C   UNL     1      23.102   2.606  47.865  0.00  0.00    +0.000 C 
ENDBRANCH  13  27
TORSDOF 3
ENDMDL
MODEL 5
REMARK VINA RESULT:    -6.819      3.524      6.840
REMARK INTER + INTRA:          -7.926
REMARK INTER:                  -7.568
REMARK INTRA:                  -0.358
REMARK UNBOUND:                -0.110
REMARK  Name = 
REMARK  7 active torsions:
REMARK  status: ('A' for Active; 'I' for Inactive)
REMARK    1  A    between atoms: C_1  and  C_2
REMARK    2  A    between atoms: C_10  and  C_11
REMARK    3  A    between atoms: C_14  and  N_15
REMARK    4  A    between atoms: C_20  and  C_22
REMARK    5  A    between atoms: C_22  and  C_23
REMARK    6  A    between atoms: C_22  and  C_24
REMARK    7  A    between atoms: C_22  and  C_25
REMARK                            x       y       z     vdW  Elec       q    Type
REMARK                         _______ _______ _______ _____ _____    ______ ____
ROOT
ATOM      1  C   UNL     1      21.642   4.071  46.893  0.00  0.00    +0.000 C 
ATOM      2  C   UNL     1      22.031   3.822  48.356  0.00  0.00    +0.000 C 
ATOM      3  C   UNL     1      23.065   2.678  48.449  0.00  0.00    +0.000 C 
ATOM      4  C   UNL     1      23.770   2.673  49.783  0.00  0.00    +0.000 A 
ATOM      5  C   UNL     1      23.555   1.653  50.718  0.00  0.00    +0.000 A 
ATOM      6  C   UNL     1      24.159   1.773  51.954  0.00  0.00    +0.000 A 
ATOM      7  C   UNL     1      24.964   2.845  52.272  0.00  0.00    +0.000 A 
ATOM      8  C   UNL     1      25.225   3.854  51.373  0.00  0.00    +0.000 A 
ATOM      9  C   UNL     1      24.614   3.762  50.114  0.00  0.00    +0.000 A 
ATOM     10  C   UNL     1      24.766   4.899  49.151  0.00  0.00    +0.000 C 
ATOM     11  N   UNL     1      23.746   5.533  48.636  0.00  0.00    +0.000 NA
ATOM     12  N   UNL     1      22.505   5.074  48.992  0.00  0.00    +0.000 N 
ATOM     13  C   UNL     1      21.646   5.830  49.803  0.00  0.00    +0.000 C 
ATOM     14  O   UNL     1      20.508   5.421  50.065  0.00  0.00    +0.000 OA
ATOM     15  O   UNL     1      25.424   2.789  53.548  0.00  0.00    +0.000 OA
ATOM     16  C   UNL     1      24.732   1.619  54.032  0.00  0.00    +0.000 C 
ATOM     17  O   UNL     1      24.017   0.913  52.997  0.00  0.00    +0.000 OA
ENDROOT
BRANCH  10  18
ATOM     18  C   UNL     1      26.140   5.393  48.844  0.00  0.00    +0.000 A 
ATOM     19  C   UNL     1      26.370   6.742  48.571  0.00  0.00    +0.000 A 
ATOM     20  C   UNL     1      27.642   7.163  48.187  0.00  0.00    +0.000 A 
ATOM     21  C   UNL     1      28.688   6.246  48.029  0.00  0.00    +0.000 A 
ATOM     22  C   UNL     1      28.477   4.918  48.408  0.00  0.00    +0.000 A 
ATOM     23  C   UNL     1      27.204   4.485  48.798  0.00  0.00    +0.000 A 
BRANCH  21  24
ATOM     24  N   UNL     1      29.974   6.693  47.724  0.00  0.00    +0.000 N 
ATOM     25  H   UNL     1      30.498   7.182  48.400  0.00  0.00    +0.000 HD
ATOM     26  H   UNL     1      30.358   6.519  46.835  0.00  0.00    +0.000 HD
ENDBRANCH  21  24
ENDBRANCH  10  18
BRANCH  13  27
ATOM     27  C   UNL     1      22.123   7.205  50.363  0.00  0.00    +0.000 C 
ATOM     28  C   UNL     1      22.508   8.125  49.197  0.00  0.00    +0.000 C 
ATOM     29  C   UNL     1      20.953   7.871  51.126  0.00  0.00    +0.000 C 
ATOM     30  C   UNL     1      23.261   7.103  51.390  0.00  0.00    +0.000 C 
ENDBRANCH  13  27
TORSDOF 3
ENDMDL
MODEL 6
REMARK VINA RESULT:    -6.050      3.364      7.382
REMARK INTER + INTRA:          -7.044
REMARK INTER:                  -6.616
REMARK INTRA:                  -0.428
REMARK UNBOUND:                -0.110
REMARK  Name = 
REMARK  7 active torsions:
REMARK  status: ('A' for Active; 'I' for Inactive)
REMARK    1  A    between atoms: C_1  and  C_2
REMARK    2  A    between atoms: C_10  and  C_11
REMARK    3  A    between atoms: C_14  and  N_15
REMARK    4  A    between atoms: C_20  and  C_22
REMARK    5  A    between atoms: C_22  and  C_23
REMARK    6  A    between atoms: C_22  and  C_24
REMARK    7  A    between atoms: C_22  and  C_25
REMARK                            x       y       z     vdW  Elec       q    Type
REMARK                         _______ _______ _______ _____ _____    ______ ____
ROOT
ATOM      1  C   UNL     1      23.819   5.428  54.003  0.00  0.00    +0.000 C 
ATOM      2  C   UNL     1      23.262   4.617  52.825  0.00  0.00    +0.000 C 
ATOM      3  C   UNL     1      22.626   5.559  51.779  0.00  0.00    +0.000 C 
ATOM      4  C   UNL     1      22.442   4.868  50.450  0.00  0.00    +0.000 A 
ATOM      5  C   UNL     1      21.167   4.558  49.960  0.00  0.00    +0.000 A 
ATOM      6  C   UNL     1      21.085   3.837  48.785  0.00  0.00    +0.000 A 
ATOM      7  C   UNL     1      22.209   3.439  48.094  0.00  0.00    +0.000 A 
ATOM      8  C   UNL     1      23.478   3.747  48.524  0.00  0.00    +0.000 A 
ATOM      9  C   UNL     1      23.590   4.470  49.721  0.00  0.00    +0.000 A 
ATOM     10  C   UNL     1      24.951   4.717  50.294  0.00  0.00    +0.000 C 
ATOM     11  N   UNL     1      25.291   4.346  51.500  0.00  0.00    +0.000 NA
ATOM     12  N   UNL     1      24.313   3.745  52.247  0.00  0.00    +0.000 N 
ATOM     13  C   UNL     1      24.377   2.386  52.588  0.00  0.00    +0.000 C 
ATOM     14  O   UNL     1      23.511   1.878  53.312  0.00  0.00    +0.000 OA
ATOM     15  O   UNL     1      21.907   2.708  46.989  0.00  0.00    +0.000 OA
ATOM     16  C   UNL     1      20.474   2.598  47.124  0.00  0.00    +0.000 C 
ATOM     17  O   UNL     1      19.941   3.401  48.196  0.00  0.00    +0.000 OA
ENDROOT
BRANCH  10  18
ATOM     18  C   UNL     1      25.994   5.322  49.415  0.00  0.00    +0.000 A 
ATOM     19  C   UNL     1      27.160   4.622  49.102  0.00  0.00    +0.000 A 
ATOM     20  C   UNL     1      28.165   5.246  48.365  0.00  0.00    +0.000 A 
ATOM     21  C   UNL     1      28.043   6.583  47.966  0.00  0.00    +0.000 A 
ATOM     22  C   UNL     1      26.830   7.240  48.190  0.00  0.00    +0.000 A 
ATOM     23  C   UNL     1      25.814   6.621  48.927  0.00  0.00    +0.000 A 
BRANCH  21  24
ATOM     24  N   UNL     1      29.020   7.167  47.160  0.00  0.00    +0.000 N 
ATOM     25  H   UNL     1      29.392   8.048  47.398  0.00  0.00    +0.000 HD
ATOM     26  H   UNL     1      29.337   6.700  46.354  0.00  0.00    +0.000 HD
ENDBRANCH  21  24
ENDBRANCH  10  18
BRANCH  13  27
ATOM     27  C   UNL     1      25.559   1.514  52.067  0.00  0.00    +0.000 C 
ATOM     28  C   UNL     1      26.857   1.945  52.762  0.00  0.00    +0.000 C 
ATOM     29  C   UNL     1      25.294   0.035  52.435  0.00  0.00    +0.000 C 
ATOM     30  C   UNL     1      25.718   1.521  50.539  0.00  0.00    +0.000 C 
ENDBRANCH  13  27
TORSDOF 3
ENDMDL
MODEL 7
REMARK VINA RESULT:    -6.025      2.802      6.038
REMARK INTER + INTRA:          -7.016
REMARK INTER:                  -7.109
REMARK INTRA:                   0.093
REMARK UNBOUND:                -0.110
REMARK  Name = 
REMARK  7 active torsions:
REMARK  status: ('A' for Active; 'I' for Inactive)
REMARK    1  A    between atoms: C_1  and  C_2
REMARK    2  A    between atoms: C_10  and  C_11
REMARK    3  A    between atoms: C_14  and  N_15
REMARK    4  A    between atoms: C_20  and  C_22
REMARK    5  A    between atoms: C_22  and  C_23
REMARK    6  A    between atoms: C_22  and  C_24
REMARK    7  A    between atoms: C_22  and  C_25
REMARK                            x       y       z     vdW  Elec       q    Type
REMARK                         _______ _______ _______ _____ _____    ______ ____
ROOT
ATOM      1  C   UNL     1      20.196   3.162  46.893  0.00  0.00    +0.000 C 
ATOM      2  C   UNL     1      20.471   2.821  48.364  0.00  0.00    +0.000 C 
ATOM      3  C   UNL     1      21.381   1.577  48.465  0.00  0.00    +0.000 C 
ATOM      4  C   UNL     1      22.001   1.453  49.835  0.00  0.00    +0.000 A 
ATOM      5  C   UNL     1      21.632   0.424  50.711  0.00  0.00    +0.000 A 
ATOM      6  C   UNL     1      22.170   0.438  51.984  0.00  0.00    +0.000 A 
ATOM      7  C   UNL     1      23.055   1.412  52.391  0.00  0.00    +0.000 A 
ATOM      8  C   UNL     1      23.466   2.422  51.553  0.00  0.00    +0.000 A 
ATOM      9  C   UNL     1      22.926   2.439  50.259  0.00  0.00    +0.000 A 
ATOM     10  C   UNL     1      23.245   3.590  49.356  0.00  0.00    +0.000 C 
ATOM     11  N   UNL     1      22.324   4.342  48.812  0.00  0.00    +0.000 NA
ATOM     12  N   UNL     1      21.025   3.996  49.078  0.00  0.00    +0.000 N 
ATOM     13  C   UNL     1      20.197   4.802  49.872  0.00  0.00    +0.000 C 
ATOM     14  O   UNL     1      19.010   4.499  50.051  0.00  0.00    +0.000 OA
ATOM     15  O   UNL     1      23.430   1.262  53.688  0.00  0.00    +0.000 OA
ATOM     16  C   UNL     1      22.599   0.150  54.081  0.00  0.00    +0.000 C 
ATOM     17  O   UNL     1      21.883  -0.442  52.979  0.00  0.00    +0.000 OA
ENDROOT
BRANCH  10  18
ATOM     18  C   UNL     1      24.676   3.956  49.148  0.00  0.00    +0.000 A 
ATOM     19  C   UNL     1      25.692   3.025  49.367  0.00  0.00    +0.000 A 
ATOM     20  C   UNL     1      27.026   3.419  49.266  0.00  0.00    +0.000 A 
ATOM     21  C   UNL     1      27.366   4.749  48.989  0.00  0.00    +0.000 A 
ATOM     22  C   UNL     1      26.345   5.647  48.665  0.00  0.00    +0.000 A 
ATOM     23  C   UNL     1      25.004   5.261  48.761  0.00  0.00    +0.000 A 
BRANCH  21  24
ATOM     24  N   UNL     1      28.701   5.109  48.810  0.00  0.00    +0.000 N 
ATOM     25  H   UNL     1      28.929   5.906  48.278  0.00  0.00    +0.000 HD
ATOM     26  H   UNL     1      29.416   4.568  49.216  0.00  0.00    +0.000 HD
ENDBRANCH  21  24
ENDBRANCH  10  18
BRANCH  13  27
ATOM     27  C   UNL     1      20.771   6.101  50.516  0.00  0.00    +0.000 C 
ATOM     28  C   UNL     1      21.615   5.731  51.743  0.00  0.00    +0.000 C 
ATOM     29  C   UNL     1      21.699   6.801  49.496  0.00  0.00    +0.000 C 
ATOM     30  C   UNL     1      19.705   7.149  50.870  0.00  0.00    +0.000 C 
ENDBRANCH  13  27
TORSDOF 3
ENDMDL
MODEL 8
REMARK VINA RESULT:    -5.896      3.909      7.343
REMARK INTER + INTRA:          -6.868
REMARK INTER:                  -6.297
REMARK INTRA:                  -0.571
REMARK UNBOUND:                -0.110
REMARK  Name = 
REMARK  7 active torsions:
REMARK  status: ('A' for Active; 'I' for Inactive)
REMARK    1  A    between atoms: C_1  and  C_2
REMARK    2  A    between atoms: C_10  and  C_11
REMARK    3  A    between atoms: C_14  and  N_15
REMARK    4  A    between atoms: C_20  and  C_22
REMARK    5  A    between atoms: C_22  and  C_23
REMARK    6  A    between atoms: C_22  and  C_24
REMARK    7  A    between atoms: C_22  and  C_25
REMARK                            x       y       z     vdW  Elec       q    Type
REMARK                         _______ _______ _______ _____ _____    ______ ____
ROOT
ATOM      1  C   UNL     1      23.758   5.452  53.586  0.00  0.00    +0.000 C 
ATOM      2  C   UNL     1      23.289   4.880  52.242  0.00  0.00    +0.000 C 
ATOM      3  C   UNL     1      21.748   4.774  52.212  0.00  0.00    +0.000 C 
ATOM      4  C   UNL     1      21.230   4.613  50.804  0.00  0.00    +0.000 A 
ATOM      5  C   UNL     1      20.651   3.413  50.373  0.00  0.00    +0.000 A 
ATOM      6  C   UNL     1      20.293   3.311  49.042  0.00  0.00    +0.000 A 
ATOM      7  C   UNL     1      20.476   4.350  48.156  0.00  0.00    +0.000 A 
ATOM      8  C   UNL     1      21.014   5.555  48.545  0.00  0.00    +0.000 A 
ATOM      9  C   UNL     1      21.397   5.681  49.888  0.00  0.00    +0.000 A 
ATOM     10  C   UNL     1      22.102   6.927  50.326  0.00  0.00    +0.000 C 
ATOM     11  N   UNL     1      23.279   6.913  50.896  0.00  0.00    +0.000 NA
ATOM     12  N   UNL     1      23.830   5.678  51.116  0.00  0.00    +0.000 N 
ATOM     13  C   UNL     1      24.962   5.241  50.413  0.00  0.00    +0.000 C 
ATOM     14  O   UNL     1      25.477   4.145  50.669  0.00  0.00    +0.000 OA
ATOM     15  O   UNL     1      20.095   4.028  46.893  0.00  0.00    +0.000 OA
ATOM     16  C   UNL     1      19.754   2.636  47.063  0.00  0.00    +0.000 C 
ATOM     17  O   UNL     1      19.774   2.209  48.440  0.00  0.00    +0.000 OA
ENDROOT
BRANCH  10  18
ATOM     18  C   UNL     1      21.482   8.247  50.008  0.00  0.00    +0.000 A 
ATOM     19  C   UNL     1      20.225   8.585  50.511  0.00  0.00    +0.000 A 
ATOM     20  C   UNL     1      19.622   9.779  50.118  0.00  0.00    +0.000 A 
ATOM     21  C   UNL     1      20.239  10.628  49.191  0.00  0.00    +0.000 A 
ATOM     22  C   UNL     1      21.541  10.334  48.777  0.00  0.00    +0.000 A 
ATOM     23  C   UNL     1      22.157   9.140  49.169  0.00  0.00    +0.000 A 
BRANCH  21  24
ATOM     24  N   UNL     1      19.661  11.856  48.870  0.00  0.00    +0.000 N 
ATOM     25  H   UNL     1      19.129  11.949  48.047  0.00  0.00    +0.000 HD
ATOM     26  H   UNL     1      19.786  12.629  49.466  0.00  0.00    +0.000 HD
ENDBRANCH  21  24
ENDBRANCH  10  18
BRANCH  13  27
ATOM     27  C   UNL     1      25.588   6.152  49.313  0.00  0.00    +0.000 C 
ATOM     28  C   UNL     1      26.048   7.473  49.946  0.00  0.00    +0.000 C 
ATOM     29  C   UNL     1      26.835   5.449  48.726  0.00  0.00    +0.000 C 
ATOM     30  C   UNL     1      24.669   6.403  48.109  0.00  0.00    +0.000 C 
ENDBRANCH  13  27
TORSDOF 3
ENDMDL
