MODEL 1
REMARK VINA RESULT:    -8.758      0.000      0.000
REMARK INTER + INTRA:         -13.126
REMARK INTER:                 -11.830
REMARK INTRA:                  -1.295
REMARK UNBOUND:                -1.295
REMARK  Name = 
REMARK  13 active torsions:
REMARK  status: ('A' for Active; 'I' for Inactive)
REMARK    1  A    between atoms: C_1  and  C_2
REMARK    2  A    between atoms: C_2  and  C_3
REMARK    3  A    between atoms: C_3  and  C_4
REMARK    4  A    between atoms: C_10  and  C_11
REMARK    5  A    between atoms: C_11  and  C_13
REMARK    6  A    between atoms: C_13  and  C_14
REMARK    7  A    between atoms: C_13  and  C_15
REMARK    8  A    between atoms: C_15  and  C_16
REMARK    9  A    between atoms: C_15  and  C_17
REMARK   10  A    between atoms: C_15  and  O_18
REMARK   11  A    between atoms: C_19  and  O_20
REMARK   12  A    between atoms: C_25  and  C_26
REMARK   13  A    between atoms: C_25  and  C_27
REMARK                            x       y       z     vdW  Elec       q    Type
REMARK                         _______ _______ _______ _____ _____    ______ ____
ROOT
ATOM      1  C   UNL     1      21.468   1.244  52.678  0.00  0.00    +0.000 A 
ATOM      2  C   UNL     1      21.506   0.422  53.752  0.00  0.00    +0.000 A 
ATOM      3  C   UNL     1      22.264  -0.811  53.651  0.00  0.00    +0.000 A 
ATOM      4  O   UNL     1      21.887  -1.889  54.090  0.00  0.00    +0.000 OA
ATOM      5  O   UNL     1      23.505  -0.582  53.143  0.00  0.00    +0.000 OA
ATOM      6  C   UNL     1      23.800   0.634  52.506  0.00  0.00    +0.000 A 
ATOM      7  C   UNL     1      25.135   1.021  52.474  0.00  0.00    +0.000 A 
ATOM      8  C   UNL     1      25.470   2.025  51.559  0.00  0.00    +0.000 A 
ATOM      9  C   UNL     1      24.503   2.589  50.706  0.00  0.00    +0.000 A 
ATOM     10  C   UNL     1      23.140   2.286  50.906  0.00  0.00    +0.000 A 
ATOM     11  C   UNL     1      22.759   1.383  51.916  0.00  0.00    +0.000 A 
ATOM     12  O   UNL     1      22.164   2.881  50.118  0.00  0.00    +0.000 OA
ATOM     13  C   UNL     1      22.553   3.411  48.822  0.00  0.00    +0.000 C 
ATOM     14  C   UNL     1      22.319   2.344  47.741  0.00  0.00    +0.000 C 
ATOM     15  C   UNL     1      21.633   4.611  48.531  0.00  0.00    +0.000 C 
ATOM     16  C   UNL     1      23.984   3.897  48.748  0.00  0.00    +0.000 C 
ATOM     17  C   UNL     1      24.879   3.525  49.657  0.00  0.00    +0.000 C 
ENDROOT
BRANCH   7  18
ATOM     18  C   UNL     1      26.128   0.591  53.513  0.00  0.00    +0.000 C 
ATOM     19  O   UNL     1      26.085   1.224  54.582  0.00  0.00    +0.000 OA
BRANCH  18  20
ATOM     20  C   UNL     1      27.091  -0.615  53.433  0.00  0.00    +0.000 C 
ATOM     21  C   UNL     1      26.837  -1.491  52.191  0.00  0.00    +0.000 C 
BRANCH  20  22
ATOM     22  C   UNL     1      28.554  -0.344  53.920  0.00  0.00    +0.000 C 
ATOM     23  C   UNL     1      29.438  -1.520  53.473  0.00  0.00    +0.000 C 
ATOM     24  C   UNL     1      29.136   0.964  53.361  0.00  0.00    +0.000 C 
BRANCH  22  25
ATOM     25  O   UNL     1      28.693  -0.330  55.337  0.00  0.00    +0.000 OA
ATOM     26  H   UNL     1      29.186   0.462  55.605  0.00  0.00    +0.000 HD
ENDBRANCH  22  25
ENDBRANCH  20  22
ENDBRANCH  18  20
ENDBRANCH   7  18
BRANCH   8  27
ATOM     27  O   UNL     1      26.758   2.501  51.454  0.00  0.00    +0.000 OA
ATOM     28  H   UNL     1      27.243   2.715  52.227  0.00  0.00    +0.000 HD
ENDBRANCH   8  27
BRANCH   1  29
ATOM     29  C   UNL     1      20.340   2.234  52.731  0.00  0.00    +0.000 C 
BRANCH  29  31
ATOM     30  C   UNL     1      19.309   0.774  50.871  0.00  0.00    +0.000 C 
ATOM     31  C   UNL     1      19.200   2.025  51.739  0.00  0.00    +0.000 C 
ENDBRANCH  29  31
ENDBRANCH   1  29
TORSDOF 7
ENDMDL
MODEL 2
REMARK VINA RESULT:    -8.434      1.819      7.292
REMARK INTER + INTRA:         -12.687
REMARK INTER:                 -10.823
REMARK INTRA:                  -1.864
REMARK UNBOUND:                -1.295
REMARK  Name = 
REMARK  13 active torsions:
REMARK  status: ('A' for Active; 'I' for Inactive)
REMARK    1  A    between atoms: C_1  and  C_2
REMARK    2  A    between atoms: C_2  and  C_3
REMARK    3  A    between atoms: C_3  and  C_4
REMARK    4  A    between atoms: C_10  and  C_11
REMARK    5  A    between atoms: C_11  and  C_13
REMARK    6  A    between atoms: C_13  and  C_14
REMARK    7  A    between atoms: C_13  and  C_15
REMARK    8  A    between atoms: C_15  and  C_16
REMARK    9  A    between atoms: C_15  and  C_17
REMARK   10  A    between atoms: C_15  and  O_18
REMARK   11  A    between atoms: C_19  and  O_20
REMARK   12  A    between atoms: C_25  and  C_26
REMARK   13  A    between atoms: C_25  and  C_27
REMARK                            x       y       z     vdW  Elec       q    Type
REMARK                         _______ _______ _______ _____ _____    ______ ____
ROOT
ATOM      1  C   UNL     1      24.069   2.616  50.384  0.00  0.00    +0.000 A 
ATOM      2  C   UNL     1      23.186   3.137  49.501  0.00  0.00    +0.000 A 
ATOM      3  C   UNL     1      22.334   2.227  48.759  0.00  0.00    +0.000 A 
ATOM      4  O   UNL     1      22.072   2.344  47.570  0.00  0.00    +0.000 OA
ATOM      5  O   UNL     1      21.749   1.319  49.587  0.00  0.00    +0.000 OA
ATOM      6  C   UNL     1      22.227   1.137  50.894  0.00  0.00    +0.000 A 
ATOM      7  C   UNL     1      21.334   0.622  51.826  0.00  0.00    +0.000 A 
ATOM      8  C   UNL     1      21.889   0.119  53.008  0.00  0.00    +0.000 A 
ATOM      9  C   UNL     1      23.280   0.118  53.221  0.00  0.00    +0.000 A 
ATOM     10  C   UNL     1      24.119   0.811  52.324  0.00  0.00    +0.000 A 
ATOM     11  C   UNL     1      23.571   1.449  51.196  0.00  0.00    +0.000 A 
ATOM     12  O   UNL     1      25.487   0.877  52.549  0.00  0.00    +0.000 OA
ATOM     13  C   UNL     1      26.096  -0.134  53.397  0.00  0.00    +0.000 C 
ATOM     14  C   UNL     1      26.621  -1.285  52.524  0.00  0.00    +0.000 C 
ATOM     15  C   UNL     1      27.294   0.530  54.102  0.00  0.00    +0.000 C 
ATOM     16  C   UNL     1      25.180  -0.690  54.465  0.00  0.00    +0.000 C 
ATOM     17  C   UNL     1      23.863  -0.536  54.382  0.00  0.00    +0.000 C 
ENDROOT
BRANCH   7  18
ATOM     18  C   UNL     1      19.849   0.809  51.714  0.00  0.00    +0.000 C 
ATOM     19  O   UNL     1      19.168  -0.208  51.937  0.00  0.00    +0.000 OA
BRANCH  18  20
ATOM     20  C   UNL     1      19.098   2.138  51.476  0.00  0.00    +0.000 C 
ATOM     21  C   UNL     1      19.796   3.338  52.145  0.00  0.00    +0.000 C 
BRANCH  20  22
ATOM     22  C   UNL     1      18.437   2.297  50.066  0.00  0.00    +0.000 C 
ATOM     23  C   UNL     1      16.910   2.222  50.237  0.00  0.00    +0.000 C 
ATOM     24  C   UNL     1      18.802   3.623  49.382  0.00  0.00    +0.000 C 
BRANCH  22  25
ATOM     25  O   UNL     1      18.734   1.230  49.170  0.00  0.00    +0.000 OA
ATOM     26  H   UNL     1      18.262   1.370  48.334  0.00  0.00    +0.000 HD
ENDBRANCH  22  25
ENDBRANCH  20  22
ENDBRANCH  18  20
ENDBRANCH   7  18
BRANCH   8  27
ATOM     27  O   UNL     1      21.097  -0.397  54.011  0.00  0.00    +0.000 OA
ATOM     28  H   UNL     1      20.494   0.158  54.464  0.00  0.00    +0.000 HD
ENDBRANCH   8  27
BRANCH   1  29
ATOM     29  C   UNL     1      25.166   3.572  50.758  0.00  0.00    +0.000 C 
BRANCH  29  31
ATOM     30  C   UNL     1      26.922   4.439  49.078  0.00  0.00    +0.000 C 
ATOM     31  C   UNL     1      26.516   3.361  50.079  0.00  0.00    +0.000 C 
ENDBRANCH  29  31
ENDBRANCH   1  29
TORSDOF 7
ENDMDL
MODEL 3
REMARK VINA RESULT:    -7.644      2.168      6.772
REMARK INTER + INTRA:         -11.621
REMARK INTER:                 -10.767
REMARK INTRA:                  -0.854
REMARK UNBOUND:                -1.295
REMARK  Name = 
REMARK  13 active torsions:
REMARK  status: ('A' for Active; 'I' for Inactive)
REMARK    1  A    between atoms: C_1  and  C_2
REMARK    2  A    between atoms: C_2  and  C_3
REMARK    3  A    between atoms: C_3  and  C_4
REMARK    4  A    between atoms: C_10  and  C_11
REMARK    5  A    between atoms: C_11  and  C_13
REMARK    6  A    between atoms: C_13  and  C_14
REMARK    7  A    between atoms: C_13  and  C_15
REMARK    8  A    between atoms: C_15  and  C_16
REMARK    9  A    between atoms: C_15  and  C_17
REMARK   10  A    between atoms: C_15  and  O_18
REMARK   11  A    between atoms: C_19  and  O_20
REMARK   12  A    between atoms: C_25  and  C_26
REMARK   13  A    between atoms: C_25  and  C_27
REMARK                            x       y       z     vdW  Elec       q    Type
REMARK                         _______ _______ _______ _____ _____    ______ ____
ROOT
ATOM      1  C   UNL     1      25.778   1.809  52.340  0.00  0.00    +0.000 A 
ATOM      2  C   UNL     1      26.492   2.706  51.620  0.00  0.00    +0.000 A 
ATOM      3  C   UNL     1      26.063   3.003  50.266  0.00  0.00    +0.000 A 
ATOM      4  O   UNL     1      26.824   3.133  49.316  0.00  0.00    +0.000 OA
ATOM      5  O   UNL     1      24.729   3.262  50.221  0.00  0.00    +0.000 OA
ATOM      6  C   UNL     1      23.901   2.925  51.304  0.00  0.00    +0.000 A 
ATOM      7  C   UNL     1      22.715   3.639  51.437  0.00  0.00    +0.000 A 
ATOM      8  C   UNL     1      21.747   3.084  52.281  0.00  0.00    +0.000 A 
ATOM      9  C   UNL     1      21.963   1.857  52.936  0.00  0.00    +0.000 A 
ATOM     10  C   UNL     1      23.246   1.270  52.904  0.00  0.00    +0.000 A 
ATOM     11  C   UNL     1      24.283   1.882  52.175  0.00  0.00    +0.000 A 
ATOM     12  O   UNL     1      23.498   0.093  53.596  0.00  0.00    +0.000 OA
ATOM     13  C   UNL     1      22.374  -0.763  53.932  0.00  0.00    +0.000 C 
ATOM     14  C   UNL     1      22.193  -1.825  52.836  0.00  0.00    +0.000 C 
ATOM     15  C   UNL     1      22.729  -1.477  55.249  0.00  0.00    +0.000 C 
ATOM     16  C   UNL     1      21.068  -0.029  54.141  0.00  0.00    +0.000 C 
ATOM     17  C   UNL     1      20.902   1.211  53.694  0.00  0.00    +0.000 C 
ENDROOT
BRANCH   7  18
ATOM     18  C   UNL     1      22.552   5.040  50.925  0.00  0.00    +0.000 C 
ATOM     19  O   UNL     1      21.633   5.692  51.451  0.00  0.00    +0.000 OA
BRANCH  18  20
ATOM     20  C   UNL     1      23.471   5.774  49.923  0.00  0.00    +0.000 C 
ATOM     21  C   UNL     1      22.809   5.960  48.544  0.00  0.00    +0.000 C 
BRANCH  20  22
ATOM     22  C   UNL     1      24.360   6.910  50.530  0.00  0.00    +0.000 C 
ATOM     23  C   UNL     1      25.786   6.757  49.976  0.00  0.00    +0.000 C 
ATOM     24  C   UNL     1      23.839   8.317  50.197  0.00  0.00    +0.000 C 
BRANCH  22  25
ATOM     25  O   UNL     1      24.528   6.815  51.942  0.00  0.00    +0.000 OA
ATOM     26  H   UNL     1      24.626   5.882  52.193  0.00  0.00    +0.000 HD
ENDBRANCH  22  25
ENDBRANCH  20  22
ENDBRANCH  18  20
ENDBRANCH   7  18
BRANCH   8  27
ATOM     27  O   UNL     1      20.543   3.714  52.504  0.00  0.00    +0.000 OA
ATOM     28  H   UNL     1      20.401   4.184  53.303  0.00  0.00    +0.000 HD
ENDBRANCH   8  27
BRANCH   1  29
ATOM     29  C   UNL     1      26.531   1.264  53.519  0.00  0.00    +0.000 C 
BRANCH  29  31
ATOM     30  C   UNL     1      26.596  -1.097  52.480  0.00  0.00    +0.000 C 
ATOM     31  C   UNL     1      27.317  -0.023  53.292  0.00  0.00    +0.000 C 
ENDBRANCH  29  31
ENDBRANCH   1  29
TORSDOF 7
ENDMDL
MODEL 4
REMARK VINA RESULT:    -7.639      1.852      6.337
REMARK INTER + INTRA:         -11.613
REMARK INTER:                  -9.648
REMARK INTRA:                  -1.965
REMARK UNBOUND:                -1.295
REMARK  Name = 
REMARK  13 active torsions:
REMARK  status: ('A' for Active; 'I' for Inactive)
REMARK    1  A    between atoms: C_1  and  C_2
REMARK    2  A    between atoms: C_2  and  C_3
REMARK    3  A    between atoms: C_3  and  C_4
REMARK    4  A    between atoms: C_10  and  C_11
REMARK    5  A    between atoms: C_11  and  C_13
REMARK    6  A    between atoms: C_13  and  C_14
REMARK    7  A    between atoms: C_13  and  C_15
REMARK    8  A    between atoms: C_15  and  C_16
REMARK    9  A    between atoms: C_15  and  C_17
REMARK   10  A    between atoms: C_15  and  O_18
REMARK   11  A    between atoms: C_19  and  O_20
REMARK   12  A    between atoms: C_25  and  C_26
REMARK   13  A    between atoms: C_25  and  C_27
REMARK                            x       y       z     vdW  Elec       q    Type
REMARK                         _______ _______ _______ _____ _____    ______ ____
ROOT
ATOM      1  C   UNL     1      22.122   1.132  52.008  0.00  0.00    +0.000 A 
ATOM      2  C   UNL     1      21.046   1.872  51.656  0.00  0.00    +0.000 A 
ATOM      3  C   UNL     1      20.941   3.226  52.167  0.00  0.00    +0.000 A 
ATOM      4  O   UNL     1      19.904   3.727  52.579  0.00  0.00    +0.000 OA
ATOM      5  O   UNL     1      22.104   3.907  51.990  0.00  0.00    +0.000 OA
ATOM      6  C   UNL     1      23.290   3.223  51.677  0.00  0.00    +0.000 A 
ATOM      7  C   UNL     1      24.281   3.945  51.022  0.00  0.00    +0.000 A 
ATOM      8  C   UNL     1      25.562   3.384  51.023  0.00  0.00    +0.000 A 
ATOM      9  C   UNL     1      25.828   2.167  51.677  0.00  0.00    +0.000 A 
ATOM     10  C   UNL     1      24.755   1.395  52.169  0.00  0.00    +0.000 A 
ATOM     11  C   UNL     1      23.435   1.870  52.055  0.00  0.00    +0.000 A 
ATOM     12  O   UNL     1      24.988   0.160  52.759  0.00  0.00    +0.000 OA
ATOM     13  C   UNL     1      26.312  -0.107  53.295  0.00  0.00    +0.000 C 
ATOM     14  C   UNL     1      26.341   0.252  54.789  0.00  0.00    +0.000 C 
ATOM     15  C   UNL     1      26.558  -1.621  53.152  0.00  0.00    +0.000 C 
ATOM     16  C   UNL     1      27.434   0.614  52.582  0.00  0.00    +0.000 C 
ATOM     17  C   UNL     1      27.186   1.660  51.802  0.00  0.00    +0.000 C 
ENDROOT
BRANCH   7  18
ATOM     18  C   UNL     1      23.977   5.124  50.144  0.00  0.00    +0.000 C 
ATOM     19  O   UNL     1      24.723   6.106  50.300  0.00  0.00    +0.000 OA
BRANCH  18  20
ATOM     20  C   UNL     1      22.933   5.188  49.007  0.00  0.00    +0.000 C 
ATOM     21  C   UNL     1      22.825   3.862  48.230  0.00  0.00    +0.000 C 
BRANCH  20  22
ATOM     22  C   UNL     1      21.648   6.026  49.318  0.00  0.00    +0.000 C 
ATOM     23  C   UNL     1      21.668   7.287  48.437  0.00  0.00    +0.000 C 
ATOM     24  C   UNL     1      20.349   5.248  49.053  0.00  0.00    +0.000 C 
BRANCH  22  25
ATOM     25  O   UNL     1      21.603   6.537  50.647  0.00  0.00    +0.000 OA
ATOM     26  H   UNL     1      20.926   7.229  50.705  0.00  0.00    +0.000 HD
ENDBRANCH  22  25
ENDBRANCH  20  22
ENDBRANCH  18  20
ENDBRANCH   7  18
BRANCH   8  27
ATOM     27  O   UNL     1      26.618   4.002  50.388  0.00  0.00    +0.000 OA
ATOM     28  H   UNL     1      27.440   3.561  50.309  0.00  0.00    +0.000 HD
ENDBRANCH   8  27
BRANCH   1  29
ATOM     29  C   UNL     1      21.923  -0.341  51.797  0.00  0.00    +0.000 C 
BRANCH  29  31
ATOM     30  C   UNL     1      21.738  -0.542  54.363  0.00  0.00    +0.000 C 
ATOM     31  C   UNL     1      22.036  -1.229  53.033  0.00  0.00    +0.000 C 
ENDBRANCH  29  31
ENDBRANCH   1  29
TORSDOF 7
ENDMDL
MODEL 5
REMARK VINA RESULT:    -7.296      2.730      5.663
REMARK INTER + INTRA:         -11.150
REMARK INTER:                  -9.452
REMARK INTRA:                  -1.698
REMARK UNBOUND:                -1.295
REMARK  Name = 
REMARK  13 active torsions:
REMARK  status: ('A' for Active; 'I' for Inactive)
REMARK    1  A    between atoms: C_1  and  C_2
REMARK    2  A    between atoms: C_2  and  C_3
REMARK    3  A    between atoms: C_3  and  C_4
REMARK    4  A    between atoms: C_10  and  C_11
REMARK    5  A    between atoms: C_11  and  C_13
REMARK    6  A    between atoms: C_13  and  C_14
REMARK    7  A    between atoms: C_13  and  C_15
REMARK    8  A    between atoms: C_15  and  C_16
REMARK    9  A    between atoms: C_15  and  C_17
REMARK   10  A    between atoms: C_15  and  O_18
REMARK   11  A    between atoms: C_19  and  O_20
REMARK   12  A    between atoms: C_25  and  C_26
REMARK   13  A    between atoms: C_25  and  C_27
REMARK                            x       y       z     vdW  Elec       q    Type
REMARK                         _______ _______ _______ _____ _____    ______ ____
ROOT
ATOM      1  C   UNL     1      20.610   3.627  51.328  0.00  0.00    +0.000 A 
ATOM      2  C   UNL     1      20.926   4.776  50.687  0.00  0.00    +0.000 A 
ATOM      3  C   UNL     1      21.936   5.638  51.271  0.00  0.00    +0.000 A 
ATOM      4  O   UNL     1      21.855   6.857  51.322  0.00  0.00    +0.000 OA
ATOM      5  O   UNL     1      23.044   4.928  51.617  0.00  0.00    +0.000 OA
ATOM      6  C   UNL     1      22.997   3.527  51.692  0.00  0.00    +0.000 A 
ATOM      7  C   UNL     1      24.200   2.846  51.538  0.00  0.00    +0.000 A 
ATOM      8  C   UNL     1      24.216   1.510  51.952  0.00  0.00    +0.000 A 
ATOM      9  C   UNL     1      23.077   0.905  52.516  0.00  0.00    +0.000 A 
ATOM     10  C   UNL     1      21.842   1.586  52.484  0.00  0.00    +0.000 A 
ATOM     11  C   UNL     1      21.766   2.882  51.942  0.00  0.00    +0.000 A 
ATOM     12  O   UNL     1      20.693   0.981  52.976  0.00  0.00    +0.000 OA
ATOM     13  C   UNL     1      20.840  -0.103  53.932  0.00  0.00    +0.000 C 
ATOM     14  C   UNL     1      20.768   0.460  55.360  0.00  0.00    +0.000 C 
ATOM     15  C   UNL     1      19.647  -1.054  53.721  0.00  0.00    +0.000 C 
ATOM     16  C   UNL     1      22.110  -0.911  53.773  0.00  0.00    +0.000 C 
ATOM     17  C   UNL     1      23.139  -0.435  53.079  0.00  0.00    +0.000 C 
ENDROOT
BRANCH   7  18
ATOM     18  C   UNL     1      25.348   3.402  50.748  0.00  0.00    +0.000 C 
ATOM     19  O   UNL     1      26.473   3.216  51.246  0.00  0.00    +0.000 OA
BRANCH  18  20
ATOM     20  C   UNL     1      25.282   4.058  49.351  0.00  0.00    +0.000 C 
ATOM     21  C   UNL     1      24.100   3.537  48.511  0.00  0.00    +0.000 C 
BRANCH  20  22
ATOM     22  C   UNL     1      25.683   5.570  49.295  0.00  0.00    +0.000 C 
ATOM     23  C   UNL     1      27.108   5.672  48.724  0.00  0.00    +0.000 C 
ATOM     24  C   UNL     1      24.731   6.407  48.426  0.00  0.00    +0.000 C 
BRANCH  22  25
ATOM     25  O   UNL     1      25.781   6.185  50.576  0.00  0.00    +0.000 OA
ATOM     26  H   UNL     1      24.908   6.193  50.999  0.00  0.00    +0.000 HD
ENDBRANCH  22  25
ENDBRANCH  20  22
ENDBRANCH  18  20
ENDBRANCH   7  18
BRANCH   8  27
ATOM     27  O   UNL     1      25.347   0.733  51.828  0.00  0.00    +0.000 OA
ATOM     28  H   UNL     1      25.456  -0.025  52.368  0.00  0.00    +0.000 HD
ENDBRANCH   8  27
BRANCH   1  29
ATOM     29  C   UNL     1      19.293   3.050  50.894  0.00  0.00    +0.000 C 
BRANCH  29  31
ATOM     30  C   UNL     1      20.303   1.996  48.767  0.00  0.00    +0.000 C 
ATOM     31  C   UNL     1      19.350   1.853  49.951  0.00  0.00    +0.000 C 
ENDBRANCH  29  31
ENDBRANCH   1  29
TORSDOF 7
ENDMDL
MODEL 6
REMARK VINA RESULT:    -7.234      2.301      6.356
REMARK INTER + INTRA:         -11.067
REMARK INTER:                  -9.821
REMARK INTRA:                  -1.245
REMARK UNBOUND:                -1.295
REMARK  Name = 
REMARK  13 active torsions:
REMARK  status: ('A' for Active; 'I' for Inactive)
REMARK    1  A    between atoms: C_1  and  C_2
REMARK    2  A    between atoms: C_2  and  C_3
REMARK    3  A    between atoms: C_3  and  C_4
REMARK    4  A    between atoms: C_10  and  C_11
REMARK    5  A    between atoms: C_11  and  C_13
REMARK    6  A    between atoms: C_13  and  C_14
REMARK    7  A    between atoms: C_13  and  C_15
REMARK    8  A    between atoms: C_15  and  C_16
REMARK    9  A    between atoms: C_15  and  C_17
REMARK   10  A    between atoms: C_15  and  O_18
REMARK   11  A    between atoms: C_19  and  O_20
REMARK   12  A    between atoms: C_25  and  C_26
REMARK   13  A    between atoms: C_25  and  C_27
REMARK                            x       y       z     vdW  Elec       q    Type
REMARK                         _______ _______ _______ _____ _____    ______ ____
ROOT
ATOM      1  C   UNL     1      22.010   1.208  51.900  0.00  0.00    +0.000 A 
ATOM      2  C   UNL     1      20.906   1.864  51.476  0.00  0.00    +0.000 A 
ATOM      3  C   UNL     1      20.769   3.270  51.806  0.00  0.00    +0.000 A 
ATOM      4  O   UNL     1      19.724   3.793  52.170  0.00  0.00    +0.000 OA
ATOM      5  O   UNL     1      21.908   3.955  51.518  0.00  0.00    +0.000 OA
ATOM      6  C   UNL     1      23.108   3.268  51.273  0.00  0.00    +0.000 A 
ATOM      7  C   UNL     1      24.066   3.924  50.508  0.00  0.00    +0.000 A 
ATOM      8  C   UNL     1      25.364   3.405  50.557  0.00  0.00    +0.000 A 
ATOM      9  C   UNL     1      25.677   2.292  51.359  0.00  0.00    +0.000 A 
ATOM     10  C   UNL     1      24.636   1.563  51.971  0.00  0.00    +0.000 A 
ATOM     11  C   UNL     1      23.300   1.982  51.822  0.00  0.00    +0.000 A 
ATOM     12  O   UNL     1      24.917   0.424  52.714  0.00  0.00    +0.000 OA
ATOM     13  C   UNL     1      26.256   0.267  53.253  0.00  0.00    +0.000 C 
ATOM     14  C   UNL     1      26.300   0.821  54.686  0.00  0.00    +0.000 C 
ATOM     15  C   UNL     1      26.546  -1.245  53.306  0.00  0.00    +0.000 C 
ATOM     16  C   UNL     1      27.344   0.918  52.428  0.00  0.00    +0.000 C 
ATOM     17  C   UNL     1      27.052   1.845  51.523  0.00  0.00    +0.000 C 
ENDROOT
BRANCH   7  18
ATOM     18  C   UNL     1      23.712   4.968  49.489  0.00  0.00    +0.000 C 
ATOM     19  O   UNL     1      23.228   4.531  48.430  0.00  0.00    +0.000 OA
BRANCH  18  20
ATOM     20  C   UNL     1      23.773   6.501  49.672  0.00  0.00    +0.000 C 
ATOM     21  C   UNL     1      24.146   6.909  51.110  0.00  0.00    +0.000 C 
BRANCH  20  22
ATOM     22  C   UNL     1      24.339   7.303  48.453  0.00  0.00    +0.000 C 
ATOM     23  C   UNL     1      24.148   8.804  48.731  0.00  0.00    +0.000 C 
ATOM     24  C   UNL     1      25.829   7.025  48.196  0.00  0.00    +0.000 C 
BRANCH  22  25
ATOM     25  O   UNL     1      23.624   7.086  47.241  0.00  0.00    +0.000 OA
ATOM     26  H   UNL     1      24.248   7.064  46.498  0.00  0.00    +0.000 HD
ENDBRANCH  22  25
ENDBRANCH  20  22
ENDBRANCH  18  20
ENDBRANCH   7  18
BRANCH   8  27
ATOM     27  O   UNL     1      26.389   3.962  49.824  0.00  0.00    +0.000 OA
ATOM     28  H   UNL     1      26.232   4.257  48.948  0.00  0.00    +0.000 HD
ENDBRANCH   8  27
BRANCH   1  29
ATOM     29  C   UNL     1      21.852  -0.285  51.890  0.00  0.00    +0.000 C 
BRANCH  29  31
ATOM     30  C   UNL     1      20.781  -1.193  54.054  0.00  0.00    +0.000 C 
ATOM     31  C   UNL     1      22.046  -1.002  53.222  0.00  0.00    +0.000 C 
ENDBRANCH  29  31
ENDBRANCH   1  29
TORSDOF 7
ENDMDL
MODEL 7
REMARK VINA RESULT:    -7.028      1.836      6.935
REMARK INTER + INTRA:         -10.789
REMARK INTER:                  -9.611
REMARK INTRA:                  -1.177
REMARK UNBOUND:                -1.295
REMARK  Name = 
REMARK  13 active torsions:
REMARK  status: ('A' for Active; 'I' for Inactive)
REMARK    1  A    between atoms: C_1  and  C_2
REMARK    2  A    between atoms: C_2  and  C_3
REMARK    3  A    between atoms: C_3  and  C_4
REMARK    4  A    between atoms: C_10  and  C_11
REMARK    5  A    between atoms: C_11  and  C_13
REMARK    6  A    between atoms: C_13  and  C_14
REMARK    7  A    between atoms: C_13  and  C_15
REMARK    8  A    between atoms: C_15  and  C_16
REMARK    9  A    between atoms: C_15  and  C_17
REMARK   10  A    between atoms: C_15  and  O_18
REMARK   11  A    between atoms: C_19  and  O_20
REMARK   12  A    between atoms: C_25  and  C_26
REMARK   13  A    between atoms: C_25  and  C_27
REMARK                            x       y       z     vdW  Elec       q    Type
REMARK                         _______ _______ _______ _____ _____    ______ ____
ROOT
ATOM      1  C   UNL     1      24.457   2.607  50.495  0.00  0.00    +0.000 A 
ATOM      2  C   UNL     1      23.536   3.243  49.735  0.00  0.00    +0.000 A 
ATOM      3  C   UNL     1      22.474   2.457  49.135  0.00  0.00    +0.000 A 
ATOM      4  O   UNL     1      22.066   2.611  47.991  0.00  0.00    +0.000 OA
ATOM      5  O   UNL     1      21.897   1.634  50.051  0.00  0.00    +0.000 OA
ATOM      6  C   UNL     1      22.525   1.386  51.281  0.00  0.00    +0.000 A 
ATOM      7  C   UNL     1      21.711   0.993  52.337  0.00  0.00    +0.000 A 
ATOM      8  C   UNL     1      22.355   0.418  53.439  0.00  0.00    +0.000 A 
ATOM      9  C   UNL     1      23.750   0.230  53.455  0.00  0.00    +0.000 A 
ATOM     10  C   UNL     1      24.539   0.807  52.438  0.00  0.00    +0.000 A 
ATOM     11  C   UNL     1      23.927   1.515  51.387  0.00  0.00    +0.000 A 
ATOM     12  O   UNL     1      25.922   0.689  52.469  0.00  0.00    +0.000 OA
ATOM     13  C   UNL     1      26.504  -0.396  53.240  0.00  0.00    +0.000 C 
ATOM     14  C   UNL     1      26.745  -1.605  52.322  0.00  0.00    +0.000 C 
ATOM     15  C   UNL     1      27.866   0.101  53.760  0.00  0.00    +0.000 C 
ATOM     16  C   UNL     1      25.683  -0.827  54.435  0.00  0.00    +0.000 C 
ATOM     17  C   UNL     1      24.399  -0.498  54.534  0.00  0.00    +0.000 C 
ENDROOT
BRANCH   7  18
ATOM     18  C   UNL     1      20.264   1.377  52.430  0.00  0.00    +0.000 C 
ATOM     19  O   UNL     1      20.048   2.561  52.742  0.00  0.00    +0.000 OA
BRANCH  18  20
ATOM     20  C   UNL     1      19.046   0.500  52.062  0.00  0.00    +0.000 C 
ATOM     21  C   UNL     1      18.964   0.209  50.552  0.00  0.00    +0.000 C 
BRANCH  20  22
ATOM     22  C   UNL     1      18.679  -0.614  53.100  0.00  0.00    +0.000 C 
ATOM     23  C   UNL     1      17.178  -0.923  52.967  0.00  0.00    +0.000 C 
ATOM     24  C   UNL     1      19.480  -1.909  52.894  0.00  0.00    +0.000 C 
BRANCH  22  25
ATOM     25  O   UNL     1      18.825  -0.204  54.457  0.00  0.00    +0.000 OA
ATOM     26  H   UNL     1      18.776   0.764  54.509  0.00  0.00    +0.000 HD
ENDBRANCH  22  25
ENDBRANCH  20  22
ENDBRANCH  18  20
ENDBRANCH   7  18
BRANCH   8  27
ATOM     27  O   UNL     1      21.651   0.010  54.550  0.00  0.00    +0.000 OA
ATOM     28  H   UNL     1      21.026  -0.685  54.479  0.00  0.00    +0.000 HD
ENDBRANCH   8  27
BRANCH   1  29
ATOM     29  C   UNL     1      25.712   3.407  50.696  0.00  0.00    +0.000 C 
BRANCH  29  31
ATOM     30  C   UNL     1      26.722   5.024  48.957  0.00  0.00    +0.000 C 
ATOM     31  C   UNL     1      26.607   3.592  49.474  0.00  0.00    +0.000 C 
ENDBRANCH  29  31
ENDBRANCH   1  29
TORSDOF 7
ENDMDL
MODEL 8
REMARK VINA RESULT:    -6.694      2.066      7.660
REMARK INTER + INTRA:         -10.336
REMARK INTER:                  -9.020
REMARK INTRA:                  -1.316
REMARK UNBOUND:                -1.295
REMARK  Name = 
REMARK  13 active torsions:
REMARK  status: ('A' for Active; 'I' for Inactive)
REMARK    1  A    between atoms: C_1  and  C_2
REMARK    2  A    between atoms: C_2  and  C_3
REMARK    3  A    between atoms: C_3  and  C_4
REMARK    4  A    between atoms: C_10  and  C_11
REMARK    5  A    between atoms: C_11  and  C_13
REMARK    6  A    between atoms: C_13  and  C_14
REMARK    7  A    between atoms: C_13  and  C_15
REMARK    8  A    between atoms: C_15  and  C_16
REMARK    9  A    between atoms: C_15  and  C_17
REMARK   10  A    between atoms: C_15  and  O_18
REMARK   11  A    between atoms: C_19  and  O_20
REMARK   12  A    between atoms: C_25  and  C_26
REMARK   13  A    between atoms: C_25  and  C_27
REMARK                            x       y       z     vdW  Elec       q    Type
REMARK                         _______ _______ _______ _____ _____    ______ ____
ROOT
ATOM      1  C   UNL     1      25.075   2.326  52.257  0.00  0.00    +0.000 A 
ATOM      2  C   UNL     1      25.531   3.305  51.443  0.00  0.00    +0.000 A 
ATOM      3  C   UNL     1      25.021   3.369  50.086  0.00  0.00    +0.000 A 
ATOM      4  O   UNL     1      25.709   3.600  49.101  0.00  0.00    +0.000 OA
ATOM      5  O   UNL     1      23.663   3.286  50.069  0.00  0.00    +0.000 OA
ATOM      6  C   UNL     1      22.963   2.849  51.206  0.00  0.00    +0.000 A 
ATOM      7  C   UNL     1      21.639   3.256  51.326  0.00  0.00    +0.000 A 
ATOM      8  C   UNL     1      20.854   2.555  52.247  0.00  0.00    +0.000 A 
ATOM      9  C   UNL     1      21.379   1.481  52.988  0.00  0.00    +0.000 A 
ATOM     10  C   UNL     1      22.767   1.228  52.956  0.00  0.00    +0.000 A 
ATOM     11  C   UNL     1      23.607   2.012  52.143  0.00  0.00    +0.000 A 
ATOM     12  O   UNL     1      23.315   0.215  53.729  0.00  0.00    +0.000 OA
ATOM     13  C   UNL     1      22.445  -0.861  54.174  0.00  0.00    +0.000 C 
ATOM     14  C   UNL     1      22.518  -2.025  53.174  0.00  0.00    +0.000 C 
ATOM     15  C   UNL     1      22.989  -1.348  55.530  0.00  0.00    +0.000 C 
ATOM     16  C   UNL     1      21.001  -0.457  54.373  0.00  0.00    +0.000 C 
ATOM     17  C   UNL     1      20.525   0.661  53.834  0.00  0.00    +0.000 C 
ENDROOT
BRANCH   7  18
ATOM     18  C   UNL     1      21.123   4.524  50.710  0.00  0.00    +0.000 C 
ATOM     19  O   UNL     1      21.364   5.562  51.352  0.00  0.00    +0.000 OA
BRANCH  18  20
ATOM     20  C   UNL     1      20.449   4.676  49.328  0.00  0.00    +0.000 C 
ATOM     21  C   UNL     1      20.627   3.427  48.444  0.00  0.00    +0.000 C 
BRANCH  20  22
ATOM     22  C   UNL     1      19.093   5.459  49.322  0.00  0.00    +0.000 C 
ATOM     23  C   UNL     1      18.636   5.623  47.863  0.00  0.00    +0.000 C 
ATOM     24  C   UNL     1      17.989   4.745  50.118  0.00  0.00    +0.000 C 
BRANCH  22  25
ATOM     25  O   UNL     1      19.200   6.796  49.801  0.00  0.00    +0.000 OA
ATOM     26  H   UNL     1      19.675   7.335  49.148  0.00  0.00    +0.000 HD
ENDBRANCH  22  25
ENDBRANCH  20  22
ENDBRANCH  18  20
ENDBRANCH   7  18
BRANCH   8  27
ATOM     27  O   UNL     1      19.533   2.885  52.463  0.00  0.00    +0.000 OA
ATOM     28  H   UNL     1      19.237   3.087  53.329  0.00  0.00    +0.000 HD
ENDBRANCH   8  27
BRANCH   1  29
ATOM     29  C   UNL     1      25.959   2.087  53.448  0.00  0.00    +0.000 C 
BRANCH  29  31
ATOM     30  C   UNL     1      26.700   0.025  54.809  0.00  0.00    +0.000 C 
ATOM     31  C   UNL     1      26.725   0.768  53.476  0.00  0.00    +0.000 C 
ENDBRANCH  29  31
ENDBRANCH   1  29
TORSDOF 7
ENDMDL
MODEL 9
REMARK VINA RESULT:    -6.656      2.749      5.827
REMARK INTER + INTRA:         -10.285
REMARK INTER:                  -9.172
REMARK INTRA:                  -1.113
REMARK UNBOUND:                -1.295
REMARK  Name = 
REMARK  13 active torsions:
REMARK  status: ('A' for Active; 'I' for Inactive)
REMARK    1  A    between atoms: C_1  and  C_2
REMARK    2  A    between atoms: C_2  and  C_3
REMARK    3  A    between atoms: C_3  and  C_4
REMARK    4  A    between atoms: C_10  and  C_11
REMARK    5  A    between atoms: C_11  and  C_13
REMARK    6  A    between atoms: C_13  and  C_14
REMARK    7  A    between atoms: C_13  and  C_15
REMARK    8  A    between atoms: C_15  and  C_16
REMARK    9  A    between atoms: C_15  and  C_17
REMARK   10  A    between atoms: C_15  and  O_18
REMARK   11  A    between atoms: C_19  and  O_20
REMARK   12  A    between atoms: C_25  and  C_26
REMARK   13  A    between atoms: C_25  and  C_27
REMARK                            x       y       z     vdW  Elec       q    Type
REMARK                         _______ _______ _______ _____ _____    ______ ____
ROOT
ATOM      1  C   UNL     1      23.029   0.924  52.813  0.00  0.00    +0.000 A 
ATOM      2  C   UNL     1      24.352   1.198  52.883  0.00  0.00    +0.000 A 
ATOM      3  C   UNL     1      25.039   1.600  51.670  0.00  0.00    +0.000 A 
ATOM      4  O   UNL     1      26.152   1.208  51.347  0.00  0.00    +0.000 OA
ATOM      5  O   UNL     1      24.352   2.577  51.019  0.00  0.00    +0.000 OA
ATOM      6  C   UNL     1      23.015   2.848  51.350  0.00  0.00    +0.000 A 
ATOM      7  C   UNL     1      22.538   4.121  51.057  0.00  0.00    +0.000 A 
ATOM      8  C   UNL     1      21.148   4.280  51.059  0.00  0.00    +0.000 A 
ATOM      9  C   UNL     1      20.288   3.197  51.320  0.00  0.00    +0.000 A 
ATOM     10  C   UNL     1      20.827   1.978  51.782  0.00  0.00    +0.000 A 
ATOM     11  C   UNL     1      22.220   1.834  51.926  0.00  0.00    +0.000 A 
ATOM     12  O   UNL     1      19.992   0.918  52.107  0.00  0.00    +0.000 OA
ATOM     13  C   UNL     1      18.659   0.889  51.530  0.00  0.00    +0.000 C 
ATOM     14  C   UNL     1      18.679   0.057  50.237  0.00  0.00    +0.000 C 
ATOM     15  C   UNL     1      17.742   0.186  52.548  0.00  0.00    +0.000 C 
ATOM     16  C   UNL     1      18.071   2.252  51.242  0.00  0.00    +0.000 C 
ATOM     17  C   UNL     1      18.846   3.330  51.176  0.00  0.00    +0.000 C 
ENDROOT
BRANCH   7  18
ATOM     18  C   UNL     1      23.432   5.324  50.991  0.00  0.00    +0.000 C 
ATOM     19  O   UNL     1      23.934   5.672  52.074  0.00  0.00    +0.000 OA
BRANCH  18  20
ATOM     20  C   UNL     1      23.877   6.080  49.718  0.00  0.00    +0.000 C 
ATOM     21  C   UNL     1      22.967   7.282  49.398  0.00  0.00    +0.000 C 
BRANCH  20  22
ATOM     22  C   UNL     1      25.424   6.182  49.501  0.00  0.00    +0.000 C 
ATOM     23  C   UNL     1      25.994   4.757  49.409  0.00  0.00    +0.000 C 
ATOM     24  C   UNL     1      25.797   6.957  48.227  0.00  0.00    +0.000 C 
BRANCH  22  25
ATOM     25  O   UNL     1      26.120   6.760  50.600  0.00  0.00    +0.000 OA
ATOM     26  H   UNL     1      26.971   7.113  50.294  0.00  0.00    +0.000 HD
ENDBRANCH  22  25
ENDBRANCH  20  22
ENDBRANCH  18  20
ENDBRANCH   7  18
BRANCH   8  27
ATOM     27  O   UNL     1      20.564   5.502  50.803  0.00  0.00    +0.000 OA
ATOM     28  H   UNL     1      19.631   5.581  50.791  0.00  0.00    +0.000 HD
ENDBRANCH   8  27
BRANCH   1  29
ATOM     29  C   UNL     1      22.529   0.122  53.979  0.00  0.00    +0.000 C 
BRANCH  29  31
ATOM     30  C   UNL     1      20.815  -1.779  54.313  0.00  0.00    +0.000 C 
ATOM     31  C   UNL     1      22.135  -1.325  53.694  0.00  0.00    +0.000 C 
ENDBRANCH  29  31
ENDBRANCH   1  29
TORSDOF 7
ENDMDL
