MODEL 1
REMARK VINA RESULT:    -7.927      0.000      0.000
REMARK INTER + INTRA:         -11.643
REMARK INTER:                 -10.707
REMARK INTRA:                  -0.935
REMARK UNBOUND:                -0.935
REMARK  Name = 
REMARK  8 active torsions:
REMARK  status: ('A' for Active; 'I' for Inactive)
REMARK    1  A    between atoms: C_1  and  C_2
REMARK    2  A    between atoms: C_2  and  N_3
REMARK    3  A    between atoms: C_7  and  N_8
REMARK    4  A    between atoms: N_8  and  C_9
REMARK    5  A    between atoms: C_9  and  C_10
REMARK    6  A    between atoms: C_13  and  O_14
REMARK    7  A    between atoms: O_14  and  C_15
REMARK    8  A    between atoms: C_19  and  C_20
REMARK                            x       y       z     vdW  Elec       q    Type
REMARK                         _______ _______ _______ _____ _____    ______ ____
ROOT
ATOM      1  N   UNL     1      23.072  -0.089  52.916  0.00  0.00    +0.000 N 
ATOM      2  N   UNL     1      22.518   0.740  52.008  0.00  0.00    +0.000 NA
ATOM      3  C   UNL     1      23.533   1.541  51.672  0.00  0.00    +0.000 A 
ATOM      4  C   UNL     1      24.748   1.239  52.337  0.00  0.00    +0.000 A 
ATOM      5  C   UNL     1      26.083   1.722  52.367  0.00  0.00    +0.000 A 
ATOM      6  C   UNL     1      26.936   1.057  53.295  0.00  0.00    +0.000 A 
ATOM      7  C   UNL     1      26.448  -0.004  54.057  0.00  0.00    +0.000 A 
ATOM      8  N   UNL     1      25.188  -0.496  54.023  0.00  0.00    +0.000 NA
ATOM      9  C   UNL     1      24.397   0.168  53.158  0.00  0.00    +0.000 A 
ENDROOT
BRANCH   6  10
ATOM     10  C   UNL     1      28.336   1.520  53.493  0.00  0.00    +0.000 C 
ATOM     11  O   UNL     1      28.710   2.675  53.580  0.00  0.00    +0.000 OA
ATOM     12  O   UNL     1      29.218   0.512  53.621  0.00  0.00    +0.000 OA
ENDBRANCH   6  10
BRANCH   1  14
ATOM     13  C   UNL     1      21.547  -0.632  54.770  0.00  0.00    +0.000 C 
ATOM     14  C   UNL     1      22.262  -1.124  53.524  0.00  0.00    +0.000 C 
ENDBRANCH   1  14
BRANCH   5  15
ATOM     15  N   UNL     1      26.617   2.694  51.523  0.00  0.00    +0.000 N 
ATOM     16  H   UNL     1      27.073   3.451  51.959  0.00  0.00    +0.000 HD
BRANCH  15  17
ATOM     17  C   UNL     1      26.577   2.715  50.079  0.00  0.00    +0.000 C 
BRANCH  17  18
ATOM     18  C   UNL     1      26.419   4.093  49.476  0.00  0.00    +0.000 A 
ATOM     19  C   UNL     1      25.243   4.844  49.507  0.00  0.00    +0.000 A 
ATOM     20  C   UNL     1      25.220   6.142  48.986  0.00  0.00    +0.000 A 
ATOM     21  C   UNL     1      26.358   6.738  48.417  0.00  0.00    +0.000 A 
ATOM     22  C   UNL     1      27.534   5.981  48.358  0.00  0.00    +0.000 A 
ATOM     23 CL   UNL     1      29.037   6.497  47.678  0.00  0.00    +0.000 Cl
ATOM     24  C   UNL     1      27.551   4.677  48.884  0.00  0.00    +0.000 A 
BRANCH  21  25
ATOM     25  O   UNL     1      26.097   8.014  48.003  0.00  0.00    +0.000 OA
ATOM     26  C   UNL     1      25.149   8.811  48.693  0.00  0.00    +0.000 C 
ENDBRANCH  21  25
ENDBRANCH  17  18
ENDBRANCH  15  17
ENDBRANCH   5  15
TORSDOF 6
ENDMDL
MODEL 2
REMARK VINA RESULT:    -7.819      2.802      4.295
REMARK INTER + INTRA:         -11.497
REMARK INTER:                 -10.315
REMARK INTRA:                  -1.181
REMARK UNBOUND:                -0.935
REMARK  Name = 
REMARK  8 active torsions:
REMARK  status: ('A' for Active; 'I' for Inactive)
REMARK    1  A    between atoms: C_1  and  C_2
REMARK    2  A    between atoms: C_2  and  N_3
REMARK    3  A    between atoms: C_7  and  N_8
REMARK    4  A    between atoms: N_8  and  C_9
REMARK    5  A    between atoms: C_9  and  C_10
REMARK    6  A    between atoms: C_13  and  O_14
REMARK    7  A    between atoms: O_14  and  C_15
REMARK    8  A    between atoms: C_19  and  C_20
REMARK                            x       y       z     vdW  Elec       q    Type
REMARK                         _______ _______ _______ _____ _____    ______ ____
ROOT
ATOM      1  N   UNL     1      27.810   0.569  53.785  0.00  0.00    +0.000 N 
ATOM      2  N   UNL     1      28.216   1.638  53.068  0.00  0.00    +0.000 NA
ATOM      3  C   UNL     1      27.079   2.084  52.525  0.00  0.00    +0.000 A 
ATOM      4  C   UNL     1      25.934   1.332  52.889  0.00  0.00    +0.000 A 
ATOM      5  C   UNL     1      24.537   1.348  52.635  0.00  0.00    +0.000 A 
ATOM      6  C   UNL     1      23.810   0.281  53.238  0.00  0.00    +0.000 A 
ATOM      7  C   UNL     1      24.471  -0.652  54.037  0.00  0.00    +0.000 A 
ATOM      8  N   UNL     1      25.796  -0.668  54.312  0.00  0.00    +0.000 NA
ATOM      9  C   UNL     1      26.462   0.335  53.707  0.00  0.00    +0.000 A 
ENDROOT
BRANCH   6  10
ATOM     10  C   UNL     1      22.352   0.127  52.982  0.00  0.00    +0.000 C 
ATOM     11  O   UNL     1      21.810   0.082  51.893  0.00  0.00    +0.000 OA
ATOM     12  O   UNL     1      21.625  -0.015  54.106  0.00  0.00    +0.000 OA
ENDBRANCH   6  10
BRANCH   1  14
ATOM     13  C   UNL     1      29.860  -0.787  53.639  0.00  0.00    +0.000 C 
ATOM     14  C   UNL     1      28.785  -0.196  54.535  0.00  0.00    +0.000 C 
ENDBRANCH   1  14
BRANCH   5  15
ATOM     15  N   UNL     1      23.845   2.343  51.947  0.00  0.00    +0.000 N 
ATOM     16  H   UNL     1      23.261   2.924  52.486  0.00  0.00    +0.000 HD
BRANCH  15  17
ATOM     17  C   UNL     1      23.889   2.616  50.529  0.00  0.00    +0.000 C 
BRANCH  17  18
ATOM     18  C   UNL     1      24.804   3.755  50.137  0.00  0.00    +0.000 A 
ATOM     19  C   UNL     1      25.993   3.607  49.422  0.00  0.00    +0.000 A 
ATOM     20  C   UNL     1      26.734   4.731  49.042  0.00  0.00    +0.000 A 
ATOM     21  C   UNL     1      26.322   6.037  49.358  0.00  0.00    +0.000 A 
ATOM     22  C   UNL     1      25.143   6.191  50.098  0.00  0.00    +0.000 A 
ATOM     23 CL   UNL     1      24.465   7.693  50.622  0.00  0.00    +0.000 Cl
ATOM     24  C   UNL     1      24.404   5.057  50.476  0.00  0.00    +0.000 A 
BRANCH  21  25
ATOM     25  O   UNL     1      27.190   6.968  48.860  0.00  0.00    +0.000 OA
ATOM     26  C   UNL     1      28.328   6.561  48.119  0.00  0.00    +0.000 C 
ENDBRANCH  21  25
ENDBRANCH  17  18
ENDBRANCH  15  17
ENDBRANCH   5  15
TORSDOF 6
ENDMDL
MODEL 3
REMARK VINA RESULT:    -7.546      3.878      6.668
REMARK INTER + INTRA:         -11.128
REMARK INTER:                 -10.081
REMARK INTRA:                  -1.047
REMARK UNBOUND:                -0.935
REMARK  Name = 
REMARK  8 active torsions:
REMARK  status: ('A' for Active; 'I' for Inactive)
REMARK    1  A    between atoms: C_1  and  C_2
REMARK    2  A    between atoms: C_2  and  N_3
REMARK    3  A    between atoms: C_7  and  N_8
REMARK    4  A    between atoms: N_8  and  C_9
REMARK    5  A    between atoms: C_9  and  C_10
REMARK    6  A    between atoms: C_13  and  O_14
REMARK    7  A    between atoms: O_14  and  C_15
REMARK    8  A    between atoms: C_19  and  C_20
REMARK                            x       y       z     vdW  Elec       q    Type
REMARK                         _______ _______ _______ _____ _____    ______ ____
ROOT
ATOM      1  N   UNL     1      19.344  -0.670  52.924  0.00  0.00    +0.000 N 
ATOM      2  N   UNL     1      20.280  -0.998  53.840  0.00  0.00    +0.000 NA
ATOM      3  C   UNL     1      21.397  -0.467  53.331  0.00  0.00    +0.000 A 
ATOM      4  C   UNL     1      21.202   0.216  52.104  0.00  0.00    +0.000 A 
ATOM      5  C   UNL     1      21.983   0.940  51.165  0.00  0.00    +0.000 A 
ATOM      6  C   UNL     1      21.266   1.397  50.022  0.00  0.00    +0.000 A 
ATOM      7  C   UNL     1      19.896   1.154  49.912  0.00  0.00    +0.000 A 
ATOM      8  N   UNL     1      19.131   0.489  50.809  0.00  0.00    +0.000 NA
ATOM      9  C   UNL     1      19.839   0.045  51.865  0.00  0.00    +0.000 A 
ENDROOT
BRANCH   6  10
ATOM     10  C   UNL     1      21.978   2.093  48.917  0.00  0.00    +0.000 C 
ATOM     11  O   UNL     1      22.268   1.621  47.833  0.00  0.00    +0.000 OA
ATOM     12  O   UNL     1      22.264   3.379  49.192  0.00  0.00    +0.000 OA
ENDBRANCH   6  10
BRANCH   1  14
ATOM     13  C   UNL     1      17.872  -2.510  53.635  0.00  0.00    +0.000 C 
ATOM     14  C   UNL     1      17.971  -1.081  53.132  0.00  0.00    +0.000 C 
ENDBRANCH   1  14
BRANCH   5  15
ATOM     15  N   UNL     1      23.320   1.300  51.322  0.00  0.00    +0.000 N 
ATOM     16  H   UNL     1      23.930   1.049  50.591  0.00  0.00    +0.000 HD
BRANCH  15  17
ATOM     17  C   UNL     1      23.911   2.001  52.439  0.00  0.00    +0.000 C 
BRANCH  17  18
ATOM     18  C   UNL     1      25.133   1.329  53.026  0.00  0.00    +0.000 A 
ATOM     19  C   UNL     1      25.184  -0.003  53.438  0.00  0.00    +0.000 A 
ATOM     20  C   UNL     1      26.385  -0.553  53.899  0.00  0.00    +0.000 A 
ATOM     21  C   UNL     1      27.571   0.196  53.968  0.00  0.00    +0.000 A 
ATOM     22  C   UNL     1      27.520   1.541  53.581  0.00  0.00    +0.000 A 
ATOM     23 CL   UNL     1      28.842   2.654  53.611  0.00  0.00    +0.000 Cl
ATOM     24  C   UNL     1      26.310   2.087  53.118  0.00  0.00    +0.000 A 
BRANCH  21  25
ATOM     25  O   UNL     1      28.613  -0.562  54.423  0.00  0.00    +0.000 OA
ATOM     26  C   UNL     1      29.597  -1.042  53.522  0.00  0.00    +0.000 C 
ENDBRANCH  21  25
ENDBRANCH  17  18
ENDBRANCH  15  17
ENDBRANCH   5  15
TORSDOF 6
ENDMDL
MODEL 4
REMARK VINA RESULT:    -7.420      4.295      7.586
REMARK INTER + INTRA:         -10.958
REMARK INTER:                  -9.976
REMARK INTRA:                  -0.982
REMARK UNBOUND:                -0.935
REMARK  Name = 
REMARK  8 active torsions:
REMARK  status: ('A' for Active; 'I' for Inactive)
REMARK    1  A    between atoms: C_1  and  C_2
REMARK    2  A    between atoms: C_2  and  N_3
REMARK    3  A    between atoms: C_7  and  N_8
REMARK    4  A    between atoms: N_8  and  C_9
REMARK    5  A    between atoms: C_9  and  C_10
REMARK    6  A    between atoms: C_13  and  O_14
REMARK    7  A    between atoms: O_14  and  C_15
REMARK    8  A    between atoms: C_19  and  C_20
REMARK                            x       y       z     vdW  Elec       q    Type
REMARK                         _______ _______ _______ _____ _____    ______ ____
ROOT
ATOM      1  N   UNL     1      27.957   0.739  54.032  0.00  0.00    +0.000 N 
ATOM      2  N   UNL     1      27.364   0.033  55.017  0.00  0.00    +0.000 NA
ATOM      3  C   UNL     1      26.062   0.214  54.776  0.00  0.00    +0.000 A 
ATOM      4  C   UNL     1      25.794   1.017  53.638  0.00  0.00    +0.000 A 
ATOM      5  C   UNL     1      24.662   1.510  52.938  0.00  0.00    +0.000 A 
ATOM      6  C   UNL     1      24.967   2.356  51.834  0.00  0.00    +0.000 A 
ATOM      7  C   UNL     1      26.295   2.610  51.493  0.00  0.00    +0.000 A 
ATOM      8  N   UNL     1      27.387   2.128  52.131  0.00  0.00    +0.000 NA
ATOM      9  C   UNL     1      27.069   1.354  53.187  0.00  0.00    +0.000 A 
ENDROOT
BRANCH   6  10
ATOM     10  C   UNL     1      23.874   3.013  51.066  0.00  0.00    +0.000 C 
ATOM     11  O   UNL     1      22.893   3.563  51.532  0.00  0.00    +0.000 OA
ATOM     12  O   UNL     1      24.074   2.999  49.736  0.00  0.00    +0.000 OA
ENDBRANCH   6  10
BRANCH   1  14
ATOM     13  C   UNL     1      30.000  -0.574  53.632  0.00  0.00    +0.000 C 
ATOM     14  C   UNL     1      29.402   0.783  53.958  0.00  0.00    +0.000 C 
ENDBRANCH   1  14
BRANCH   5  15
ATOM     15  N   UNL     1      23.335   1.164  53.188  0.00  0.00    +0.000 N 
ATOM     16  H   UNL     1      22.703   1.910  53.311  0.00  0.00    +0.000 HD
BRANCH  15  17
ATOM     17  C   UNL     1      22.783  -0.168  53.288  0.00  0.00    +0.000 C 
BRANCH  17  18
ATOM     18  C   UNL     1      21.320  -0.270  52.917  0.00  0.00    +0.000 A 
ATOM     19  C   UNL     1      20.348  -0.906  53.691  0.00  0.00    +0.000 A 
ATOM     20  C   UNL     1      19.006  -0.882  53.298  0.00  0.00    +0.000 A 
ATOM     21  C   UNL     1      18.583  -0.230  52.128  0.00  0.00    +0.000 A 
ATOM     22  C   UNL     1      19.556   0.388  51.333  0.00  0.00    +0.000 A 
ATOM     23 CL   UNL     1      19.270   1.219  49.844  0.00  0.00    +0.000 Cl
ATOM     24  C   UNL     1      20.903   0.360  51.734  0.00  0.00    +0.000 A 
BRANCH  21  25
ATOM     25  O   UNL     1      17.228  -0.320  51.970  0.00  0.00    +0.000 OA
ATOM     26  C   UNL     1      16.506  -1.382  52.569  0.00  0.00    +0.000 C 
ENDBRANCH  21  25
ENDBRANCH  17  18
ENDBRANCH  15  17
ENDBRANCH   5  15
TORSDOF 6
ENDMDL
MODEL 5
REMARK VINA RESULT:    -7.393      4.420      7.715
REMARK INTER + INTRA:         -10.922
REMARK INTER:                  -9.827
REMARK INTRA:                  -1.095
REMARK UNBOUND:                -0.935
REMARK  Name = 
REMARK  8 active torsions:
REMARK  status: ('A' for Active; 'I' for Inactive)
REMARK    1  A    between atoms: C_1  and  C_2
REMARK    2  A    between atoms: C_2  and  N_3
REMARK    3  A    between atoms: C_7  and  N_8
REMARK    4  A    between atoms: N_8  and  C_9
REMARK    5  A    between atoms: C_9  and  C_10
REMARK    6  A    between atoms: C_13  and  O_14
REMARK    7  A    between atoms: O_14  and  C_15
REMARK    8  A    between atoms: C_19  and  C_20
REMARK                            x       y       z     vdW  Elec       q    Type
REMARK                         _______ _______ _______ _____ _____    ______ ____
ROOT
ATOM      1  N   UNL     1      26.793  -0.276  53.169  0.00  0.00    +0.000 N 
ATOM      2  N   UNL     1      25.794  -0.952  53.774  0.00  0.00    +0.000 NA
ATOM      3  C   UNL     1      24.707  -0.255  53.428  0.00  0.00    +0.000 A 
ATOM      4  C   UNL     1      24.979   0.859  52.595  0.00  0.00    +0.000 A 
ATOM      5  C   UNL     1      24.254   1.893  51.947  0.00  0.00    +0.000 A 
ATOM      6  C   UNL     1      25.059   2.830  51.237  0.00  0.00    +0.000 A 
ATOM      7  C   UNL     1      26.443   2.666  51.186  0.00  0.00    +0.000 A 
ATOM      8  N   UNL     1      27.149   1.672  51.774  0.00  0.00    +0.000 NA
ATOM      9  C   UNL     1      26.366   0.817  52.461  0.00  0.00    +0.000 A 
ENDROOT
BRANCH   6  10
ATOM     10  C   UNL     1      24.436   4.014  50.586  0.00  0.00    +0.000 C 
ATOM     11  O   UNL     1      24.382   4.236  49.390  0.00  0.00    +0.000 OA
ATOM     12  O   UNL     1      23.859   4.861  51.457  0.00  0.00    +0.000 OA
ENDBRANCH   6  10
BRANCH   1  14
ATOM     13  C   UNL     1      28.895  -0.009  54.422  0.00  0.00    +0.000 C 
ATOM     14  C   UNL     1      28.157  -0.740  53.315  0.00  0.00    +0.000 C 
ENDBRANCH   1  14
BRANCH   5  15
ATOM     15  N   UNL     1      22.865   1.998  51.882  0.00  0.00    +0.000 N 
ATOM     16  H   UNL     1      22.443   2.620  52.519  0.00  0.00    +0.000 HD
BRANCH  15  17
ATOM     17  C   UNL     1      21.977   1.296  50.985  0.00  0.00    +0.000 C 
BRANCH  17  18
ATOM     18  C   UNL     1      20.874   0.523  51.672  0.00  0.00    +0.000 A 
ATOM     19  C   UNL     1      20.977  -0.048  52.941  0.00  0.00    +0.000 A 
ATOM     20  C   UNL     1      19.873  -0.681  53.523  0.00  0.00    +0.000 A 
ATOM     21  C   UNL     1      18.633  -0.770  52.867  0.00  0.00    +0.000 A 
ATOM     22  C   UNL     1      18.531  -0.223  51.583  0.00  0.00    +0.000 A 
ATOM     23 CL   UNL     1      17.120  -0.242  50.583  0.00  0.00    +0.000 Cl
ATOM     24  C   UNL     1      19.644   0.412  51.005  0.00  0.00    +0.000 A 
BRANCH  21  25
ATOM     25  O   UNL     1      17.704  -1.406  53.642  0.00  0.00    +0.000 OA
ATOM     26  C   UNL     1      17.636  -2.822  53.661  0.00  0.00    +0.000 C 
ENDBRANCH  21  25
ENDBRANCH  17  18
ENDBRANCH  15  17
ENDBRANCH   5  15
TORSDOF 6
ENDMDL
MODEL 6
REMARK VINA RESULT:    -6.999      1.747      2.181
REMARK INTER + INTRA:         -10.389
REMARK INTER:                  -9.350
REMARK INTRA:                  -1.039
REMARK UNBOUND:                -0.935
REMARK  Name = 
REMARK  8 active torsions:
REMARK  status: ('A' for Active; 'I' for Inactive)
REMARK    1  A    between atoms: C_1  and  C_2
REMARK    2  A    between atoms: C_2  and  N_3
REMARK    3  A    between atoms: C_7  and  N_8
REMARK    4  A    between atoms: N_8  and  C_9
REMARK    5  A    between atoms: C_9  and  C_10
REMARK    6  A    between atoms: C_13  and  O_14
REMARK    7  A    between atoms: O_14  and  C_15
REMARK    8  A    between atoms: C_19  and  C_20
REMARK                            x       y       z     vdW  Elec       q    Type
REMARK                         _______ _______ _______ _____ _____    ______ ____
ROOT
ATOM      1  N   UNL     1      21.545   0.769  52.550  0.00  0.00    +0.000 N 
ATOM      2  N   UNL     1      21.283   1.925  51.904  0.00  0.00    +0.000 NA
ATOM      3  C   UNL     1      22.497   2.459  51.741  0.00  0.00    +0.000 A 
ATOM      4  C   UNL     1      23.550   1.664  52.259  0.00  0.00    +0.000 A 
ATOM      5  C   UNL     1      24.965   1.721  52.357  0.00  0.00    +0.000 A 
ATOM      6  C   UNL     1      25.559   0.629  53.052  0.00  0.00    +0.000 A 
ATOM      7  C   UNL     1      24.761  -0.406  53.540  0.00  0.00    +0.000 A 
ATOM      8  N   UNL     1      23.414  -0.492  53.433  0.00  0.00    +0.000 NA
ATOM      9  C   UNL     1      22.878   0.567  52.796  0.00  0.00    +0.000 A 
ENDROOT
BRANCH   6  10
ATOM     10  C   UNL     1      27.025   0.606  53.304  0.00  0.00    +0.000 C 
ATOM     11  O   UNL     1      27.811  -0.241  52.922  0.00  0.00    +0.000 OA
ATOM     12  O   UNL     1      27.465   1.676  53.991  0.00  0.00    +0.000 OA
ENDBRANCH   6  10
BRANCH   1  14
ATOM     13  C   UNL     1      19.192   0.191  52.114  0.00  0.00    +0.000 C 
ATOM     14  C   UNL     1      20.450  -0.109  52.908  0.00  0.00    +0.000 C 
ENDBRANCH   1  14
BRANCH   5  15
ATOM     15  N   UNL     1      25.785   2.681  51.765  0.00  0.00    +0.000 N 
ATOM     16  H   UNL     1      26.160   3.367  52.365  0.00  0.00    +0.000 HD
BRANCH  15  17
ATOM     17  C   UNL     1      26.146   2.782  50.370  0.00  0.00    +0.000 C 
BRANCH  17  18
ATOM     18  C   UNL     1      26.307   4.198  49.864  0.00  0.00    +0.000 A 
ATOM     19  C   UNL     1      27.269   4.606  48.939  0.00  0.00    +0.000 A 
ATOM     20  C   UNL     1      27.289   5.926  48.477  0.00  0.00    +0.000 A 
ATOM     21  C   UNL     1      26.360   6.885  48.915  0.00  0.00    +0.000 A 
ATOM     22  C   UNL     1      25.409   6.489  49.863  0.00  0.00    +0.000 A 
ATOM     23 CL   UNL     1      24.194   7.501  50.562  0.00  0.00    +0.000 Cl
ATOM     24  C   UNL     1      25.394   5.161  50.323  0.00  0.00    +0.000 A 
BRANCH  21  25
ATOM     25  O   UNL     1      26.563   8.091  48.305  0.00  0.00    +0.000 OA
ATOM     26  C   UNL     1      27.080   9.187  49.039  0.00  0.00    +0.000 C 
ENDBRANCH  21  25
ENDBRANCH  17  18
ENDBRANCH  15  17
ENDBRANCH   5  15
TORSDOF 6
ENDMDL
MODEL 7
REMARK VINA RESULT:    -6.951      3.946      8.161
REMARK INTER + INTRA:         -10.325
REMARK INTER:                  -9.163
REMARK INTRA:                  -1.162
REMARK UNBOUND:                -0.935
REMARK  Name = 
REMARK  8 active torsions:
REMARK  status: ('A' for Active; 'I' for Inactive)
REMARK    1  A    between atoms: C_1  and  C_2
REMARK    2  A    between atoms: C_2  and  N_3
REMARK    3  A    between atoms: C_7  and  N_8
REMARK    4  A    between atoms: N_8  and  C_9
REMARK    5  A    between atoms: C_9  and  C_10
REMARK    6  A    between atoms: C_13  and  O_14
REMARK    7  A    between atoms: O_14  and  C_15
REMARK    8  A    between atoms: C_19  and  C_20
REMARK                            x       y       z     vdW  Elec       q    Type
REMARK                         _______ _______ _______ _____ _____    ______ ____
ROOT
ATOM      1  N   UNL     1      27.039   7.343  48.880  0.00  0.00    +0.000 N 
ATOM      2  N   UNL     1      27.673   6.291  48.322  0.00  0.00    +0.000 NA
ATOM      3  C   UNL     1      26.990   5.244  48.792  0.00  0.00    +0.000 A 
ATOM      4  C   UNL     1      25.909   5.595  49.639  0.00  0.00    +0.000 A 
ATOM      5  C   UNL     1      24.890   4.937  50.376  0.00  0.00    +0.000 A 
ATOM      6  C   UNL     1      24.052   5.803  51.136  0.00  0.00    +0.000 A 
ATOM      7  C   UNL     1      24.243   7.183  51.087  0.00  0.00    +0.000 A 
ATOM      8  N   UNL     1      25.192   7.830  50.369  0.00  0.00    +0.000 NA
ATOM      9  C   UNL     1      25.986   6.986  49.682  0.00  0.00    +0.000 A 
ENDROOT
BRANCH   6  10
ATOM     10  C   UNL     1      22.999   5.240  52.025  0.00  0.00    +0.000 C 
ATOM     11  O   UNL     1      21.802   5.216  51.802  0.00  0.00    +0.000 OA
ATOM     12  O   UNL     1      23.489   4.681  53.146  0.00  0.00    +0.000 OA
ENDBRANCH   6  10
BRANCH   1  14
ATOM     13  C   UNL     1      28.741   9.043  49.401  0.00  0.00    +0.000 C 
ATOM     14  C   UNL     1      27.502   8.686  48.599  0.00  0.00    +0.000 C 
ENDBRANCH   1  14
BRANCH   5  15
ATOM     15  N   UNL     1      24.606   3.573  50.336  0.00  0.00    +0.000 N 
ATOM     16  H   UNL     1      23.814   3.305  49.815  0.00  0.00    +0.000 HD
BRANCH  15  17
ATOM     17  C   UNL     1      25.344   2.507  50.974  0.00  0.00    +0.000 C 
BRANCH  17  18
ATOM     18  C   UNL     1      24.489   1.519  51.734  0.00  0.00    +0.000 A 
ATOM     19  C   UNL     1      24.935   0.739  52.801  0.00  0.00    +0.000 A 
ATOM     20  C   UNL     1      24.045  -0.093  53.489  0.00  0.00    +0.000 A 
ATOM     21  C   UNL     1      22.687  -0.181  53.142  0.00  0.00    +0.000 A 
ATOM     22  C   UNL     1      22.238   0.579  52.056  0.00  0.00    +0.000 A 
ATOM     23 CL   UNL     1      20.623   0.605  51.436  0.00  0.00    +0.000 Cl
ATOM     24  C   UNL     1      23.137   1.414  51.369  0.00  0.00    +0.000 A 
BRANCH  21  25
ATOM     25  O   UNL     1      22.015  -1.035  53.972  0.00  0.00    +0.000 OA
ATOM     26  C   UNL     1      22.546  -1.363  55.244  0.00  0.00    +0.000 C 
ENDBRANCH  21  25
ENDBRANCH  17  18
ENDBRANCH  15  17
ENDBRANCH   5  15
TORSDOF 6
ENDMDL
MODEL 8
REMARK VINA RESULT:    -6.856      3.671      5.057
REMARK INTER + INTRA:         -10.196
REMARK INTER:                  -9.063
REMARK INTRA:                  -1.133
REMARK UNBOUND:                -0.935
REMARK  Name = 
REMARK  8 active torsions:
REMARK  status: ('A' for Active; 'I' for Inactive)
REMARK    1  A    between atoms: C_1  and  C_2
REMARK    2  A    between atoms: C_2  and  N_3
REMARK    3  A    between atoms: C_7  and  N_8
REMARK    4  A    between atoms: N_8  and  C_9
REMARK    5  A    between atoms: C_9  and  C_10
REMARK    6  A    between atoms: C_13  and  O_14
REMARK    7  A    between atoms: O_14  and  C_15
REMARK    8  A    between atoms: C_19  and  C_20
REMARK                            x       y       z     vdW  Elec       q    Type
REMARK                         _______ _______ _______ _____ _____    ______ ____
ROOT
ATOM      1  N   UNL     1      27.228   0.872  53.169  0.00  0.00    +0.000 N 
ATOM      2  N   UNL     1      27.107   1.684  52.098  0.00  0.00    +0.000 NA
ATOM      3  C   UNL     1      25.790   1.695  51.876  0.00  0.00    +0.000 A 
ATOM      4  C   UNL     1      25.045   0.913  52.795  0.00  0.00    +0.000 A 
ATOM      5  C   UNL     1      23.687   0.578  53.037  0.00  0.00    +0.000 A 
ATOM      6  C   UNL     1      23.481  -0.332  54.113  0.00  0.00    +0.000 A 
ATOM      7  C   UNL     1      24.567  -0.791  54.859  0.00  0.00    +0.000 A 
ATOM      8  N   UNL     1      25.865  -0.462  54.660  0.00  0.00    +0.000 NA
ATOM      9  C   UNL     1      26.033   0.377  53.620  0.00  0.00    +0.000 A 
ENDROOT
BRANCH   6  10
ATOM     10  C   UNL     1      22.115  -0.836  54.420  0.00  0.00    +0.000 C 
ATOM     11  O   UNL     1      21.224  -0.219  54.975  0.00  0.00    +0.000 OA
ATOM     12  O   UNL     1      21.895  -2.087  53.977  0.00  0.00    +0.000 OA
ENDBRANCH   6  10
BRANCH   1  14
ATOM     13  C   UNL     1      29.079  -0.746  53.295  0.00  0.00    +0.000 C 
ATOM     14  C   UNL     1      28.542   0.610  53.719  0.00  0.00    +0.000 C 
ENDBRANCH   1  14
BRANCH   5  15
ATOM     15  N   UNL     1      22.583   1.126  52.385  0.00  0.00    +0.000 N 
ATOM     16  H   UNL     1      22.124   1.865  52.846  0.00  0.00    +0.000 HD
BRANCH  15  17
ATOM     17  C   UNL     1      22.038   0.730  51.107  0.00  0.00    +0.000 C 
BRANCH  17  18
ATOM     18  C   UNL     1      22.193   1.761  50.011  0.00  0.00    +0.000 A 
ATOM     19  C   UNL     1      21.895   1.540  48.666  0.00  0.00    +0.000 A 
ATOM     20  C   UNL     1      22.000   2.583  47.739  0.00  0.00    +0.000 A 
ATOM     21  C   UNL     1      22.406   3.875  48.113  0.00  0.00    +0.000 A 
ATOM     22  C   UNL     1      22.732   4.096  49.456  0.00  0.00    +0.000 A 
ATOM     23 CL   UNL     1      23.280   5.590  50.133  0.00  0.00    +0.000 Cl
ATOM     24  C   UNL     1      22.623   3.045  50.383  0.00  0.00    +0.000 A 
BRANCH  21  25
ATOM     25  O   UNL     1      22.407   4.726  47.043  0.00  0.00    +0.000 OA
ATOM     26  C   UNL     1      21.378   5.689  46.893  0.00  0.00    +0.000 C 
ENDBRANCH  21  25
ENDBRANCH  17  18
ENDBRANCH  15  17
ENDBRANCH   5  15
TORSDOF 6
ENDMDL
MODEL 9
REMARK VINA RESULT:    -6.824      3.624      8.223
REMARK INTER + INTRA:         -10.152
REMARK INTER:                  -9.114
REMARK INTRA:                  -1.039
REMARK UNBOUND:                -0.935
REMARK  Name = 
REMARK  8 active torsions:
REMARK  status: ('A' for Active; 'I' for Inactive)
REMARK    1  A    between atoms: C_1  and  C_2
REMARK    2  A    between atoms: C_2  and  N_3
REMARK    3  A    between atoms: C_7  and  N_8
REMARK    4  A    between atoms: N_8  and  C_9
REMARK    5  A    between atoms: C_9  and  C_10
REMARK    6  A    between atoms: C_13  and  O_14
REMARK    7  A    between atoms: O_14  and  C_15
REMARK    8  A    between atoms: C_19  and  C_20
REMARK                            x       y       z     vdW  Elec       q    Type
REMARK                         _______ _______ _______ _____ _____    ______ ____
ROOT
ATOM      1  N   UNL     1      27.842   7.381  47.925  0.00  0.00    +0.000 N 
ATOM      2  N   UNL     1      28.756   6.390  47.870  0.00  0.00    +0.000 NA
ATOM      3  C   UNL     1      28.108   5.352  48.406  0.00  0.00    +0.000 A 
ATOM      4  C   UNL     1      26.777   5.646  48.798  0.00  0.00    +0.000 A 
ATOM      5  C   UNL     1      25.676   4.966  49.383  0.00  0.00    +0.000 A 
ATOM      6  C   UNL     1      24.533   5.781  49.621  0.00  0.00    +0.000 A 
ATOM      7  C   UNL     1      24.542   7.126  49.248  0.00  0.00    +0.000 A 
ATOM      8  N   UNL     1      25.571   7.783  48.665  0.00  0.00    +0.000 NA
ATOM      9  C   UNL     1      26.648   6.996  48.478  0.00  0.00    +0.000 A 
ENDROOT
BRANCH   6  10
ATOM     10  C   UNL     1      23.339   5.219  50.310  0.00  0.00    +0.000 C 
ATOM     11  O   UNL     1      22.737   4.207  50.001  0.00  0.00    +0.000 OA
ATOM     12  O   UNL     1      22.968   5.923  51.395  0.00  0.00    +0.000 OA
ENDBRANCH   6  10
BRANCH   1  14
ATOM     13  C   UNL     1      28.841   9.560  48.484  0.00  0.00    +0.000 C 
ATOM     14  C   UNL     1      28.185   8.695  47.423  0.00  0.00    +0.000 C 
ENDBRANCH   1  14
BRANCH   5  15
ATOM     15  N   UNL     1      25.607   3.598  49.643  0.00  0.00    +0.000 N 
ATOM     16  H   UNL     1      24.836   3.119  49.262  0.00  0.00    +0.000 HD
BRANCH  15  17
ATOM     17  C   UNL     1      26.541   2.806  50.410  0.00  0.00    +0.000 C 
BRANCH  17  18
ATOM     18  C   UNL     1      25.901   1.918  51.453  0.00  0.00    +0.000 A 
ATOM     19  C   UNL     1      24.683   2.181  52.080  0.00  0.00    +0.000 A 
ATOM     20  C   UNL     1      24.138   1.259  52.980  0.00  0.00    +0.000 A 
ATOM     21  C   UNL     1      24.781   0.048  53.288  0.00  0.00    +0.000 A 
ATOM     22  C   UNL     1      26.017  -0.210  52.683  0.00  0.00    +0.000 A 
ATOM     23 CL   UNL     1      26.995  -1.613  52.936  0.00  0.00    +0.000 Cl
ATOM     24  C   UNL     1      26.558   0.721  51.780  0.00  0.00    +0.000 A 
BRANCH  21  25
ATOM     25  O   UNL     1      24.045  -0.697  54.167  0.00  0.00    +0.000 OA
ATOM     26  C   UNL     1      22.671  -0.942  53.923  0.00  0.00    +0.000 C 
ENDBRANCH  21  25
ENDBRANCH  17  18
ENDBRANCH  15  17
ENDBRANCH   5  15
TORSDOF 6
ENDMDL
