MODEL 1
REMARK VINA RESULT:    -6.726      0.000      0.000
REMARK INTER + INTRA:         -11.988
REMARK INTER:                 -10.068
REMARK INTRA:                  -1.921
REMARK UNBOUND:                -1.921
REMARK  Name = 
REMARK  10 active torsions:
REMARK  status: ('A' for Active; 'I' for Inactive)
REMARK    1  A    between atoms: C_1  and  O_2
REMARK    2  A    between atoms: O_2  and  C_3
REMARK    3  A    between atoms: C_3  and  C_5
REMARK    4  A    between atoms: C_8  and  O_9
REMARK    5  A    between atoms: O_9  and  C_10
REMARK    6  A    between atoms: C_10  and  C_11
REMARK    7  A    between atoms: C_11  and  C_12
REMARK    8  A    between atoms: C_12  and  O_13
REMARK    9  A    between atoms: O_13  and  C_14
REMARK   10  A    between atoms: C_19  and  O_20
REMARK                            x       y       z     vdW  Elec       q    Type
REMARK                         _______ _______ _______ _____ _____    ______ ____
ROOT
ATOM      1  C   UNL     1      23.024   3.811  48.925  0.00  0.00    +0.000 C 
ENDROOT
BRANCH   1   2
ATOM      2  C   UNL     1      24.428   4.014  49.512  0.00  0.00    +0.000 C 
BRANCH   2   3
ATOM      3  O   UNL     1      24.455   4.249  50.927  0.00  0.00    +0.000 OA
BRANCH   3   7
ATOM      4  C   UNL     1      26.166   1.007  53.016  0.00  0.00    +0.000 A 
ATOM      5  C   UNL     1      25.295   1.875  53.683  0.00  0.00    +0.000 A 
ATOM      6  C   UNL     1      24.736   2.981  53.027  0.00  0.00    +0.000 A 
ATOM      7  C   UNL     1      25.023   3.240  51.683  0.00  0.00    +0.000 A 
ATOM      8  C   UNL     1      25.941   2.404  51.032  0.00  0.00    +0.000 A 
ATOM      9  C   UNL     1      26.510   1.293  51.691  0.00  0.00    +0.000 A 
BRANCH   4  10
ATOM     10  C   UNL     1      26.648  -0.194  53.763  0.00  0.00    +0.000 C 
ATOM     11  O   UNL     1      26.507  -1.337  53.341  0.00  0.00    +0.000 OA
BRANCH  10  13
ATOM     12  C   UNL     1      28.705   0.136  54.812  0.00  0.00    +0.000 C 
ATOM     13  O   UNL     1      27.273   0.147  54.913  0.00  0.00    +0.000 OA
ENDBRANCH  10  13
ENDBRANCH   4  10
ENDBRANCH   3   7
ENDBRANCH   2   3
ENDBRANCH   1   2
BRANCH   1  14
ATOM     14  C   UNL     1      22.326   2.499  49.281  0.00  0.00    +0.000 C 
BRANCH  14  15
ATOM     15  O   UNL     1      21.411   2.714  50.381  0.00  0.00    +0.000 OA
BRANCH  15  16
ATOM     16  C   UNL     1      21.474   1.873  51.468  0.00  0.00    +0.000 A 
ATOM     17  C   UNL     1      22.356   0.795  51.605  0.00  0.00    +0.000 A 
ATOM     18  C   UNL     1      22.289   0.062  52.775  0.00  0.00    +0.000 A 
ATOM     19  C   UNL     1      21.354   0.308  53.779  0.00  0.00    +0.000 A 
ATOM     20  C   UNL     1      20.493   1.377  53.682  0.00  0.00    +0.000 A 
ATOM     21  C   UNL     1      20.587   2.170  52.535  0.00  0.00    +0.000 A 
ATOM     22  C   UNL     1      21.495  -0.743  54.815  0.00  0.00    +0.000 C 
ATOM     23  C   UNL     1      22.949  -1.104  54.523  0.00  0.00    +0.000 C 
ATOM     24  O   UNL     1      23.151  -0.965  53.092  0.00  0.00    +0.000 OA
BRANCH  21  25
ATOM     25  O   UNL     1      19.787   3.282  52.480  0.00  0.00    +0.000 OA
ATOM     26  H   UNL     1      18.870   3.191  52.315  0.00  0.00    +0.000 HD
ENDBRANCH  21  25
ENDBRANCH  15  16
ENDBRANCH  14  15
ENDBRANCH   1  14
TORSDOF 9
ENDMDL
MODEL 2
REMARK VINA RESULT:    -6.604      2.975      6.335
REMARK INTER + INTRA:         -11.806
REMARK INTER:                 -10.970
REMARK INTRA:                  -0.836
REMARK UNBOUND:                -1.921
REMARK  Name = 
REMARK  10 active torsions:
REMARK  status: ('A' for Active; 'I' for Inactive)
REMARK    1  A    between atoms: C_1  and  O_2
REMARK    2  A    between atoms: O_2  and  C_3
REMARK    3  A    between atoms: C_3  and  C_5
REMARK    4  A    between atoms: C_8  and  O_9
REMARK    5  A    between atoms: O_9  and  C_10
REMARK    6  A    between atoms: C_10  and  C_11
REMARK    7  A    between atoms: C_11  and  C_12
REMARK    8  A    between atoms: C_12  and  O_13
REMARK    9  A    between atoms: O_13  and  C_14
REMARK   10  A    between atoms: C_19  and  O_20
REMARK                            x       y       z     vdW  Elec       q    Type
REMARK                         _______ _______ _______ _____ _____    ______ ____
ROOT
ATOM      1  C   UNL     1      23.444   1.944  51.785  0.00  0.00    +0.000 C 
ENDROOT
BRANCH   1   2
ATOM      2  C   UNL     1      23.466   3.425  51.384  0.00  0.00    +0.000 C 
BRANCH   2   3
ATOM      3  O   UNL     1      23.631   3.660  49.979  0.00  0.00    +0.000 OA
BRANCH   3   7
ATOM      4  C   UNL     1      27.157   5.574  48.670  0.00  0.00    +0.000 A 
ATOM      5  C   UNL     1      27.210   4.238  49.083  0.00  0.00    +0.000 A 
ATOM      6  C   UNL     1      26.064   3.584  49.556  0.00  0.00    +0.000 A 
ATOM      7  C   UNL     1      24.832   4.243  49.614  0.00  0.00    +0.000 A 
ATOM      8  C   UNL     1      24.792   5.597  49.255  0.00  0.00    +0.000 A 
ATOM      9  C   UNL     1      25.945   6.262  48.784  0.00  0.00    +0.000 A 
BRANCH   4  10
ATOM     10  C   UNL     1      28.404   6.168  48.100  0.00  0.00    +0.000 C 
ATOM     11  O   UNL     1      28.388   7.024  47.222  0.00  0.00    +0.000 OA
BRANCH  10  13
ATOM     12  C   UNL     1      30.616   5.491  47.793  0.00  0.00    +0.000 C 
ATOM     13  O   UNL     1      29.513   5.674  48.695  0.00  0.00    +0.000 OA
ENDBRANCH  10  13
ENDBRANCH   4  10
ENDBRANCH   3   7
ENDBRANCH   2   3
ENDBRANCH   1   2
BRANCH   1  14
ATOM     14  C   UNL     1      24.138   1.589  53.100  0.00  0.00    +0.000 C 
BRANCH  14  15
ATOM     15  O   UNL     1      25.494   2.091  53.088  0.00  0.00    +0.000 OA
BRANCH  15  16
ATOM     16  C   UNL     1      26.530   1.204  53.266  0.00  0.00    +0.000 A 
ATOM     17  C   UNL     1      26.493  -0.156  52.937  0.00  0.00    +0.000 A 
ATOM     18  C   UNL     1      27.634  -0.900  53.173  0.00  0.00    +0.000 A 
ATOM     19  C   UNL     1      28.778  -0.376  53.772  0.00  0.00    +0.000 A 
ATOM     20  C   UNL     1      28.851   0.964  54.082  0.00  0.00    +0.000 A 
ATOM     21  C   UNL     1      27.730   1.746  53.792  0.00  0.00    +0.000 A 
ATOM     22  C   UNL     1      29.745  -1.481  53.979  0.00  0.00    +0.000 C 
ATOM     23  C   UNL     1      29.219  -2.401  52.880  0.00  0.00    +0.000 C 
ATOM     24  O   UNL     1      27.780  -2.223  52.817  0.00  0.00    +0.000 OA
BRANCH  21  25
ATOM     25  O   UNL     1      27.836   3.093  54.024  0.00  0.00    +0.000 OA
ATOM     26  H   UNL     1      27.175   3.677  53.709  0.00  0.00    +0.000 HD
ENDBRANCH  21  25
ENDBRANCH  15  16
ENDBRANCH  14  15
ENDBRANCH   1  14
TORSDOF 9
ENDMDL
MODEL 3
REMARK VINA RESULT:    -6.569      1.231      1.842
REMARK INTER + INTRA:         -11.754
REMARK INTER:                  -9.554
REMARK INTRA:                  -2.200
REMARK UNBOUND:                -1.921
REMARK  Name = 
REMARK  10 active torsions:
REMARK  status: ('A' for Active; 'I' for Inactive)
REMARK    1  A    between atoms: C_1  and  O_2
REMARK    2  A    between atoms: O_2  and  C_3
REMARK    3  A    between atoms: C_3  and  C_5
REMARK    4  A    between atoms: C_8  and  O_9
REMARK    5  A    between atoms: O_9  and  C_10
REMARK    6  A    between atoms: C_10  and  C_11
REMARK    7  A    between atoms: C_11  and  C_12
REMARK    8  A    between atoms: C_12  and  O_13
REMARK    9  A    between atoms: O_13  and  C_14
REMARK   10  A    between atoms: C_19  and  O_20
REMARK                            x       y       z     vdW  Elec       q    Type
REMARK                         _______ _______ _______ _____ _____    ______ ____
ROOT
ATOM      1  C   UNL     1      21.881   5.262  50.843  0.00  0.00    +0.000 C 
ENDROOT
BRANCH   1   2
ATOM      2  C   UNL     1      23.170   5.041  51.646  0.00  0.00    +0.000 C 
BRANCH   2   3
ATOM      3  O   UNL     1      24.178   4.286  50.961  0.00  0.00    +0.000 OA
BRANCH   3   7
ATOM      4  C   UNL     1      25.970   1.059  53.005  0.00  0.00    +0.000 A 
ATOM      5  C   UNL     1      25.070   1.889  53.682  0.00  0.00    +0.000 A 
ATOM      6  C   UNL     1      24.484   2.990  53.041  0.00  0.00    +0.000 A 
ATOM      7  C   UNL     1      24.770   3.280  51.704  0.00  0.00    +0.000 A 
ATOM      8  C   UNL     1      25.716   2.483  51.044  0.00  0.00    +0.000 A 
ATOM      9  C   UNL     1      26.313   1.377  51.687  0.00  0.00    +0.000 A 
BRANCH   4  10
ATOM     10  C   UNL     1      26.482  -0.141  53.735  0.00  0.00    +0.000 C 
ATOM     11  O   UNL     1      26.356  -1.282  53.304  0.00  0.00    +0.000 OA
BRANCH  10  13
ATOM     12  C   UNL     1      28.549   0.166  54.774  0.00  0.00    +0.000 C 
ATOM     13  O   UNL     1      27.117   0.201  54.879  0.00  0.00    +0.000 OA
ENDBRANCH  10  13
ENDBRANCH   4  10
ENDBRANCH   3   7
ENDBRANCH   2   3
ENDBRANCH   1   2
BRANCH   1  14
ATOM     14  C   UNL     1      20.627   4.566  51.372  0.00  0.00    +0.000 C 
BRANCH  14  15
ATOM     15  O   UNL     1      20.534   3.235  50.814  0.00  0.00    +0.000 OA
BRANCH  15  16
ATOM     16  C   UNL     1      20.995   2.172  51.555  0.00  0.00    +0.000 A 
ATOM     17  C   UNL     1      20.592   1.863  52.860  0.00  0.00    +0.000 A 
ATOM     18  C   UNL     1      21.152   0.746  53.451  0.00  0.00    +0.000 A 
ATOM     19  C   UNL     1      22.129  -0.035  52.837  0.00  0.00    +0.000 A 
ATOM     20  C   UNL     1      22.526   0.231  51.546  0.00  0.00    +0.000 A 
ATOM     21  C   UNL     1      21.924   1.319  50.907  0.00  0.00    +0.000 A 
ATOM     22  C   UNL     1      22.582  -1.063  53.806  0.00  0.00    +0.000 C 
ATOM     23  C   UNL     1      21.318  -1.087  54.661  0.00  0.00    +0.000 C 
ATOM     24  O   UNL     1      20.787   0.264  54.689  0.00  0.00    +0.000 OA
BRANCH  21  25
ATOM     25  O   UNL     1      22.258   1.531  49.594  0.00  0.00    +0.000 OA
ATOM     26  H   UNL     1      22.111   2.368  49.202  0.00  0.00    +0.000 HD
ENDBRANCH  21  25
ENDBRANCH  15  16
ENDBRANCH  14  15
ENDBRANCH   1  14
TORSDOF 9
ENDMDL
MODEL 4
REMARK VINA RESULT:    -6.472      1.757      5.150
REMARK INTER + INTRA:         -11.609
REMARK INTER:                  -9.885
REMARK INTRA:                  -1.724
REMARK UNBOUND:                -1.921
REMARK  Name = 
REMARK  10 active torsions:
REMARK  status: ('A' for Active; 'I' for Inactive)
REMARK    1  A    between atoms: C_1  and  O_2
REMARK    2  A    between atoms: O_2  and  C_3
REMARK    3  A    between atoms: C_3  and  C_5
REMARK    4  A    between atoms: C_8  and  O_9
REMARK    5  A    between atoms: O_9  and  C_10
REMARK    6  A    between atoms: C_10  and  C_11
REMARK    7  A    between atoms: C_11  and  C_12
REMARK    8  A    between atoms: C_12  and  O_13
REMARK    9  A    between atoms: O_13  and  C_14
REMARK   10  A    between atoms: C_19  and  O_20
REMARK                            x       y       z     vdW  Elec       q    Type
REMARK                         _______ _______ _______ _____ _____    ______ ____
ROOT
ATOM      1  C   UNL     1      27.159   0.268  53.493  0.00  0.00    +0.000 C 
ENDROOT
BRANCH   1   2
ATOM      2  C   UNL     1      26.794   0.681  52.060  0.00  0.00    +0.000 C 
BRANCH   2   3
ATOM      3  O   UNL     1      26.763   2.097  51.838  0.00  0.00    +0.000 OA
BRANCH   3   7
ATOM      4  C   UNL     1      22.845   3.653  51.636  0.00  0.00    +0.000 A 
ATOM      5  C   UNL     1      23.470   3.203  50.467  0.00  0.00    +0.000 A 
ATOM      6  C   UNL     1      24.783   2.713  50.495  0.00  0.00    +0.000 A 
ATOM      7  C   UNL     1      25.500   2.646  51.693  0.00  0.00    +0.000 A 
ATOM      8  C   UNL     1      24.896   3.150  52.853  0.00  0.00    +0.000 A 
ATOM      9  C   UNL     1      23.576   3.651  52.828  0.00  0.00    +0.000 A 
BRANCH   4  10
ATOM     10  C   UNL     1      21.416   4.079  51.533  0.00  0.00    +0.000 C 
ATOM     11  O   UNL     1      20.539   3.634  52.264  0.00  0.00    +0.000 OA
BRANCH  10  13
ATOM     12  C   UNL     1      21.629   6.340  50.995  0.00  0.00    +0.000 C 
ATOM     13  O   UNL     1      21.241   5.021  50.578  0.00  0.00    +0.000 OA
ENDBRANCH  10  13
ENDBRANCH   4  10
ENDBRANCH   3   7
ENDBRANCH   2   3
ENDBRANCH   1   2
BRANCH   1  14
ATOM     14  C   UNL     1      26.006   0.214  54.495  0.00  0.00    +0.000 C 
BRANCH  14  15
ATOM     15  O   UNL     1      25.150  -0.912  54.195  0.00  0.00    +0.000 OA
BRANCH  15  16
ATOM     16  C   UNL     1      23.826  -0.679  53.902  0.00  0.00    +0.000 A 
ATOM     17  C   UNL     1      23.353  -0.094  52.721  0.00  0.00    +0.000 A 
ATOM     18  C   UNL     1      21.984   0.054  52.589  0.00  0.00    +0.000 A 
ATOM     19  C   UNL     1      21.078  -0.292  53.589  0.00  0.00    +0.000 A 
ATOM     20  C   UNL     1      21.513  -0.892  54.749  0.00  0.00    +0.000 A 
ATOM     21  C   UNL     1      22.889  -1.108  54.876  0.00  0.00    +0.000 A 
ATOM     22  C   UNL     1      19.722   0.118  53.151  0.00  0.00    +0.000 C 
ATOM     23  C   UNL     1      19.993   0.098  51.649  0.00  0.00    +0.000 C 
ATOM     24  O   UNL     1      21.366   0.524  51.450  0.00  0.00    +0.000 OA
BRANCH  21  25
ATOM     25  O   UNL     1      23.311  -1.781  55.993  0.00  0.00    +0.000 OA
ATOM     26  H   UNL     1      23.006  -2.651  56.159  0.00  0.00    +0.000 HD
ENDBRANCH  21  25
ENDBRANCH  15  16
ENDBRANCH  14  15
ENDBRANCH   1  14
TORSDOF 9
ENDMDL
MODEL 5
REMARK VINA RESULT:    -6.452      1.598      2.453
REMARK INTER + INTRA:         -11.579
REMARK INTER:                 -10.031
REMARK INTRA:                  -1.548
REMARK UNBOUND:                -1.921
REMARK  Name = 
REMARK  10 active torsions:
REMARK  status: ('A' for Active; 'I' for Inactive)
REMARK    1  A    between atoms: C_1  and  O_2
REMARK    2  A    between atoms: O_2  and  C_3
REMARK    3  A    between atoms: C_3  and  C_5
REMARK    4  A    between atoms: C_8  and  O_9
REMARK    5  A    between atoms: O_9  and  C_10
REMARK    6  A    between atoms: C_10  and  C_11
REMARK    7  A    between atoms: C_11  and  C_12
REMARK    8  A    between atoms: C_12  and  O_13
REMARK    9  A    between atoms: O_13  and  C_14
REMARK   10  A    between atoms: C_19  and  O_20
REMARK                            x       y       z     vdW  Elec       q    Type
REMARK                         _______ _______ _______ _____ _____    ______ ____
ROOT
ATOM      1  C   UNL     1      20.644   2.678  50.829  0.00  0.00    +0.000 C 
ENDROOT
BRANCH   1   2
ATOM      2  C   UNL     1      21.721   3.309  51.723  0.00  0.00    +0.000 C 
BRANCH   2   3
ATOM      3  O   UNL     1      22.927   3.673  51.037  0.00  0.00    +0.000 OA
BRANCH   3   7
ATOM      4  C   UNL     1      26.468   2.245  52.833  0.00  0.00    +0.000 A 
ATOM      5  C   UNL     1      26.341   2.216  51.440  0.00  0.00    +0.000 A 
ATOM      6  C   UNL     1      25.164   2.651  50.814  0.00  0.00    +0.000 A 
ATOM      7  C   UNL     1      24.090   3.140  51.564  0.00  0.00    +0.000 A 
ATOM      8  C   UNL     1      24.195   3.113  52.961  0.00  0.00    +0.000 A 
ATOM      9  C   UNL     1      25.376   2.671  53.596  0.00  0.00    +0.000 A 
BRANCH   4  10
ATOM     10  C   UNL     1      27.786   1.844  53.413  0.00  0.00    +0.000 C 
ATOM     11  O   UNL     1      28.646   2.660  53.727  0.00  0.00    +0.000 OA
BRANCH  10  13
ATOM     12  C   UNL     1      28.528   0.115  54.792  0.00  0.00    +0.000 C 
ATOM     13  O   UNL     1      27.878   0.505  53.572  0.00  0.00    +0.000 OA
ENDBRANCH  10  13
ENDBRANCH   4  10
ENDBRANCH   3   7
ENDBRANCH   2   3
ENDBRANCH   1   2
BRANCH   1  14
ATOM     14  C   UNL     1      20.868   1.220  50.427  0.00  0.00    +0.000 C 
BRANCH  14  15
ATOM     15  O   UNL     1      20.349   0.345  51.455  0.00  0.00    +0.000 OA
BRANCH  15  16
ATOM     16  C   UNL     1      21.196  -0.079  52.453  0.00  0.00    +0.000 A 
ATOM     17  C   UNL     1      22.589  -0.168  52.345  0.00  0.00    +0.000 A 
ATOM     18  C   UNL     1      23.287  -0.604  53.457  0.00  0.00    +0.000 A 
ATOM     19  C   UNL     1      22.667  -1.008  54.637  0.00  0.00    +0.000 A 
ATOM     20  C   UNL     1      21.302  -0.906  54.780  0.00  0.00    +0.000 A 
ATOM     21  C   UNL     1      20.584  -0.408  53.689  0.00  0.00    +0.000 A 
ATOM     22  C   UNL     1      23.710  -1.525  55.557  0.00  0.00    +0.000 C 
ATOM     23  C   UNL     1      24.886  -0.754  54.963  0.00  0.00    +0.000 C 
ATOM     24  O   UNL     1      24.662  -0.655  53.533  0.00  0.00    +0.000 OA
BRANCH  21  25
ATOM     25  O   UNL     1      19.236  -0.228  53.863  0.00  0.00    +0.000 OA
ATOM     26  H   UNL     1      18.827   0.563  53.573  0.00  0.00    +0.000 HD
ENDBRANCH  21  25
ENDBRANCH  15  16
ENDBRANCH  14  15
ENDBRANCH   1  14
TORSDOF 9
ENDMDL
MODEL 6
REMARK VINA RESULT:    -6.345      2.583      6.105
REMARK INTER + INTRA:         -11.419
REMARK INTER:                 -10.543
REMARK INTRA:                  -0.877
REMARK UNBOUND:                -1.921
REMARK  Name = 
REMARK  10 active torsions:
REMARK  status: ('A' for Active; 'I' for Inactive)
REMARK    1  A    between atoms: C_1  and  O_2
REMARK    2  A    between atoms: O_2  and  C_3
REMARK    3  A    between atoms: C_3  and  C_5
REMARK    4  A    between atoms: C_8  and  O_9
REMARK    5  A    between atoms: O_9  and  C_10
REMARK    6  A    between atoms: C_10  and  C_11
REMARK    7  A    between atoms: C_11  and  C_12
REMARK    8  A    between atoms: C_12  and  O_13
REMARK    9  A    between atoms: O_13  and  C_14
REMARK   10  A    between atoms: C_19  and  O_20
REMARK                            x       y       z     vdW  Elec       q    Type
REMARK                         _______ _______ _______ _____ _____    ______ ____
ROOT
ATOM      1  C   UNL     1      22.564   2.198  50.424  0.00  0.00    +0.000 C 
ENDROOT
BRANCH   1   2
ATOM      2  C   UNL     1      22.428   2.711  51.865  0.00  0.00    +0.000 C 
BRANCH   2   3
ATOM      3  O   UNL     1      22.652   1.719  52.875  0.00  0.00    +0.000 OA
BRANCH   3   7
ATOM      4  C   UNL     1      26.605   0.492  53.695  0.00  0.00    +0.000 A 
ATOM      5  C   UNL     1      26.316   1.856  53.581  0.00  0.00    +0.000 A 
ATOM      6  C   UNL     1      25.020   2.295  53.276  0.00  0.00    +0.000 A 
ATOM      7  C   UNL     1      23.977   1.383  53.090  0.00  0.00    +0.000 A 
ATOM      8  C   UNL     1      24.279   0.015  53.147  0.00  0.00    +0.000 A 
ATOM      9  C   UNL     1      25.584  -0.431  53.448  0.00  0.00    +0.000 A 
BRANCH   4  10
ATOM     10  C   UNL     1      27.991   0.114  54.107  0.00  0.00    +0.000 C 
ATOM     11  O   UNL     1      28.507   0.520  55.143  0.00  0.00    +0.000 OA
BRANCH  10  13
ATOM     12  C   UNL     1      29.879  -1.163  53.610  0.00  0.00    +0.000 C 
ATOM     13  O   UNL     1      28.561  -0.740  53.227  0.00  0.00    +0.000 OA
ENDBRANCH  10  13
ENDBRANCH   4  10
ENDBRANCH   3   7
ENDBRANCH   2   3
ENDBRANCH   1   2
BRANCH   1  14
ATOM     14  C   UNL     1      23.560   2.940  49.534  0.00  0.00    +0.000 C 
BRANCH  14  15
ATOM     15  O   UNL     1      24.366   3.831  50.339  0.00  0.00    +0.000 OA
BRANCH  15  16
ATOM     16  C   UNL     1      25.315   4.610  49.717  0.00  0.00    +0.000 A 
ATOM     17  C   UNL     1      25.138   5.944  49.335  0.00  0.00    +0.000 A 
ATOM     18  C   UNL     1      26.206   6.581  48.730  0.00  0.00    +0.000 A 
ATOM     19  C   UNL     1      27.409   5.941  48.435  0.00  0.00    +0.000 A 
ATOM     20  C   UNL     1      27.619   4.638  48.823  0.00  0.00    +0.000 A 
ATOM     21  C   UNL     1      26.573   3.996  49.492  0.00  0.00    +0.000 A 
ATOM     22  C   UNL     1      28.268   6.888  47.683  0.00  0.00    +0.000 C 
ATOM     23  C   UNL     1      27.631   8.174  48.200  0.00  0.00    +0.000 C 
ATOM     24  O   UNL     1      26.214   7.914  48.384  0.00  0.00    +0.000 OA
BRANCH  21  25
ATOM     25  O   UNL     1      26.816   2.727  49.951  0.00  0.00    +0.000 OA
ATOM     26  H   UNL     1      27.279   2.600  50.755  0.00  0.00    +0.000 HD
ENDBRANCH  21  25
ENDBRANCH  15  16
ENDBRANCH  14  15
ENDBRANCH   1  14
TORSDOF 9
ENDMDL
MODEL 7
REMARK VINA RESULT:    -6.120      1.672      5.896
REMARK INTER + INTRA:         -11.082
REMARK INTER:                  -9.838
REMARK INTRA:                  -1.244
REMARK UNBOUND:                -1.921
REMARK  Name = 
REMARK  10 active torsions:
REMARK  status: ('A' for Active; 'I' for Inactive)
REMARK    1  A    between atoms: C_1  and  O_2
REMARK    2  A    between atoms: O_2  and  C_3
REMARK    3  A    between atoms: C_3  and  C_5
REMARK    4  A    between atoms: C_8  and  O_9
REMARK    5  A    between atoms: O_9  and  C_10
REMARK    6  A    between atoms: C_10  and  C_11
REMARK    7  A    between atoms: C_11  and  C_12
REMARK    8  A    between atoms: C_12  and  O_13
REMARK    9  A    between atoms: O_13  and  C_14
REMARK   10  A    between atoms: C_19  and  O_20
REMARK                            x       y       z     vdW  Elec       q    Type
REMARK                         _______ _______ _______ _____ _____    ______ ____
ROOT
ATOM      1  C   UNL     1      21.982  -1.397  53.649  0.00  0.00    +0.000 C 
ENDROOT
BRANCH   1   2
ATOM      2  C   UNL     1      20.638  -0.659  53.731  0.00  0.00    +0.000 C 
BRANCH   2   3
ATOM      3  O   UNL     1      20.155  -0.159  52.477  0.00  0.00    +0.000 OA
BRANCH   3   7
ATOM      4  C   UNL     1      22.557   2.860  50.768  0.00  0.00    +0.000 A 
ATOM      5  C   UNL     1      21.853   3.124  51.948  0.00  0.00    +0.000 A 
ATOM      6  C   UNL     1      21.019   2.155  52.523  0.00  0.00    +0.000 A 
ATOM      7  C   UNL     1      20.879   0.891  51.941  0.00  0.00    +0.000 A 
ATOM      8  C   UNL     1      21.538   0.647  50.727  0.00  0.00    +0.000 A 
ATOM      9  C   UNL     1      22.373   1.623  50.142  0.00  0.00    +0.000 A 
BRANCH   4  10
ATOM     10  C   UNL     1      23.488   3.918  50.270  0.00  0.00    +0.000 C 
ATOM     11  O   UNL     1      23.389   5.095  50.599  0.00  0.00    +0.000 OA
BRANCH  10  13
ATOM     12  C   UNL     1      25.781   3.658  49.928  0.00  0.00    +0.000 C 
ATOM     13  O   UNL     1      24.445   3.405  49.465  0.00  0.00    +0.000 OA
ENDBRANCH  10  13
ENDBRANCH   4  10
ENDBRANCH   3   7
ENDBRANCH   2   3
ENDBRANCH   1   2
BRANCH   1  14
ATOM     14  C   UNL     1      23.180  -0.693  54.285  0.00  0.00    +0.000 C 
BRANCH  14  15
ATOM     15  O   UNL     1      23.926   0.017  53.270  0.00  0.00    +0.000 OA
BRANCH  15  16
ATOM     16  C   UNL     1      25.282   0.175  53.433  0.00  0.00    +0.000 A 
ATOM     17  C   UNL     1      26.218  -0.866  53.458  0.00  0.00    +0.000 A 
ATOM     18  C   UNL     1      27.548  -0.524  53.619  0.00  0.00    +0.000 A 
ATOM     19  C   UNL     1      27.981   0.786  53.817  0.00  0.00    +0.000 A 
ATOM     20  C   UNL     1      27.086   1.831  53.772  0.00  0.00    +0.000 A 
ATOM     21  C   UNL     1      25.744   1.511  53.546  0.00  0.00    +0.000 A 
ATOM     22  C   UNL     1      29.441   0.761  54.075  0.00  0.00    +0.000 C 
ATOM     23  C   UNL     1      29.735  -0.560  53.369  0.00  0.00    +0.000 C 
ATOM     24  O   UNL     1      28.588  -1.426  53.571  0.00  0.00    +0.000 OA
BRANCH  21  25
ATOM     25  O   UNL     1      24.869   2.558  53.417  0.00  0.00    +0.000 OA
ATOM     26  H   UNL     1      25.127   3.419  53.679  0.00  0.00    +0.000 HD
ENDBRANCH  21  25
ENDBRANCH  15  16
ENDBRANCH  14  15
ENDBRANCH   1  14
TORSDOF 9
ENDMDL
MODEL 8
REMARK VINA RESULT:    -5.988      2.866      7.622
REMARK INTER + INTRA:         -10.884
REMARK INTER:                 -10.303
REMARK INTRA:                  -0.581
REMARK UNBOUND:                -1.921
REMARK  Name = 
REMARK  10 active torsions:
REMARK  status: ('A' for Active; 'I' for Inactive)
REMARK    1  A    between atoms: C_1  and  O_2
REMARK    2  A    between atoms: O_2  and  C_3
REMARK    3  A    between atoms: C_3  and  C_5
REMARK    4  A    between atoms: C_8  and  O_9
REMARK    5  A    between atoms: O_9  and  C_10
REMARK    6  A    between atoms: C_10  and  C_11
REMARK    7  A    between atoms: C_11  and  C_12
REMARK    8  A    between atoms: C_12  and  O_13
REMARK    9  A    between atoms: O_13  and  C_14
REMARK   10  A    between atoms: C_19  and  O_20
REMARK                            x       y       z     vdW  Elec       q    Type
REMARK                         _______ _______ _______ _____ _____    ______ ____
ROOT
ATOM      1  C   UNL     1      23.505   1.799  52.855  0.00  0.00    +0.000 C 
ENDROOT
BRANCH   1   2
ATOM      2  C   UNL     1      22.758   0.728  52.048  0.00  0.00    +0.000 C 
BRANCH   2   3
ATOM      3  O   UNL     1      22.066  -0.244  52.843  0.00  0.00    +0.000 OA
BRANCH   3   7
ATOM      4  C   UNL     1      17.913  -0.222  52.095  0.00  0.00    +0.000 A 
ATOM      5  C   UNL     1      18.407  -0.884  53.224  0.00  0.00    +0.000 A 
ATOM      6  C   UNL     1      19.784  -0.940  53.483  0.00  0.00    +0.000 A 
ATOM      7  C   UNL     1      20.702  -0.322  52.628  0.00  0.00    +0.000 A 
ATOM      8  C   UNL     1      20.211   0.291  51.466  0.00  0.00    +0.000 A 
ATOM      9  C   UNL     1      18.826   0.344  51.199  0.00  0.00    +0.000 A 
BRANCH   4  10
ATOM     10  C   UNL     1      16.429  -0.137  51.940  0.00  0.00    +0.000 C 
ATOM     11  O   UNL     1      15.717  -1.130  51.843  0.00  0.00    +0.000 OA
BRANCH  10  13
ATOM     12  C   UNL     1      14.821   1.338  52.766  0.00  0.00    +0.000 C 
ATOM     13  O   UNL     1      15.994   1.143  51.961  0.00  0.00    +0.000 OA
ENDBRANCH  10  13
ENDBRANCH   4  10
ENDBRANCH   3   7
ENDBRANCH   2   3
ENDBRANCH   1   2
BRANCH   1  14
ATOM     14  C   UNL     1      24.852   2.251  52.293  0.00  0.00    +0.000 C 
BRANCH  14  15
ATOM     15  O   UNL     1      25.835   2.293  53.354  0.00  0.00    +0.000 OA
BRANCH  15  16
ATOM     16  C   UNL     1      26.778   1.294  53.424  0.00  0.00    +0.000 A 
ATOM     17  C   UNL     1      26.541  -0.058  53.149  0.00  0.00    +0.000 A 
ATOM     18  C   UNL     1      27.612  -0.927  53.257  0.00  0.00    +0.000 A 
ATOM     19  C   UNL     1      28.878  -0.529  53.682  0.00  0.00    +0.000 A 
ATOM     20  C   UNL     1      29.145   0.798  53.933  0.00  0.00    +0.000 A 
ATOM     21  C   UNL     1      28.091   1.701  53.768  0.00  0.00    +0.000 A 
ATOM     22  C   UNL     1      29.732  -1.736  53.797  0.00  0.00    +0.000 C 
ATOM     23  C   UNL     1      28.961  -2.608  52.809  0.00  0.00    +0.000 C 
ATOM     24  O   UNL     1      27.556  -2.264  52.930  0.00  0.00    +0.000 OA
BRANCH  21  25
ATOM     25  O   UNL     1      28.381   3.031  53.937  0.00  0.00    +0.000 OA
ATOM     26  H   UNL     1      28.441   3.391  54.800  0.00  0.00    +0.000 HD
ENDBRANCH  21  25
ENDBRANCH  15  16
ENDBRANCH  14  15
ENDBRANCH   1  14
TORSDOF 9
ENDMDL
MODEL 9
REMARK VINA RESULT:    -5.895      1.763      4.201
REMARK INTER + INTRA:         -10.745
REMARK INTER:                  -9.575
REMARK INTRA:                  -1.170
REMARK UNBOUND:                -1.921
REMARK  Name = 
REMARK  10 active torsions:
REMARK  status: ('A' for Active; 'I' for Inactive)
REMARK    1  A    between atoms: C_1  and  O_2
REMARK    2  A    between atoms: O_2  and  C_3
REMARK    3  A    between atoms: C_3  and  C_5
REMARK    4  A    between atoms: C_8  and  O_9
REMARK    5  A    between atoms: O_9  and  C_10
REMARK    6  A    between atoms: C_10  and  C_11
REMARK    7  A    between atoms: C_11  and  C_12
REMARK    8  A    between atoms: C_12  and  O_13
REMARK    9  A    between atoms: O_13  and  C_14
REMARK   10  A    between atoms: C_19  and  O_20
REMARK                            x       y       z     vdW  Elec       q    Type
REMARK                         _______ _______ _______ _____ _____    ______ ____
ROOT
ATOM      1  C   UNL     1      26.296   3.202  49.756  0.00  0.00    +0.000 C 
ENDROOT
BRANCH   1   2
ATOM      2  C   UNL     1      26.807   2.784  51.143  0.00  0.00    +0.000 C 
BRANCH   2   3
ATOM      3  O   UNL     1      26.828   1.368  51.368  0.00  0.00    +0.000 OA
BRANCH   3   7
ATOM      4  C   UNL     1      23.819  -0.369  53.763  0.00  0.00    +0.000 A 
ATOM      5  C   UNL     1      23.486   0.659  52.874  0.00  0.00    +0.000 A 
ATOM      6  C   UNL     1      24.468   1.280  52.089  0.00  0.00    +0.000 A 
ATOM      7  C   UNL     1      25.806   0.880  52.162  0.00  0.00    +0.000 A 
ATOM      8  C   UNL     1      26.148  -0.109  53.095  0.00  0.00    +0.000 A 
ATOM      9  C   UNL     1      25.164  -0.733  53.891  0.00  0.00    +0.000 A 
BRANCH   4  10
ATOM     10  C   UNL     1      22.700  -1.034  54.497  0.00  0.00    +0.000 C 
ATOM     11  O   UNL     1      22.851  -1.565  55.592  0.00  0.00    +0.000 OA
BRANCH  10  13
ATOM     12  C   UNL     1      20.587  -0.047  54.444  0.00  0.00    +0.000 C 
ATOM     13  O   UNL     1      21.531  -0.936  53.826  0.00  0.00    +0.000 OA
ENDBRANCH  10  13
ENDBRANCH   4  10
ENDBRANCH   3   7
ENDBRANCH   2   3
ENDBRANCH   1   2
BRANCH   1  14
ATOM     14  C   UNL     1      25.093   4.143  49.736  0.00  0.00    +0.000 C 
BRANCH  14  15
ATOM     15  O   UNL     1      24.088   3.634  48.829  0.00  0.00    +0.000 OA
BRANCH  15  16
ATOM     16  C   UNL     1      22.959   3.048  49.352  0.00  0.00    +0.000 A 
ATOM     17  C   UNL     1      22.352   3.406  50.562  0.00  0.00    +0.000 A 
ATOM     18  C   UNL     1      21.210   2.717  50.929  0.00  0.00    +0.000 A 
ATOM     19  C   UNL     1      20.685   1.660  50.189  0.00  0.00    +0.000 A 
ATOM     20  C   UNL     1      21.246   1.304  48.984  0.00  0.00    +0.000 A 
ATOM     21  C   UNL     1      22.364   2.031  48.563  0.00  0.00    +0.000 A 
ATOM     22  C   UNL     1      19.543   1.086  50.942  0.00  0.00    +0.000 C 
ATOM     23  C   UNL     1      19.205   2.334  51.753  0.00  0.00    +0.000 C 
ATOM     24  O   UNL     1      20.453   3.017  52.040  0.00  0.00    +0.000 OA
BRANCH  21  25
ATOM     25  O   UNL     1      22.869   1.731  47.325  0.00  0.00    +0.000 OA
ATOM     26  H   UNL     1      22.441   2.048  46.555  0.00  0.00    +0.000 HD
ENDBRANCH  21  25
ENDBRANCH  15  16
ENDBRANCH  14  15
ENDBRANCH   1  14
TORSDOF 9
ENDMDL
