MODEL 1
REMARK VINA RESULT:    -7.963      0.000      0.000
REMARK INTER + INTRA:          -9.753
REMARK INTER:                  -9.359
REMARK INTRA:                  -0.393
REMARK UNBOUND:                -0.393
REMARK  Name = 
REMARK  5 active torsions:
REMARK  status: ('A' for Active; 'I' for Inactive)
REMARK    1  A    between atoms: C_1  and  N_2
REMARK    2  A    between atoms: N_2  and  C_3
REMARK    3  A    between atoms: N_2  and  C_4
REMARK    4  A    between atoms: C_9  and  S_10
REMARK    5  A    between atoms: S_10  and  N_13
REMARK                            x       y       z     vdW  Elec       q    Type
REMARK                         _______ _______ _______ _____ _____    ______ ____
ROOT
ATOM      1  C   UNL     1      26.212   0.068  53.397  0.00  0.00    +0.000 A 
ATOM      2  C   UNL     1      26.279   1.026  52.367  0.00  0.00    +0.000 A 
ATOM      3  C   UNL     1      25.149   1.682  51.896  0.00  0.00    +0.000 A 
ATOM      4  C   UNL     1      23.895   1.317  52.363  0.00  0.00    +0.000 A 
ATOM      5  C   UNL     1      23.728   0.290  53.315  0.00  0.00    +0.000 A 
ATOM      6  C   UNL     1      22.455  -0.191  53.738  0.00  0.00    +0.000 A 
ATOM      7  C   UNL     1      22.334  -1.036  54.847  0.00  0.00    +0.000 A 
ATOM      8  C   UNL     1      23.467  -1.445  55.526  0.00  0.00    +0.000 A 
ATOM      9  C   UNL     1      24.724  -1.078  55.049  0.00  0.00    +0.000 A 
ATOM     10  C   UNL     1      24.908  -0.262  53.910  0.00  0.00    +0.000 A 
ENDROOT
BRANCH   1  12
ATOM     11  C   UNL     1      28.247   0.371  54.754  0.00  0.00    +0.000 C 
ATOM     12  N   UNL     1      27.406  -0.495  53.919  0.00  0.00    +0.000 N 
ATOM     13  C   UNL     1      28.163  -1.382  53.024  0.00  0.00    +0.000 C 
ENDBRANCH   1  12
BRANCH   6  14
ATOM     14  S   UNL     1      20.921   0.220  52.903  0.00  0.00    +0.000 S 
ATOM     15  O   UNL     1      21.191   0.241  51.476  0.00  0.00    +0.000 OA
ATOM     16  O   UNL     1      19.904  -0.672  53.424  0.00  0.00    +0.000 OA
BRANCH  14  17
ATOM     17  N   UNL     1      20.466   1.757  53.351  0.00  0.00    +0.000 N 
ATOM     18  C   UNL     1      20.103   2.647  52.355  0.00  0.00    +0.000 A 
ATOM     19  N   UNL     1      18.885   2.587  51.814  0.00  0.00    +0.000 NA
ATOM     20  C   UNL     1      18.591   3.591  50.952  0.00  0.00    +0.000 A 
ATOM     21  C   UNL     1      19.480   4.587  50.603  0.00  0.00    +0.000 A 
ATOM     22 CL   UNL     1      19.090   5.826  49.491  0.00  0.00    +0.000 Cl
ATOM     23  C   UNL     1      20.706   4.524  51.221  0.00  0.00    +0.000 A 
ATOM     24  N   UNL     1      21.032   3.579  52.128  0.00  0.00    +0.000 NA
ATOM     25  H   UNL     1      20.455   2.025  54.298  0.00  0.00    +0.000 HD
ENDBRANCH  14  17
ENDBRANCH   6  14
TORSDOF 3
ENDMDL
MODEL 2
REMARK VINA RESULT:    -7.789      3.787      7.250
REMARK INTER + INTRA:          -9.548
REMARK INTER:                  -9.453
REMARK INTRA:                  -0.095
REMARK UNBOUND:                -0.393
REMARK  Name = 
REMARK  5 active torsions:
REMARK  status: ('A' for Active; 'I' for Inactive)
REMARK    1  A    between atoms: C_1  and  N_2
REMARK    2  A    between atoms: N_2  and  C_3
REMARK    3  A    between atoms: N_2  and  C_4
REMARK    4  A    between atoms: C_9  and  S_10
REMARK    5  A    between atoms: S_10  and  N_13
REMARK                            x       y       z     vdW  Elec       q    Type
REMARK                         _______ _______ _______ _____ _____    ______ ____
ROOT
ATOM      1  C   UNL     1      20.231  -0.129  52.912  0.00  0.00    +0.000 A 
ATOM      2  C   UNL     1      21.119  -1.154  53.291  0.00  0.00    +0.000 A 
ATOM      3  C   UNL     1      22.474  -0.921  53.484  0.00  0.00    +0.000 A 
ATOM      4  C   UNL     1      23.008   0.325  53.194  0.00  0.00    +0.000 A 
ATOM      5  C   UNL     1      22.209   1.379  52.704  0.00  0.00    +0.000 A 
ATOM      6  C   UNL     1      22.734   2.637  52.289  0.00  0.00    +0.000 A 
ATOM      7  C   UNL     1      21.888   3.725  52.037  0.00  0.00    +0.000 A 
ATOM      8  C   UNL     1      20.519   3.573  52.156  0.00  0.00    +0.000 A 
ATOM      9  C   UNL     1      19.989   2.317  52.445  0.00  0.00    +0.000 A 
ATOM     10  C   UNL     1      20.792   1.174  52.666  0.00  0.00    +0.000 A 
ENDROOT
BRANCH   1  12
ATOM     11  C   UNL     1      18.316  -1.495  53.648  0.00  0.00    +0.000 C 
ATOM     12  N   UNL     1      18.838  -0.392  52.834  0.00  0.00    +0.000 N 
ATOM     13  C   UNL     1      18.221  -0.285  51.504  0.00  0.00    +0.000 C 
ENDBRANCH   1  12
BRANCH   6  14
ATOM     14  S   UNL     1      24.484   2.939  52.041  0.00  0.00    +0.000 S 
ATOM     15  O   UNL     1      24.981   1.919  51.135  0.00  0.00    +0.000 OA
ATOM     16  O   UNL     1      24.627   4.338  51.689  0.00  0.00    +0.000 OA
BRANCH  14  17
ATOM     17  N   UNL     1      25.269   2.744  53.496  0.00  0.00    +0.000 N 
ATOM     18  C   UNL     1      26.391   1.933  53.529  0.00  0.00    +0.000 A 
ATOM     19  N   UNL     1      27.568   2.400  53.108  0.00  0.00    +0.000 NA
ATOM     20  C   UNL     1      28.620   1.571  53.316  0.00  0.00    +0.000 A 
ATOM     21  C   UNL     1      28.508   0.315  53.874  0.00  0.00    +0.000 A 
ATOM     22 CL   UNL     1      29.851  -0.720  54.099  0.00  0.00    +0.000 Cl
ATOM     23  C   UNL     1      27.237  -0.051  54.250  0.00  0.00    +0.000 A 
ATOM     24  N   UNL     1      26.164   0.757  54.118  0.00  0.00    +0.000 NA
ATOM     25  H   UNL     1      24.945   3.192  54.310  0.00  0.00    +0.000 HD
ENDBRANCH  14  17
ENDBRANCH   6  14
TORSDOF 3
ENDMDL
MODEL 3
REMARK VINA RESULT:    -7.766      4.954      7.835
REMARK INTER + INTRA:          -9.521
REMARK INTER:                  -9.424
REMARK INTRA:                  -0.097
REMARK UNBOUND:                -0.393
REMARK  Name = 
REMARK  5 active torsions:
REMARK  status: ('A' for Active; 'I' for Inactive)
REMARK    1  A    between atoms: C_1  and  N_2
REMARK    2  A    between atoms: N_2  and  C_3
REMARK    3  A    between atoms: N_2  and  C_4
REMARK    4  A    between atoms: C_9  and  S_10
REMARK    5  A    between atoms: S_10  and  N_13
REMARK                            x       y       z     vdW  Elec       q    Type
REMARK                         _______ _______ _______ _____ _____    ______ ____
ROOT
ATOM      1  C   UNL     1      26.416   6.296  49.112  0.00  0.00    +0.000 A 
ATOM      2  C   UNL     1      27.342   5.304  48.736  0.00  0.00    +0.000 A 
ATOM      3  C   UNL     1      27.176   3.971  49.087  0.00  0.00    +0.000 A 
ATOM      4  C   UNL     1      26.134   3.603  49.926  0.00  0.00    +0.000 A 
ATOM      5  C   UNL     1      25.224   4.551  50.439  0.00  0.00    +0.000 A 
ATOM      6  C   UNL     1      24.211   4.234  51.389  0.00  0.00    +0.000 A 
ATOM      7  C   UNL     1      23.190   5.145  51.686  0.00  0.00    +0.000 A 
ATOM      8  C   UNL     1      23.180   6.387  51.080  0.00  0.00    +0.000 A 
ATOM      9  C   UNL     1      24.231   6.752  50.241  0.00  0.00    +0.000 A 
ATOM     10  C   UNL     1      25.310   5.890  49.938  0.00  0.00    +0.000 A 
ENDROOT
BRANCH   1  12
ATOM     11  C   UNL     1      26.120   7.906  47.269  0.00  0.00    +0.000 C 
ATOM     12  N   UNL     1      26.571   7.625  48.636  0.00  0.00    +0.000 N 
ATOM     13  C   UNL     1      27.810   8.319  49.013  0.00  0.00    +0.000 C 
ENDBRANCH   1  12
BRANCH   6  14
ATOM     14  S   UNL     1      24.152   2.681  52.284  0.00  0.00    +0.000 S 
ATOM     15  O   UNL     1      22.811   2.534  52.820  0.00  0.00    +0.000 OA
ATOM     16  O   UNL     1      24.683   1.662  51.400  0.00  0.00    +0.000 OA
BRANCH  14  17
ATOM     17  N   UNL     1      25.202   2.770  53.573  0.00  0.00    +0.000 N 
ATOM     18  C   UNL     1      26.309   1.939  53.572  0.00  0.00    +0.000 A 
ATOM     19  N   UNL     1      27.384   2.253  52.846  0.00  0.00    +0.000 NA
ATOM     20  C   UNL     1      28.456   1.445  53.030  0.00  0.00    +0.000 A 
ATOM     21  C   UNL     1      28.452   0.344  53.861  0.00  0.00    +0.000 A 
ATOM     22 CL   UNL     1      29.813  -0.675  54.051  0.00  0.00    +0.000 Cl
ATOM     23  C   UNL     1      27.277   0.122  54.539  0.00  0.00    +0.000 A 
ATOM     24  N   UNL     1      26.199   0.926  54.436  0.00  0.00    +0.000 NA
ATOM     25  H   UNL     1      25.041   3.396  54.315  0.00  0.00    +0.000 HD
ENDBRANCH  14  17
ENDBRANCH   6  14
TORSDOF 3
ENDMDL
MODEL 4
REMARK VINA RESULT:    -7.752      2.185      2.668
REMARK INTER + INTRA:          -9.504
REMARK INTER:                  -9.188
REMARK INTRA:                  -0.316
REMARK UNBOUND:                -0.393
REMARK  Name = 
REMARK  5 active torsions:
REMARK  status: ('A' for Active; 'I' for Inactive)
REMARK    1  A    between atoms: C_1  and  N_2
REMARK    2  A    between atoms: N_2  and  C_3
REMARK    3  A    between atoms: N_2  and  C_4
REMARK    4  A    between atoms: C_9  and  S_10
REMARK    5  A    between atoms: S_10  and  N_13
REMARK                            x       y       z     vdW  Elec       q    Type
REMARK                         _______ _______ _______ _____ _____    ______ ____
ROOT
ATOM      1  C   UNL     1      26.280   0.110  52.680  0.00  0.00    +0.000 A 
ATOM      2  C   UNL     1      26.884   1.106  51.888  0.00  0.00    +0.000 A 
ATOM      3  C   UNL     1      26.192   2.235  51.470  0.00  0.00    +0.000 A 
ATOM      4  C   UNL     1      24.836   2.351  51.735  0.00  0.00    +0.000 A 
ATOM      5  C   UNL     1      24.127   1.347  52.428  0.00  0.00    +0.000 A 
ATOM      6  C   UNL     1      22.716   1.374  52.624  0.00  0.00    +0.000 A 
ATOM      7  C   UNL     1      22.094   0.488  53.513  0.00  0.00    +0.000 A 
ATOM      8  C   UNL     1      22.849  -0.454  54.186  0.00  0.00    +0.000 A 
ATOM      9  C   UNL     1      24.211  -0.567  53.912  0.00  0.00    +0.000 A 
ATOM     10  C   UNL     1      24.884   0.271  52.993  0.00  0.00    +0.000 A 
ENDROOT
BRANCH   1  12
ATOM     11  C   UNL     1      28.391  -0.653  53.699  0.00  0.00    +0.000 C 
ATOM     12  N   UNL     1      27.058  -0.970  53.174  0.00  0.00    +0.000 N 
ATOM     13  C   UNL     1      26.997  -2.227  52.414  0.00  0.00    +0.000 C 
ENDBRANCH   1  12
BRANCH   6  14
ATOM     14  S   UNL     1      21.625   2.507  51.764  0.00  0.00    +0.000 S 
ATOM     15  O   UNL     1      22.092   2.610  50.392  0.00  0.00    +0.000 OA
ATOM     16  O   UNL     1      20.268   2.069  52.025  0.00  0.00    +0.000 OA
BRANCH  14  17
ATOM     17  N   UNL     1      21.768   4.013  52.457  0.00  0.00    +0.000 N 
ATOM     18  C   UNL     1      22.093   5.081  51.638  0.00  0.00    +0.000 A 
ATOM     19  N   UNL     1      21.154   5.662  50.888  0.00  0.00    +0.000 NA
ATOM     20  C   UNL     1      21.553   6.781  50.236  0.00  0.00    +0.000 A 
ATOM     21  C   UNL     1      22.838   7.280  50.285  0.00  0.00    +0.000 A 
ATOM     22 CL   UNL     1      23.319   8.680  49.429  0.00  0.00    +0.000 Cl
ATOM     23  C   UNL     1      23.712   6.579  51.082  0.00  0.00    +0.000 A 
ATOM     24  N   UNL     1      23.354   5.491  51.797  0.00  0.00    +0.000 NA
ATOM     25  H   UNL     1      21.624   4.142  53.422  0.00  0.00    +0.000 HD
ENDBRANCH  14  17
ENDBRANCH   6  14
TORSDOF 3
ENDMDL
MODEL 5
REMARK VINA RESULT:    -7.602      2.875      4.082
REMARK INTER + INTRA:          -9.328
REMARK INTER:                  -9.186
REMARK INTRA:                  -0.142
REMARK UNBOUND:                -0.393
REMARK  Name = 
REMARK  5 active torsions:
REMARK  status: ('A' for Active; 'I' for Inactive)
REMARK    1  A    between atoms: C_1  and  N_2
REMARK    2  A    between atoms: N_2  and  C_3
REMARK    3  A    between atoms: N_2  and  C_4
REMARK    4  A    between atoms: C_9  and  S_10
REMARK    5  A    between atoms: S_10  and  N_13
REMARK                            x       y       z     vdW  Elec       q    Type
REMARK                         _______ _______ _______ _____ _____    ______ ____
ROOT
ATOM      1  C   UNL     1      26.944   0.734  53.287  0.00  0.00    +0.000 A 
ATOM      2  C   UNL     1      26.245  -0.184  54.095  0.00  0.00    +0.000 A 
ATOM      3  C   UNL     1      24.902  -0.470  53.893  0.00  0.00    +0.000 A 
ATOM      4  C   UNL     1      24.181   0.240  52.944  0.00  0.00    +0.000 A 
ATOM      5  C   UNL     1      24.777   1.255  52.165  0.00  0.00    +0.000 A 
ATOM      6  C   UNL     1      24.050   2.082  51.261  0.00  0.00    +0.000 A 
ATOM      7  C   UNL     1      24.713   2.906  50.344  0.00  0.00    +0.000 A 
ATOM      8  C   UNL     1      26.095   2.952  50.335  0.00  0.00    +0.000 A 
ATOM      9  C   UNL     1      26.813   2.239  51.294  0.00  0.00    +0.000 A 
ATOM     10  C   UNL     1      26.195   1.424  52.270  0.00  0.00    +0.000 A 
ENDROOT
BRANCH   1  12
ATOM     11  C   UNL     1      29.100  -0.225  54.000  0.00  0.00    +0.000 C 
ATOM     12  N   UNL     1      28.342   0.911  53.464  0.00  0.00    +0.000 N 
ATOM     13  C   UNL     1      28.782   2.218  53.971  0.00  0.00    +0.000 C 
ENDBRANCH   1  12
BRANCH   6  14
ATOM     14  S   UNL     1      22.259   2.155  51.219  0.00  0.00    +0.000 S 
ATOM     15  O   UNL     1      21.811   2.675  52.499  0.00  0.00    +0.000 OA
ATOM     16  O   UNL     1      21.891   2.848  50.000  0.00  0.00    +0.000 OA
BRANCH  14  17
ATOM     17  N   UNL     1      21.666   0.607  51.070  0.00  0.00    +0.000 N 
ATOM     18  C   UNL     1      20.368   0.362  51.486  0.00  0.00    +0.000 A 
ATOM     19  N   UNL     1      19.339   0.689  50.702  0.00  0.00    +0.000 NA
ATOM     20  C   UNL     1      18.126   0.278  51.146  0.00  0.00    +0.000 A 
ATOM     21  C   UNL     1      17.933  -0.389  52.338  0.00  0.00    +0.000 A 
ATOM     22 CL   UNL     1      16.387  -0.872  52.886  0.00  0.00    +0.000 Cl
ATOM     23  C   UNL     1      19.074  -0.651  53.058  0.00  0.00    +0.000 A 
ATOM     24  N   UNL     1      20.311  -0.313  52.637  0.00  0.00    +0.000 NA
ATOM     25  H   UNL     1      22.221  -0.114  50.696  0.00  0.00    +0.000 HD
ENDBRANCH  14  17
ENDBRANCH   6  14
TORSDOF 3
ENDMDL
MODEL 6
REMARK VINA RESULT:    -7.442      2.935      3.458
REMARK INTER + INTRA:          -9.141
REMARK INTER:                  -8.806
REMARK INTRA:                  -0.335
REMARK UNBOUND:                -0.393
REMARK  Name = 
REMARK  5 active torsions:
REMARK  status: ('A' for Active; 'I' for Inactive)
REMARK    1  A    between atoms: C_1  and  N_2
REMARK    2  A    between atoms: N_2  and  C_3
REMARK    3  A    between atoms: N_2  and  C_4
REMARK    4  A    between atoms: C_9  and  S_10
REMARK    5  A    between atoms: S_10  and  N_13
REMARK                            x       y       z     vdW  Elec       q    Type
REMARK                         _______ _______ _______ _____ _____    ______ ____
ROOT
ATOM      1  C   UNL     1      24.940   0.136  53.072  0.00  0.00    +0.000 A 
ATOM      2  C   UNL     1      25.225   1.150  52.137  0.00  0.00    +0.000 A 
ATOM      3  C   UNL     1      24.224   1.905  51.541  0.00  0.00    +0.000 A 
ATOM      4  C   UNL     1      22.893   1.594  51.776  0.00  0.00    +0.000 A 
ATOM      5  C   UNL     1      22.518   0.523  52.614  0.00  0.00    +0.000 A 
ATOM      6  C   UNL     1      21.169   0.100  52.793  0.00  0.00    +0.000 A 
ATOM      7  C   UNL     1      20.825  -0.803  53.806  0.00  0.00    +0.000 A 
ATOM      8  C   UNL     1      21.809  -1.325  54.625  0.00  0.00    +0.000 A 
ATOM      9  C   UNL     1      23.144  -1.011  54.381  0.00  0.00    +0.000 A 
ATOM     10  C   UNL     1      23.555  -0.140  53.347  0.00  0.00    +0.000 A 
ENDROOT
BRANCH   1  12
ATOM     11  C   UNL     1      26.728   0.215  54.768  0.00  0.00    +0.000 C 
ATOM     12  N   UNL     1      26.002  -0.533  53.736  0.00  0.00    +0.000 N 
ATOM     13  C   UNL     1      26.858  -1.394  52.907  0.00  0.00    +0.000 C 
ENDBRANCH   1  12
BRANCH   6  14
ATOM     14  S   UNL     1      19.817   0.660  51.757  0.00  0.00    +0.000 S 
ATOM     15  O   UNL     1      19.417   1.974  52.229  0.00  0.00    +0.000 OA
ATOM     16  O   UNL     1      20.240   0.494  50.381  0.00  0.00    +0.000 OA
BRANCH  14  17
ATOM     17  N   UNL     1      18.523  -0.365  51.971  0.00  0.00    +0.000 N 
ATOM     18  C   UNL     1      17.329  -0.050  51.343  0.00  0.00    +0.000 A 
ATOM     19  N   UNL     1      17.161  -0.323  50.048  0.00  0.00    +0.000 NA
ATOM     20  C   UNL     1      15.910  -0.101  49.575  0.00  0.00    +0.000 A 
ATOM     21  C   UNL     1      14.881   0.411  50.337  0.00  0.00    +0.000 A 
ATOM     22 CL   UNL     1      13.320   0.705  49.704  0.00  0.00    +0.000 Cl
ATOM     23  C   UNL     1      15.192   0.663  51.652  0.00  0.00    +0.000 A 
ATOM     24  N   UNL     1      16.404   0.409  52.189  0.00  0.00    +0.000 NA
ATOM     25  H   UNL     1      18.604  -1.173  52.528  0.00  0.00    +0.000 HD
ENDBRANCH  14  17
ENDBRANCH   6  14
TORSDOF 3
ENDMDL
MODEL 7
REMARK VINA RESULT:    -7.347      2.370      3.864
REMARK INTER + INTRA:          -9.029
REMARK INTER:                  -8.576
REMARK INTRA:                  -0.453
REMARK UNBOUND:                -0.393
REMARK  Name = 
REMARK  5 active torsions:
REMARK  status: ('A' for Active; 'I' for Inactive)
REMARK    1  A    between atoms: C_1  and  N_2
REMARK    2  A    between atoms: N_2  and  C_3
REMARK    3  A    between atoms: N_2  and  C_4
REMARK    4  A    between atoms: C_9  and  S_10
REMARK    5  A    between atoms: S_10  and  N_13
REMARK                            x       y       z     vdW  Elec       q    Type
REMARK                         _______ _______ _______ _____ _____    ______ ____
ROOT
ATOM      1  C   UNL     1      25.706   0.254  52.926  0.00  0.00    +0.000 A 
ATOM      2  C   UNL     1      24.526  -0.269  53.490  0.00  0.00    +0.000 A 
ATOM      3  C   UNL     1      23.271   0.233  53.171  0.00  0.00    +0.000 A 
ATOM      4  C   UNL     1      23.162   1.353  52.360  0.00  0.00    +0.000 A 
ATOM      5  C   UNL     1      24.299   2.006  51.840  0.00  0.00    +0.000 A 
ATOM      6  C   UNL     1      24.237   3.221  51.098  0.00  0.00    +0.000 A 
ATOM      7  C   UNL     1      25.356   3.701  50.406  0.00  0.00    +0.000 A 
ATOM      8  C   UNL     1      26.552   3.012  50.470  0.00  0.00    +0.000 A 
ATOM      9  C   UNL     1      26.656   1.889  51.289  0.00  0.00    +0.000 A 
ATOM     10  C   UNL     1      25.572   1.383  52.043  0.00  0.00    +0.000 A 
ENDROOT
BRANCH   1  12
ATOM     11  C   UNL     1      27.095  -1.780  52.845  0.00  0.00    +0.000 C 
ATOM     12  N   UNL     1      26.954  -0.363  53.199  0.00  0.00    +0.000 N 
ATOM     13  C   UNL     1      27.610   0.006  54.462  0.00  0.00    +0.000 C 
ENDBRANCH   1  12
BRANCH   6  14
ATOM     14  S   UNL     1      22.761   4.234  50.990  0.00  0.00    +0.000 S 
ATOM     15  O   UNL     1      22.305   4.489  52.345  0.00  0.00    +0.000 OA
ATOM     16  O   UNL     1      23.077   5.350  50.121  0.00  0.00    +0.000 OA
BRANCH  14  17
ATOM     17  N   UNL     1      21.573   3.363  50.216  0.00  0.00    +0.000 N 
ATOM     18  C   UNL     1      20.262   3.539  50.625  0.00  0.00    +0.000 A 
ATOM     19  N   UNL     1      19.568   4.601  50.213  0.00  0.00    +0.000 NA
ATOM     20  C   UNL     1      18.257   4.598  50.560  0.00  0.00    +0.000 A 
ATOM     21  C   UNL     1      17.668   3.611  51.322  0.00  0.00    +0.000 A 
ATOM     22 CL   UNL     1      16.018   3.649  51.768  0.00  0.00    +0.000 Cl
ATOM     23  C   UNL     1      18.499   2.581  51.695  0.00  0.00    +0.000 A 
ATOM     24  N   UNL     1      19.796   2.506  51.330  0.00  0.00    +0.000 NA
ATOM     25  H   UNL     1      21.796   2.741  49.486  0.00  0.00    +0.000 HD
ENDBRANCH  14  17
ENDBRANCH   6  14
TORSDOF 3
ENDMDL
MODEL 8
REMARK VINA RESULT:    -7.213      3.823      7.596
REMARK INTER + INTRA:          -8.871
REMARK INTER:                  -8.782
REMARK INTRA:                  -0.089
REMARK UNBOUND:                -0.393
REMARK  Name = 
REMARK  5 active torsions:
REMARK  status: ('A' for Active; 'I' for Inactive)
REMARK    1  A    between atoms: C_1  and  N_2
REMARK    2  A    between atoms: N_2  and  C_3
REMARK    3  A    between atoms: N_2  and  C_4
REMARK    4  A    between atoms: C_9  and  S_10
REMARK    5  A    between atoms: S_10  and  N_13
REMARK                            x       y       z     vdW  Elec       q    Type
REMARK                         _______ _______ _______ _____ _____    ______ ____
ROOT
ATOM      1  C   UNL     1      19.099   0.783  51.051  0.00  0.00    +0.000 A 
ATOM      2  C   UNL     1      19.608   1.300  49.844  0.00  0.00    +0.000 A 
ATOM      3  C   UNL     1      20.971   1.376  49.590  0.00  0.00    +0.000 A 
ATOM      4  C   UNL     1      21.877   1.041  50.586  0.00  0.00    +0.000 A 
ATOM      5  C   UNL     1      21.453   0.619  51.863  0.00  0.00    +0.000 A 
ATOM      6  C   UNL     1      22.346   0.374  52.946  0.00  0.00    +0.000 A 
ATOM      7  C   UNL     1      21.908  -0.267  54.112  0.00  0.00    +0.000 A 
ATOM      8  C   UNL     1      20.581  -0.636  54.236  0.00  0.00    +0.000 A 
ATOM      9  C   UNL     1      19.675  -0.294  53.234  0.00  0.00    +0.000 A 
ATOM     10  C   UNL     1      20.052   0.389  52.055  0.00  0.00    +0.000 A 
ENDROOT
BRANCH   1  12
ATOM     11  C   UNL     1      17.070  -0.528  50.565  0.00  0.00    +0.000 C 
ATOM     12  N   UNL     1      17.698   0.625  51.219  0.00  0.00    +0.000 N 
ATOM     13  C   UNL     1      16.887   1.850  51.181  0.00  0.00    +0.000 C 
ENDBRANCH   1  12
BRANCH   6  14
ATOM     14  S   UNL     1      24.072   0.860  52.928  0.00  0.00    +0.000 S 
ATOM     15  O   UNL     1      24.571   0.654  51.580  0.00  0.00    +0.000 OA
ATOM     16  O   UNL     1      24.147   2.179  53.524  0.00  0.00    +0.000 OA
BRANCH  14  17
ATOM     17  N   UNL     1      24.921  -0.154  53.938  0.00  0.00    +0.000 N 
ATOM     18  C   UNL     1      26.304  -0.150  53.856  0.00  0.00    +0.000 A 
ATOM     19  N   UNL     1      27.008   0.815  54.450  0.00  0.00    +0.000 NA
ATOM     20  C   UNL     1      28.352   0.642  54.424  0.00  0.00    +0.000 A 
ATOM     21  C   UNL     1      28.977  -0.416  53.796  0.00  0.00    +0.000 A 
ATOM     22 CL   UNL     1      30.677  -0.593  53.756  0.00  0.00    +0.000 Cl
ATOM     23  C   UNL     1      28.136  -1.332  53.209  0.00  0.00    +0.000 A 
ATOM     24  N   UNL     1      26.790  -1.238  53.253  0.00  0.00    +0.000 NA
ATOM     25  H   UNL     1      24.455  -0.740  54.577  0.00  0.00    +0.000 HD
ENDBRANCH  14  17
ENDBRANCH   6  14
TORSDOF 3
ENDMDL
MODEL 9
REMARK VINA RESULT:    -7.174      2.844      4.257
REMARK INTER + INTRA:          -8.825
REMARK INTER:                  -8.520
REMARK INTRA:                  -0.305
REMARK UNBOUND:                -0.393
REMARK  Name = 
REMARK  5 active torsions:
REMARK  status: ('A' for Active; 'I' for Inactive)
REMARK    1  A    between atoms: C_1  and  N_2
REMARK    2  A    between atoms: N_2  and  C_3
REMARK    3  A    between atoms: N_2  and  C_4
REMARK    4  A    between atoms: C_9  and  S_10
REMARK    5  A    between atoms: S_10  and  N_13
REMARK                            x       y       z     vdW  Elec       q    Type
REMARK                         _______ _______ _______ _____ _____    ______ ____
ROOT
ATOM      1  C   UNL     1      26.364   1.195  52.673  0.00  0.00    +0.000 A 
ATOM      2  C   UNL     1      25.478   0.446  53.472  0.00  0.00    +0.000 A 
ATOM      3  C   UNL     1      24.117   0.385  53.204  0.00  0.00    +0.000 A 
ATOM      4  C   UNL     1      23.578   1.163  52.191  0.00  0.00    +0.000 A 
ATOM      5  C   UNL     1      24.377   2.025  51.412  0.00  0.00    +0.000 A 
ATOM      6  C   UNL     1      23.849   2.923  50.439  0.00  0.00    +0.000 A 
ATOM      7  C   UNL     1      24.690   3.580  49.532  0.00  0.00    +0.000 A 
ATOM      8  C   UNL     1      26.057   3.389  49.600  0.00  0.00    +0.000 A 
ATOM      9  C   UNL     1      26.593   2.608  50.622  0.00  0.00    +0.000 A 
ATOM     10  C   UNL     1      25.797   1.955  51.591  0.00  0.00    +0.000 A 
ENDROOT
BRANCH   1  12
ATOM     11  C   UNL     1      28.322  -0.160  53.312  0.00  0.00    +0.000 C 
ATOM     12  N   UNL     1      27.761   1.138  52.921  0.00  0.00    +0.000 N 
ATOM     13  C   UNL     1      28.351   2.283  53.630  0.00  0.00    +0.000 C 
ENDBRANCH   1  12
BRANCH   6  14
ATOM     14  S   UNL     1      22.102   3.298  50.293  0.00  0.00    +0.000 S 
ATOM     15  O   UNL     1      21.429   2.090  49.850  0.00  0.00    +0.000 OA
ATOM     16  O   UNL     1      21.698   3.925  51.536  0.00  0.00    +0.000 OA
BRANCH  14  17
ATOM     17  N   UNL     1      21.902   4.448  49.107  0.00  0.00    +0.000 N 
ATOM     18  C   UNL     1      21.353   5.668  49.466  0.00  0.00    +0.000 A 
ATOM     19  N   UNL     1      22.109   6.597  50.053  0.00  0.00    +0.000 NA
ATOM     20  C   UNL     1      21.507   7.798  50.232  0.00  0.00    +0.000 A 
ATOM     21  C   UNL     1      20.197   8.057  49.886  0.00  0.00    +0.000 A 
ATOM     22 CL   UNL     1      19.454   9.574  50.149  0.00  0.00    +0.000 Cl
ATOM     23  C   UNL     1      19.523   7.009  49.304  0.00  0.00    +0.000 A 
ATOM     24  N   UNL     1      20.092   5.811  49.052  0.00  0.00    +0.000 NA
ATOM     25  H   UNL     1      22.167   4.267  48.177  0.00  0.00    +0.000 HD
ENDBRANCH  14  17
ENDBRANCH   6  14
TORSDOF 3
ENDMDL
