MODEL 1
REMARK VINA RESULT:    -9.802      0.000      0.000
REMARK INTER + INTRA:         -11.415
REMARK INTER:                 -11.235
REMARK INTRA:                  -0.181
REMARK UNBOUND:                -0.181
REMARK  Name = 
REMARK  3 active torsions:
REMARK  status: ('A' for Active; 'I' for Inactive)
REMARK    1  A    between atoms: C_4  and  S_5
REMARK    2  A    between atoms: C_8  and  S_9
REMARK    3  A    between atoms: S_9  and  C_12
REMARK                            x       y       z     vdW  Elec       q    Type
REMARK                         _______ _______ _______ _____ _____    ______ ____
ROOT
ATOM      1  N   UNL     1      17.833  -2.361  54.020  0.00  0.00    +0.000 N 
ATOM      2  C   UNL     1      18.786  -1.479  53.559  0.00  0.00    +0.000 A 
ATOM      3  N   UNL     1      18.442  -0.651  52.578  0.00  0.00    +0.000 NA
ATOM      4  C   UNL     1      19.383   0.217  52.167  0.00  0.00    +0.000 A 
ATOM      5  C   UNL     1      20.681   0.263  52.693  0.00  0.00    +0.000 A 
ATOM      6  C   UNL     1      21.711   1.160  52.309  0.00  0.00    +0.000 A 
ATOM      7  C   UNL     1      22.971   1.076  52.899  0.00  0.00    +0.000 A 
ATOM      8  C   UNL     1      23.234   0.094  53.848  0.00  0.00    +0.000 A 
ATOM      9  C   UNL     1      22.206  -0.771  54.234  0.00  0.00    +0.000 A 
ATOM     10  C   UNL     1      20.930  -0.696  53.680  0.00  0.00    +0.000 A 
ATOM     11  N   UNL     1      19.997  -1.549  54.110  0.00  0.00    +0.000 NA
ATOM     12  H   UNL     1      16.924  -2.346  53.642  0.00  0.00    +0.000 HD
ATOM     13  H   UNL     1      18.062  -3.006  54.727  0.00  0.00    +0.000 HD
ENDROOT
BRANCH   7  14
ATOM     14  S   UNL     1      24.261   2.187  52.386  0.00  0.00    +0.000 S 
ATOM     15  O   UNL     1      24.146   2.333  50.945  0.00  0.00    +0.000 OA
ATOM     16  O   UNL     1      24.197   3.352  53.249  0.00  0.00    +0.000 OA
BRANCH  14  17
ATOM     17  C   UNL     1      25.792   1.352  52.725  0.00  0.00    +0.000 A 
ATOM     18  C   UNL     1      26.840   2.058  53.315  0.00  0.00    +0.000 A 
ATOM     19  C   UNL     1      28.028   1.393  53.619  0.00  0.00    +0.000 A 
ATOM     20  C   UNL     1      28.168   0.020  53.359  0.00  0.00    +0.000 A 
ATOM     21  C   UNL     1      29.348  -0.663  53.694  0.00  0.00    +0.000 A 
ATOM     22  C   UNL     1      29.467  -2.034  53.464  0.00  0.00    +0.000 A 
ATOM     23  C   UNL     1      28.415  -2.736  52.880  0.00  0.00    +0.000 A 
ATOM     24  C   UNL     1      27.241  -2.069  52.527  0.00  0.00    +0.000 A 
ATOM     25  C   UNL     1      27.098  -0.693  52.767  0.00  0.00    +0.000 A 
ATOM     26  C   UNL     1      25.910  -0.015  52.449  0.00  0.00    +0.000 A 
ENDBRANCH  14  17
ENDBRANCH   7  14
BRANCH   4  27
ATOM     27  S   UNL     1      18.837   1.309  50.867  0.00  0.00    +0.000 S 
ATOM     28  H   UNL     1      19.919   1.814  50.215  0.00  0.00    +0.000 HD
ENDBRANCH   4  27
TORSDOF 3
ENDMDL
MODEL 2
REMARK VINA RESULT:    -9.265      5.484      6.855
REMARK INTER + INTRA:         -10.800
REMARK INTER:                 -10.362
REMARK INTRA:                  -0.438
REMARK UNBOUND:                -0.181
REMARK  Name = 
REMARK  3 active torsions:
REMARK  status: ('A' for Active; 'I' for Inactive)
REMARK    1  A    between atoms: C_4  and  S_5
REMARK    2  A    between atoms: C_8  and  S_9
REMARK    3  A    between atoms: S_9  and  C_12
REMARK                            x       y       z     vdW  Elec       q    Type
REMARK                         _______ _______ _______ _____ _____    ______ ____
ROOT
ATOM      1  N   UNL     1      26.660   8.711  47.141  0.00  0.00    +0.000 N 
ATOM      2  C   UNL     1      26.160   7.798  48.044  0.00  0.00    +0.000 A 
ATOM      3  N   UNL     1      25.127   8.170  48.795  0.00  0.00    +0.000 NA
ATOM      4  C   UNL     1      24.643   7.249  49.648  0.00  0.00    +0.000 A 
ATOM      5  C   UNL     1      25.184   5.964  49.794  0.00  0.00    +0.000 A 
ATOM      6  C   UNL     1      24.711   4.950  50.665  0.00  0.00    +0.000 A 
ATOM      7  C   UNL     1      25.365   3.721  50.731  0.00  0.00    +0.000 A 
ATOM      8  C   UNL     1      26.500   3.491  49.962  0.00  0.00    +0.000 A 
ATOM      9  C   UNL     1      26.945   4.491  49.092  0.00  0.00    +0.000 A 
ATOM     10  C   UNL     1      26.299   5.720  48.986  0.00  0.00    +0.000 A 
ATOM     11  N   UNL     1      26.776   6.619  48.121  0.00  0.00    +0.000 NA
ATOM     12  H   UNL     1      26.238   9.595  47.050  0.00  0.00    +0.000 HD
ATOM     13  H   UNL     1      27.441   8.478  46.589  0.00  0.00    +0.000 HD
ENDROOT
BRANCH   7  14
ATOM     14  S   UNL     1      24.780   2.469  51.851  0.00  0.00    +0.000 S 
ATOM     15  O   UNL     1      24.249   3.157  53.015  0.00  0.00    +0.000 OA
ATOM     16  O   UNL     1      23.941   1.564  51.087  0.00  0.00    +0.000 OA
BRANCH  14  17
ATOM     17  C   UNL     1      26.217   1.561  52.367  0.00  0.00    +0.000 A 
ATOM     18  C   UNL     1      27.270   2.238  52.980  0.00  0.00    +0.000 A 
ATOM     19  C   UNL     1      28.381   1.520  53.423  0.00  0.00    +0.000 A 
ATOM     20  C   UNL     1      28.436   0.124  53.279  0.00  0.00    +0.000 A 
ATOM     21  C   UNL     1      29.535  -0.609  53.753  0.00  0.00    +0.000 A 
ATOM     22  C   UNL     1      29.567  -2.000  53.636  0.00  0.00    +0.000 A 
ATOM     23  C   UNL     1      28.510  -2.672  53.028  0.00  0.00    +0.000 A 
ATOM     24  C   UNL     1      27.417  -1.957  52.538  0.00  0.00    +0.000 A 
ATOM     25  C   UNL     1      27.360  -0.559  52.662  0.00  0.00    +0.000 A 
ATOM     26  C   UNL     1      26.252   0.172  52.204  0.00  0.00    +0.000 A 
ENDBRANCH  14  17
ENDBRANCH   7  14
BRANCH   4  27
ATOM     27  S   UNL     1      23.246   7.815  50.599  0.00  0.00    +0.000 S 
ATOM     28  H   UNL     1      22.232   6.913  50.496  0.00  0.00    +0.000 HD
ENDBRANCH   4  27
TORSDOF 3
ENDMDL
MODEL 3
REMARK VINA RESULT:    -9.045      1.444      2.130
REMARK INTER + INTRA:         -10.548
REMARK INTER:                 -10.350
REMARK INTRA:                  -0.199
REMARK UNBOUND:                -0.181
REMARK  Name = 
REMARK  3 active torsions:
REMARK  status: ('A' for Active; 'I' for Inactive)
REMARK    1  A    between atoms: C_4  and  S_5
REMARK    2  A    between atoms: C_8  and  S_9
REMARK    3  A    between atoms: S_9  and  C_12
REMARK                            x       y       z     vdW  Elec       q    Type
REMARK                         _______ _______ _______ _____ _____    ______ ____
ROOT
ATOM      1  N   UNL     1      18.668  -2.190  54.001  0.00  0.00    +0.000 N 
ATOM      2  C   UNL     1      19.816  -1.449  53.814  0.00  0.00    +0.000 A 
ATOM      3  N   UNL     1      20.855  -1.706  54.602  0.00  0.00    +0.000 NA
ATOM      4  C   UNL     1      21.969  -0.987  54.379  0.00  0.00    +0.000 A 
ATOM      5  C   UNL     1      22.068   0.011  53.399  0.00  0.00    +0.000 A 
ATOM      6  C   UNL     1      23.216   0.792  53.110  0.00  0.00    +0.000 A 
ATOM      7  C   UNL     1      23.165   1.775  52.123  0.00  0.00    +0.000 A 
ATOM      8  C   UNL     1      21.981   2.013  51.434  0.00  0.00    +0.000 A 
ATOM      9  C   UNL     1      20.861   1.223  51.713  0.00  0.00    +0.000 A 
ATOM     10  C   UNL     1      20.888   0.218  52.676  0.00  0.00    +0.000 A 
ATOM     11  N   UNL     1      19.782  -0.504  52.876  0.00  0.00    +0.000 NA
ATOM     12  H   UNL     1      18.646  -2.899  54.683  0.00  0.00    +0.000 HD
ATOM     13  H   UNL     1      17.871  -2.008  53.453  0.00  0.00    +0.000 HD
ENDROOT
BRANCH   7  14
ATOM     14  S   UNL     1      24.603   2.767  51.793  0.00  0.00    +0.000 S 
ATOM     15  O   UNL     1      24.667   2.954  50.354  0.00  0.00    +0.000 OA
ATOM     16  O   UNL     1      24.550   3.914  52.680  0.00  0.00    +0.000 OA
BRANCH  14  17
ATOM     17  C   UNL     1      26.001   1.782  52.273  0.00  0.00    +0.000 A 
ATOM     18  C   UNL     1      27.092   2.396  52.886  0.00  0.00    +0.000 A 
ATOM     19  C   UNL     1      28.173   1.617  53.301  0.00  0.00    +0.000 A 
ATOM     20  C   UNL     1      28.160   0.223  53.129  0.00  0.00    +0.000 A 
ATOM     21  C   UNL     1      29.228  -0.571  53.575  0.00  0.00    +0.000 A 
ATOM     22  C   UNL     1      29.193  -1.958  53.430  0.00  0.00    +0.000 A 
ATOM     23  C   UNL     1      28.098  -2.568  52.822  0.00  0.00    +0.000 A 
ATOM     24  C   UNL     1      27.035  -1.791  52.360  0.00  0.00    +0.000 A 
ATOM     25  C   UNL     1      27.046  -0.396  52.512  0.00  0.00    +0.000 A 
ATOM     26  C   UNL     1      25.969   0.396  52.083  0.00  0.00    +0.000 A 
ENDBRANCH  14  17
ENDBRANCH   7  14
BRANCH   4  27
ATOM     27  S   UNL     1      23.324  -1.406  55.459  0.00  0.00    +0.000 S 
ATOM     28  H   UNL     1      24.406  -1.759  54.713  0.00  0.00    +0.000 HD
ENDBRANCH   4  27
TORSDOF 3
ENDMDL
MODEL 4
REMARK VINA RESULT:    -9.039      4.340      6.253
REMARK INTER + INTRA:         -10.540
REMARK INTER:                 -10.596
REMARK INTRA:                   0.056
REMARK UNBOUND:                -0.181
REMARK  Name = 
REMARK  3 active torsions:
REMARK  status: ('A' for Active; 'I' for Inactive)
REMARK    1  A    between atoms: C_4  and  S_5
REMARK    2  A    between atoms: C_8  and  S_9
REMARK    3  A    between atoms: S_9  and  C_12
REMARK                            x       y       z     vdW  Elec       q    Type
REMARK                         _______ _______ _______ _____ _____    ______ ____
ROOT
ATOM      1  N   UNL     1      24.976  -1.712  55.876  0.00  0.00    +0.000 N 
ATOM      2  C   UNL     1      24.866  -0.757  54.888  0.00  0.00    +0.000 A 
ATOM      3  N   UNL     1      25.914   0.032  54.669  0.00  0.00    +0.000 NA
ATOM      4  C   UNL     1      25.787   0.936  53.682  0.00  0.00    +0.000 A 
ATOM      5  C   UNL     1      24.622   1.097  52.919  0.00  0.00    +0.000 A 
ATOM      6  C   UNL     1      24.433   2.023  51.861  0.00  0.00    +0.000 A 
ATOM      7  C   UNL     1      23.207   2.096  51.203  0.00  0.00    +0.000 A 
ATOM      8  C   UNL     1      22.153   1.279  51.597  0.00  0.00    +0.000 A 
ATOM      9  C   UNL     1      22.357   0.356  52.627  0.00  0.00    +0.000 A 
ATOM     10  C   UNL     1      23.577   0.243  53.287  0.00  0.00    +0.000 A 
ATOM     11  N   UNL     1      23.698  -0.672  54.252  0.00  0.00    +0.000 NA
ATOM     12  H   UNL     1      25.819  -1.811  56.373  0.00  0.00    +0.000 HD
ATOM     13  H   UNL     1      24.210  -2.295  56.083  0.00  0.00    +0.000 HD
ENDROOT
BRANCH   7  14
ATOM     14  S   UNL     1      22.975   3.283  49.899  0.00  0.00    +0.000 S 
ATOM     15  O   UNL     1      22.512   2.548  48.735  0.00  0.00    +0.000 OA
ATOM     16  O   UNL     1      22.185   4.372  50.441  0.00  0.00    +0.000 OA
BRANCH  14  17
ATOM     17  C   UNL     1      24.590   3.925  49.526  0.00  0.00    +0.000 A 
ATOM     18  C   UNL     1      25.686   3.064  49.534  0.00  0.00    +0.000 A 
ATOM     19  C   UNL     1      26.948   3.559  49.202  0.00  0.00    +0.000 A 
ATOM     20  C   UNL     1      27.117   4.905  48.838  0.00  0.00    +0.000 A 
ATOM     21  C   UNL     1      28.376   5.402  48.468  0.00  0.00    +0.000 A 
ATOM     22  C   UNL     1      28.530   6.732  48.075  0.00  0.00    +0.000 A 
ATOM     23  C   UNL     1      27.431   7.586  48.062  0.00  0.00    +0.000 A 
ATOM     24  C   UNL     1      26.174   7.112  48.441  0.00  0.00    +0.000 A 
ATOM     25  C   UNL     1      25.998   5.772  48.824  0.00  0.00    +0.000 A 
ATOM     26  C   UNL     1      24.734   5.271  49.175  0.00  0.00    +0.000 A 
ENDBRANCH  14  17
ENDBRANCH   7  14
BRANCH   4  27
ATOM     27  S   UNL     1      27.241   1.937  53.433  0.00  0.00    +0.000 S 
ATOM     28  H   UNL     1      28.345   1.231  53.799  0.00  0.00    +0.000 HD
ENDBRANCH   4  27
TORSDOF 3
ENDMDL
MODEL 5
REMARK VINA RESULT:    -8.974      4.152      5.614
REMARK INTER + INTRA:         -10.467
REMARK INTER:                 -10.810
REMARK INTRA:                   0.343
REMARK UNBOUND:                -0.181
REMARK  Name = 
REMARK  3 active torsions:
REMARK  status: ('A' for Active; 'I' for Inactive)
REMARK    1  A    between atoms: C_4  and  S_5
REMARK    2  A    between atoms: C_8  and  S_9
REMARK    3  A    between atoms: S_9  and  C_12
REMARK                            x       y       z     vdW  Elec       q    Type
REMARK                         _______ _______ _______ _____ _____    ______ ____
ROOT
ATOM      1  N   UNL     1      23.096  -1.962  55.895  0.00  0.00    +0.000 N 
ATOM      2  C   UNL     1      22.835  -1.120  54.835  0.00  0.00    +0.000 A 
ATOM      3  N   UNL     1      21.582  -1.045  54.397  0.00  0.00    +0.000 NA
ATOM      4  C   UNL     1      21.352  -0.195  53.380  0.00  0.00    +0.000 A 
ATOM      5  C   UNL     1      22.353   0.569  52.764  0.00  0.00    +0.000 A 
ATOM      6  C   UNL     1      22.170   1.487  51.699  0.00  0.00    +0.000 A 
ATOM      7  C   UNL     1      23.263   2.162  51.158  0.00  0.00    +0.000 A 
ATOM      8  C   UNL     1      24.543   1.919  51.644  0.00  0.00    +0.000 A 
ATOM      9  C   UNL     1      24.709   1.027  52.708  0.00  0.00    +0.000 A 
ATOM     10  C   UNL     1      23.634   0.356  53.283  0.00  0.00    +0.000 A 
ATOM     11  N   UNL     1      23.870  -0.470  54.306  0.00  0.00    +0.000 NA
ATOM     12  H   UNL     1      22.363  -2.463  56.318  0.00  0.00    +0.000 HD
ATOM     13  H   UNL     1      24.017  -2.061  56.227  0.00  0.00    +0.000 HD
ENDROOT
BRANCH   7  14
ATOM     14  S   UNL     1      23.023   3.288  49.803  0.00  0.00    +0.000 S 
ATOM     15  O   UNL     1      22.620   2.491  48.657  0.00  0.00    +0.000 OA
ATOM     16  O   UNL     1      22.176   4.366  50.280  0.00  0.00    +0.000 OA
BRANCH  14  17
ATOM     17  C   UNL     1      24.621   3.978  49.448  0.00  0.00    +0.000 A 
ATOM     18  C   UNL     1      25.752   3.170  49.548  0.00  0.00    +0.000 A 
ATOM     19  C   UNL     1      27.003   3.700  49.230  0.00  0.00    +0.000 A 
ATOM     20  C   UNL     1      27.128   5.027  48.790  0.00  0.00    +0.000 A 
ATOM     21  C   UNL     1      28.379   5.557  48.435  0.00  0.00    +0.000 A 
ATOM     22  C   UNL     1      28.490   6.867  47.967  0.00  0.00    +0.000 A 
ATOM     23  C   UNL     1      27.357   7.669  47.863  0.00  0.00    +0.000 A 
ATOM     24  C   UNL     1      26.108   7.162  48.226  0.00  0.00    +0.000 A 
ATOM     25  C   UNL     1      25.975   5.841  48.684  0.00  0.00    +0.000 A 
ATOM     26  C   UNL     1      24.721   5.307  49.020  0.00  0.00    +0.000 A 
ENDBRANCH  14  17
ENDBRANCH   7  14
BRANCH   4  27
ATOM     27  S   UNL     1      19.646  -0.133  52.867  0.00  0.00    +0.000 S 
ATOM     28  H   UNL     1      18.855   0.103  53.949  0.00  0.00    +0.000 HD
ENDBRANCH   4  27
TORSDOF 3
ENDMDL
MODEL 6
REMARK VINA RESULT:    -8.645      5.377      7.505
REMARK INTER + INTRA:         -10.089
REMARK INTER:                  -9.667
REMARK INTRA:                  -0.422
REMARK UNBOUND:                -0.181
REMARK  Name = 
REMARK  3 active torsions:
REMARK  status: ('A' for Active; 'I' for Inactive)
REMARK    1  A    between atoms: C_4  and  S_5
REMARK    2  A    between atoms: C_8  and  S_9
REMARK    3  A    between atoms: S_9  and  C_12
REMARK                            x       y       z     vdW  Elec       q    Type
REMARK                         _______ _______ _______ _____ _____    ______ ____
ROOT
ATOM      1  N   UNL     1      26.104   9.411  50.513  0.00  0.00    +0.000 N 
ATOM      2  C   UNL     1      25.619   8.146  50.263  0.00  0.00    +0.000 A 
ATOM      3  N   UNL     1      26.446   7.262  49.714  0.00  0.00    +0.000 NA
ATOM      4  C   UNL     1      25.954   6.027  49.507  0.00  0.00    +0.000 A 
ATOM      5  C   UNL     1      24.637   5.655  49.810  0.00  0.00    +0.000 A 
ATOM      6  C   UNL     1      24.066   4.370  49.625  0.00  0.00    +0.000 A 
ATOM      7  C   UNL     1      22.728   4.144  49.943  0.00  0.00    +0.000 A 
ATOM      8  C   UNL     1      21.938   5.185  50.419  0.00  0.00    +0.000 A 
ATOM      9  C   UNL     1      22.517   6.442  50.616  0.00  0.00    +0.000 A 
ATOM     10  C   UNL     1      23.856   6.692  50.330  0.00  0.00    +0.000 A 
ATOM     11  N   UNL     1      24.341   7.916  50.559  0.00  0.00    +0.000 NA
ATOM     12  H   UNL     1      27.042   9.628  50.310  0.00  0.00    +0.000 HD
ATOM     13  H   UNL     1      25.511  10.098  50.894  0.00  0.00    +0.000 HD
ENDROOT
BRANCH   7  14
ATOM     14  S   UNL     1      22.017   2.536  49.677  0.00  0.00    +0.000 S 
ATOM     15  O   UNL     1      20.575   2.691  49.763  0.00  0.00    +0.000 OA
ATOM     16  O   UNL     1      22.626   1.987  48.480  0.00  0.00    +0.000 OA
BRANCH  14  17
ATOM     17  C   UNL     1      22.537   1.536  51.050  0.00  0.00    +0.000 A 
ATOM     18  C   UNL     1      23.871   1.565  51.451  0.00  0.00    +0.000 A 
ATOM     19  C   UNL     1      24.272   0.812  52.555  0.00  0.00    +0.000 A 
ATOM     20  C   UNL     1      23.342   0.046  53.276  0.00  0.00    +0.000 A 
ATOM     21  C   UNL     1      23.730  -0.687  54.409  0.00  0.00    +0.000 A 
ATOM     22  C   UNL     1      22.793  -1.418  55.140  0.00  0.00    +0.000 A 
ATOM     23  C   UNL     1      21.460  -1.439  54.739  0.00  0.00    +0.000 A 
ATOM     24  C   UNL     1      21.059  -0.727  53.607  0.00  0.00    +0.000 A 
ATOM     25  C   UNL     1      21.986   0.026  52.869  0.00  0.00    +0.000 A 
ATOM     26  C   UNL     1      21.592   0.775  51.748  0.00  0.00    +0.000 A 
ENDBRANCH  14  17
ENDBRANCH   7  14
BRANCH   4  27
ATOM     27  S   UNL     1      27.131   4.894  48.793  0.00  0.00    +0.000 S 
ATOM     28  H   UNL     1      26.718   4.538  47.546  0.00  0.00    +0.000 HD
ENDBRANCH   4  27
TORSDOF 3
ENDMDL
MODEL 7
REMARK VINA RESULT:    -8.609      4.248      6.397
REMARK INTER + INTRA:         -10.048
REMARK INTER:                  -9.365
REMARK INTRA:                  -0.684
REMARK UNBOUND:                -0.181
REMARK  Name = 
REMARK  3 active torsions:
REMARK  status: ('A' for Active; 'I' for Inactive)
REMARK    1  A    between atoms: C_4  and  S_5
REMARK    2  A    between atoms: C_8  and  S_9
REMARK    3  A    between atoms: S_9  and  C_12
REMARK                            x       y       z     vdW  Elec       q    Type
REMARK                         _______ _______ _______ _____ _____    ______ ____
ROOT
ATOM      1  N   UNL     1      24.974  -1.572  55.891  0.00  0.00    +0.000 N 
ATOM      2  C   UNL     1      24.731  -0.763  54.801  0.00  0.00    +0.000 A 
ATOM      3  N   UNL     1      25.733  -0.016  54.347  0.00  0.00    +0.000 NA
ATOM      4  C   UNL     1      25.474   0.742  53.267  0.00  0.00    +0.000 A 
ATOM      5  C   UNL     1      24.223   0.799  52.638  0.00  0.00    +0.000 A 
ATOM      6  C   UNL     1      23.894   1.568  51.493  0.00  0.00    +0.000 A 
ATOM      7  C   UNL     1      22.596   1.553  50.987  0.00  0.00    +0.000 A 
ATOM      8  C   UNL     1      21.609   0.802  51.617  0.00  0.00    +0.000 A 
ATOM      9  C   UNL     1      21.949   0.032  52.733  0.00  0.00    +0.000 A 
ATOM     10  C   UNL     1      23.243   0.008  53.247  0.00  0.00    +0.000 A 
ATOM     11  N   UNL     1      23.494  -0.764  54.308  0.00  0.00    +0.000 NA
ATOM     12  H   UNL     1      25.873  -1.603  56.290  0.00  0.00    +0.000 HD
ATOM     13  H   UNL     1      24.248  -2.117  56.269  0.00  0.00    +0.000 HD
ENDROOT
BRANCH   7  14
ATOM     14  S   UNL     1      22.190   2.547  49.569  0.00  0.00    +0.000 S 
ATOM     15  O   UNL     1      22.756   1.881  48.409  0.00  0.00    +0.000 OA
ATOM     16  O   UNL     1      20.768   2.829  49.632  0.00  0.00    +0.000 OA
BRANCH  14  17
ATOM     17  C   UNL     1      23.052   4.085  49.785  0.00  0.00    +0.000 A 
ATOM     18  C   UNL     1      22.538   5.041  50.660  0.00  0.00    +0.000 A 
ATOM     19  C   UNL     1      23.236   6.232  50.861  0.00  0.00    +0.000 A 
ATOM     20  C   UNL     1      24.458   6.465  50.210  0.00  0.00    +0.000 A 
ATOM     21  C   UNL     1      25.183   7.646  50.434  0.00  0.00    +0.000 A 
ATOM     22  C   UNL     1      26.413   7.856  49.809  0.00  0.00    +0.000 A 
ATOM     23  C   UNL     1      26.926   6.896  48.940  0.00  0.00    +0.000 A 
ATOM     24  C   UNL     1      26.210   5.723  48.695  0.00  0.00    +0.000 A 
ATOM     25  C   UNL     1      24.979   5.488  49.328  0.00  0.00    +0.000 A 
ATOM     26  C   UNL     1      24.264   4.298  49.118  0.00  0.00    +0.000 A 
ENDBRANCH  14  17
ENDBRANCH   7  14
BRANCH   4  27
ATOM     27  S   UNL     1      26.873   1.693  52.705  0.00  0.00    +0.000 S 
ATOM     28  H   UNL     1      27.506   2.245  53.775  0.00  0.00    +0.000 HD
ENDBRANCH   4  27
TORSDOF 3
ENDMDL
MODEL 8
REMARK VINA RESULT:    -8.540      5.773      8.024
REMARK INTER + INTRA:          -9.969
REMARK INTER:                  -9.959
REMARK INTRA:                  -0.010
REMARK UNBOUND:                -0.181
REMARK  Name = 
REMARK  3 active torsions:
REMARK  status: ('A' for Active; 'I' for Inactive)
REMARK    1  A    between atoms: C_4  and  S_5
REMARK    2  A    between atoms: C_8  and  S_9
REMARK    3  A    between atoms: S_9  and  C_12
REMARK                            x       y       z     vdW  Elec       q    Type
REMARK                         _______ _______ _______ _____ _____    ______ ____
ROOT
ATOM      1  N   UNL     1      29.711   6.537  47.543  0.00  0.00    +0.000 N 
ATOM      2  C   UNL     1      28.502   6.380  48.186  0.00  0.00    +0.000 A 
ATOM      3  N   UNL     1      27.860   7.477  48.578  0.00  0.00    +0.000 NA
ATOM      4  C   UNL     1      26.671   7.294  49.179  0.00  0.00    +0.000 A 
ATOM      5  C   UNL     1      26.111   6.034  49.427  0.00  0.00    +0.000 A 
ATOM      6  C   UNL     1      24.860   5.779  50.045  0.00  0.00    +0.000 A 
ATOM      7  C   UNL     1      24.436   4.468  50.257  0.00  0.00    +0.000 A 
ATOM      8  C   UNL     1      25.250   3.403  49.889  0.00  0.00    +0.000 A 
ATOM      9  C   UNL     1      26.472   3.666  49.263  0.00  0.00    +0.000 A 
ATOM     10  C   UNL     1      26.912   4.963  49.015  0.00  0.00    +0.000 A 
ATOM     11  N   UNL     1      28.085   5.133  48.400  0.00  0.00    +0.000 NA
ATOM     12  H   UNL     1      30.059   7.440  47.364  0.00  0.00    +0.000 HD
ATOM     13  H   UNL     1      30.225   5.746  47.263  0.00  0.00    +0.000 HD
ENDROOT
BRANCH   7  14
ATOM     14  S   UNL     1      22.879   4.164  51.060  0.00  0.00    +0.000 S 
ATOM     15  O   UNL     1      22.659   5.261  51.987  0.00  0.00    +0.000 OA
ATOM     16  O   UNL     1      21.907   3.874  50.023  0.00  0.00    +0.000 OA
BRANCH  14  17
ATOM     17  C   UNL     1      23.101   2.683  52.017  0.00  0.00    +0.000 A 
ATOM     18  C   UNL     1      24.370   2.359  52.491  0.00  0.00    +0.000 A 
ATOM     19  C   UNL     1      24.538   1.218  53.276  0.00  0.00    +0.000 A 
ATOM     20  C   UNL     1      23.439   0.411  53.611  0.00  0.00    +0.000 A 
ATOM     21  C   UNL     1      23.593  -0.719  54.430  0.00  0.00    +0.000 A 
ATOM     22  C   UNL     1      22.491  -1.497  54.786  0.00  0.00    +0.000 A 
ATOM     23  C   UNL     1      21.223  -1.166  54.315  0.00  0.00    +0.000 A 
ATOM     24  C   UNL     1      21.054  -0.054  53.488  0.00  0.00    +0.000 A 
ATOM     25  C   UNL     1      22.150   0.749  53.133  0.00  0.00    +0.000 A 
ATOM     26  C   UNL     1      21.991   1.890  52.330  0.00  0.00    +0.000 A 
ENDBRANCH  14  17
ENDBRANCH   7  14
BRANCH   4  27
ATOM     27  S   UNL     1      25.863   8.812  49.650  0.00  0.00    +0.000 S 
ATOM     28  H   UNL     1      26.372   9.842  48.921  0.00  0.00    +0.000 HD
ENDBRANCH   4  27
TORSDOF 3
ENDMDL
MODEL 9
REMARK VINA RESULT:    -8.523      4.093      7.302
REMARK INTER + INTRA:          -9.950
REMARK INTER:                  -9.392
REMARK INTRA:                  -0.558
REMARK UNBOUND:                -0.181
REMARK  Name = 
REMARK  3 active torsions:
REMARK  status: ('A' for Active; 'I' for Inactive)
REMARK    1  A    between atoms: C_4  and  S_5
REMARK    2  A    between atoms: C_8  and  S_9
REMARK    3  A    between atoms: S_9  and  C_12
REMARK                            x       y       z     vdW  Elec       q    Type
REMARK                         _______ _______ _______ _____ _____    ______ ____
ROOT
ATOM      1  N   UNL     1      29.778   1.338  53.994  0.00  0.00    +0.000 N 
ATOM      2  C   UNL     1      28.427   1.164  53.783  0.00  0.00    +0.000 A 
ATOM      3  N   UNL     1      27.859   1.851  52.797  0.00  0.00    +0.000 NA
ATOM      4  C   UNL     1      26.546   1.640  52.598  0.00  0.00    +0.000 A 
ATOM      5  C   UNL     1      25.770   0.774  53.381  0.00  0.00    +0.000 A 
ATOM      6  C   UNL     1      24.388   0.503  53.213  0.00  0.00    +0.000 A 
ATOM      7  C   UNL     1      23.731  -0.362  54.086  0.00  0.00    +0.000 A 
ATOM      8  C   UNL     1      24.421  -0.944  55.144  0.00  0.00    +0.000 A 
ATOM      9  C   UNL     1      25.788  -0.685  55.288  0.00  0.00    +0.000 A 
ATOM     10  C   UNL     1      26.476   0.156  54.418  0.00  0.00    +0.000 A 
ATOM     11  N   UNL     1      27.784   0.342  54.612  0.00  0.00    +0.000 NA
ATOM     12  H   UNL     1      30.295   1.936  53.407  0.00  0.00    +0.000 HD
ATOM     13  H   UNL     1      30.225   0.865  54.732  0.00  0.00    +0.000 HD
ENDROOT
BRANCH   7  14
ATOM     14  S   UNL     1      21.991  -0.668  53.881  0.00  0.00    +0.000 S 
ATOM     15  O   UNL     1      21.861  -1.990  53.292  0.00  0.00    +0.000 OA
ATOM     16  O   UNL     1      21.346  -0.361  55.144  0.00  0.00    +0.000 OA
BRANCH  14  17
ATOM     17  C   UNL     1      21.421   0.516  52.686  0.00  0.00    +0.000 A 
ATOM     18  C   UNL     1      20.828   1.699  53.125  0.00  0.00    +0.000 A 
ATOM     19  C   UNL     1      20.417   2.648  52.189  0.00  0.00    +0.000 A 
ATOM     20  C   UNL     1      20.616   2.433  50.815  0.00  0.00    +0.000 A 
ATOM     21  C   UNL     1      20.237   3.398  49.869  0.00  0.00    +0.000 A 
ATOM     22  C   UNL     1      20.469   3.191  48.508  0.00  0.00    +0.000 A 
ATOM     23  C   UNL     1      21.066   2.010  48.075  0.00  0.00    +0.000 A 
ATOM     24  C   UNL     1      21.436   1.034  49.002  0.00  0.00    +0.000 A 
ATOM     25  C   UNL     1      21.225   1.232  50.376  0.00  0.00    +0.000 A 
ATOM     26  C   UNL     1      21.622   0.275  51.323  0.00  0.00    +0.000 A 
ENDBRANCH  14  17
ENDBRANCH   7  14
BRANCH   4  27
ATOM     27  S   UNL     1      25.864   2.578  51.244  0.00  0.00    +0.000 S 
ATOM     28  H   UNL     1      25.510   1.732  50.239  0.00  0.00    +0.000 HD
ENDBRANCH   4  27
TORSDOF 3
ENDMDL
