MODEL 1
REMARK VINA RESULT:    -8.174      0.000      0.000
REMARK INTER + INTRA:         -10.622
REMARK INTER:                 -10.086
REMARK INTRA:                  -0.537
REMARK UNBOUND:                -0.537
REMARK  Name = 
REMARK  6 active torsions:
REMARK  status: ('A' for Active; 'I' for Inactive)
REMARK    1  A    between atoms: C_1  and  N_2
REMARK    2  A    between atoms: N_2  and  C_3
REMARK    3  A    between atoms: C_8  and  S_9
REMARK    4  A    between atoms: S_9  and  N_12
REMARK    5  A    between atoms: C_19  and  O_20
REMARK    6  A    between atoms: O_20  and  C_21
REMARK                            x       y       z     vdW  Elec       q    Type
REMARK                         _______ _______ _______ _____ _____    ______ ____
ROOT
ATOM      1  S   UNL     1      21.774   2.697  51.770  0.00  0.00    +0.000 S 
ATOM      2  O   UNL     1      22.018   2.594  50.347  0.00  0.00    +0.000 OA
ATOM      3  O   UNL     1      20.708   3.564  52.239  0.00  0.00    +0.000 OA
ENDROOT
BRANCH   1   9
ATOM      4  C   UNL     1      18.471  -1.186  53.109  0.00  0.00    +0.000 A 
ATOM      5  C   UNL     1      17.599  -0.677  52.136  0.00  0.00    +0.000 A 
ATOM      6  C   UNL     1      18.043   0.177  51.140  0.00  0.00    +0.000 A 
ATOM      7  C   UNL     1      19.336   0.675  51.183  0.00  0.00    +0.000 A 
ATOM      8  C   UNL     1      20.214   0.376  52.245  0.00  0.00    +0.000 A 
ATOM      9  C   UNL     1      21.468   1.034  52.415  0.00  0.00    +0.000 A 
ATOM     10  C   UNL     1      22.374   0.589  53.387  0.00  0.00    +0.000 A 
ATOM     11  C   UNL     1      22.031  -0.464  54.227  0.00  0.00    +0.000 A 
ATOM     12  C   UNL     1      20.758  -1.038  54.146  0.00  0.00    +0.000 A 
ATOM     13  C   UNL     1      19.803  -0.637  53.176  0.00  0.00    +0.000 A 
BRANCH   4  15
ATOM     14  C   UNL     1      17.477  -3.400  53.679  0.00  0.00    +0.000 C 
ATOM     15  N   UNL     1      17.974  -2.084  54.077  0.00  0.00    +0.000 N 
ATOM     16  H   UNL     1      17.960  -1.822  55.026  0.00  0.00    +0.000 HD
ENDBRANCH   4  15
ENDBRANCH   1   9
BRANCH   1  17
ATOM     17  N   UNL     1      23.228   3.242  52.425  0.00  0.00    +0.000 N 
ATOM     18  C   UNL     1      24.255   3.553  51.494  0.00  0.00    +0.000 A 
ATOM     19  N   UNL     1      24.180   4.812  51.022  0.00  0.00    +0.000 NA
ATOM     20  C   UNL     1      25.190   5.174  50.190  0.00  0.00    +0.000 A 
ATOM     21  C   UNL     1      26.216   4.313  49.820  0.00  0.00    +0.000 A 
ATOM     22 BR   UNL     1      27.590   4.918  48.671  0.00  0.00    +0.000 Br
ATOM     23  N   UNL     1      26.280   3.043  50.270  0.00  0.00    +0.000 NA
ATOM     24  C   UNL     1      25.280   2.662  51.105  0.00  0.00    +0.000 A 
ATOM     25  H   UNL     1      23.357   3.337  53.396  0.00  0.00    +0.000 HD
BRANCH  24  26
ATOM     26  O   UNL     1      25.318   1.380  51.621  0.00  0.00    +0.000 OA
ATOM     27  C   UNL     1      26.647   0.968  51.970  0.00  0.00    +0.000 C 
ENDBRANCH  24  26
ENDBRANCH   1  17
TORSDOF 4
ENDMDL
MODEL 2
REMARK VINA RESULT:    -7.907      1.348      2.286
REMARK INTER + INTRA:         -10.293
REMARK INTER:                  -9.994
REMARK INTRA:                  -0.299
REMARK UNBOUND:                -0.537
REMARK  Name = 
REMARK  6 active torsions:
REMARK  status: ('A' for Active; 'I' for Inactive)
REMARK    1  A    between atoms: C_1  and  N_2
REMARK    2  A    between atoms: N_2  and  C_3
REMARK    3  A    between atoms: C_8  and  S_9
REMARK    4  A    between atoms: S_9  and  N_12
REMARK    5  A    between atoms: C_19  and  O_20
REMARK    6  A    between atoms: O_20  and  C_21
REMARK                            x       y       z     vdW  Elec       q    Type
REMARK                         _______ _______ _______ _____ _____    ______ ____
ROOT
ATOM      1  S   UNL     1      23.099   2.018  52.460  0.00  0.00    +0.000 S 
ATOM      2  O   UNL     1      22.124   3.086  52.508  0.00  0.00    +0.000 OA
ATOM      3  O   UNL     1      24.313   2.139  53.247  0.00  0.00    +0.000 OA
ENDROOT
BRANCH   1   9
ATOM      4  C   UNL     1      18.725  -0.845  53.137  0.00  0.00    +0.000 A 
ATOM      5  C   UNL     1      18.149  -0.064  52.124  0.00  0.00    +0.000 A 
ATOM      6  C   UNL     1      18.925   0.679  51.251  0.00  0.00    +0.000 A 
ATOM      7  C   UNL     1      20.291   0.792  51.466  0.00  0.00    +0.000 A 
ATOM      8  C   UNL     1      20.919   0.206  52.584  0.00  0.00    +0.000 A 
ATOM      9  C   UNL     1      22.276   0.477  52.933  0.00  0.00    +0.000 A 
ATOM     10  C   UNL     1      22.902  -0.252  53.954  0.00  0.00    +0.000 A 
ATOM     11  C   UNL     1      22.185  -1.206  54.666  0.00  0.00    +0.000 A 
ATOM     12  C   UNL     1      20.824  -1.396  54.410  0.00  0.00    +0.000 A 
ATOM     13  C   UNL     1      20.138  -0.695  53.383  0.00  0.00    +0.000 A 
BRANCH   4  15
ATOM     14  C   UNL     1      17.569  -2.998  53.629  0.00  0.00    +0.000 C 
ATOM     15  N   UNL     1      17.889  -1.614  53.973  0.00  0.00    +0.000 N 
ATOM     16  H   UNL     1      17.517  -1.216  54.793  0.00  0.00    +0.000 HD
ENDBRANCH   4  15
ENDBRANCH   1   9
BRANCH   1  17
ATOM     17  N   UNL     1      23.528   1.891  50.835  0.00  0.00    +0.000 N 
ATOM     18  C   UNL     1      24.352   2.930  50.323  0.00  0.00    +0.000 A 
ATOM     19  N   UNL     1      25.665   2.714  50.523  0.00  0.00    +0.000 NA
ATOM     20  C   UNL     1      26.489   3.645  49.979  0.00  0.00    +0.000 A 
ATOM     21  C   UNL     1      26.027   4.760  49.289  0.00  0.00    +0.000 A 
ATOM     22 BR   UNL     1      27.256   5.991  48.548  0.00  0.00    +0.000 Br
ATOM     23  N   UNL     1      24.711   4.993  49.109  0.00  0.00    +0.000 NA
ATOM     24  C   UNL     1      23.870   4.072  49.645  0.00  0.00    +0.000 A 
ATOM     25  H   UNL     1      23.225   1.141  50.275  0.00  0.00    +0.000 HD
BRANCH  24  26
ATOM     26  O   UNL     1      22.511   4.247  49.460  0.00  0.00    +0.000 OA
ATOM     27  C   UNL     1      22.052   5.521  49.934  0.00  0.00    +0.000 C 
ENDBRANCH  24  26
ENDBRANCH   1  17
TORSDOF 4
ENDMDL
MODEL 3
REMARK VINA RESULT:    -7.856      3.658      7.666
REMARK INTER + INTRA:         -10.230
REMARK INTER:                  -9.843
REMARK INTRA:                  -0.387
REMARK UNBOUND:                -0.537
REMARK  Name = 
REMARK  6 active torsions:
REMARK  status: ('A' for Active; 'I' for Inactive)
REMARK    1  A    between atoms: C_1  and  N_2
REMARK    2  A    between atoms: N_2  and  C_3
REMARK    3  A    between atoms: C_8  and  S_9
REMARK    4  A    between atoms: S_9  and  N_12
REMARK    5  A    between atoms: C_19  and  O_20
REMARK    6  A    between atoms: O_20  and  C_21
REMARK                            x       y       z     vdW  Elec       q    Type
REMARK                         _______ _______ _______ _____ _____    ______ ____
ROOT
ATOM      1  S   UNL     1      22.882  -0.579  53.858  0.00  0.00    +0.000 S 
ATOM      2  O   UNL     1      22.465  -1.465  52.791  0.00  0.00    +0.000 OA
ATOM      3  O   UNL     1      23.356  -1.155  55.103  0.00  0.00    +0.000 OA
ENDROOT
BRANCH   1   9
ATOM      4  C   UNL     1      27.967   0.573  53.083  0.00  0.00    +0.000 A 
ATOM      5  C   UNL     1      28.202  -0.809  53.089  0.00  0.00    +0.000 A 
ATOM      6  C   UNL     1      27.177  -1.720  52.898  0.00  0.00    +0.000 A 
ATOM      7  C   UNL     1      25.862  -1.282  52.857  0.00  0.00    +0.000 A 
ATOM      8  C   UNL     1      25.523   0.073  53.052  0.00  0.00    +0.000 A 
ATOM      9  C   UNL     1      24.175   0.512  53.216  0.00  0.00    +0.000 A 
ATOM     10  C   UNL     1      23.877   1.881  53.243  0.00  0.00    +0.000 A 
ATOM     11  C   UNL     1      24.900   2.818  53.164  0.00  0.00    +0.000 A 
ATOM     12  C   UNL     1      26.233   2.396  53.120  0.00  0.00    +0.000 A 
ATOM     13  C   UNL     1      26.597   1.025  53.081  0.00  0.00    +0.000 A 
BRANCH   4  15
ATOM     14  C   UNL     1      29.475   1.880  54.577  0.00  0.00    +0.000 C 
ATOM     15  N   UNL     1      29.054   1.458  53.243  0.00  0.00    +0.000 N 
ATOM     16  H   UNL     1      29.532   1.794  52.450  0.00  0.00    +0.000 HD
ENDBRANCH   4  15
ENDBRANCH   1   9
BRANCH   1  17
ATOM     17  N   UNL     1      21.530   0.369  54.191  0.00  0.00    +0.000 N 
ATOM     18  C   UNL     1      20.421   0.206  53.317  0.00  0.00    +0.000 A 
ATOM     19  N   UNL     1      19.605  -0.802  53.677  0.00  0.00    +0.000 NA
ATOM     20  C   UNL     1      18.491  -0.940  52.913  0.00  0.00    +0.000 A 
ATOM     21  C   UNL     1      18.214  -0.127  51.820  0.00  0.00    +0.000 A 
ATOM     22 BR   UNL     1      16.624  -0.385  50.829  0.00  0.00    +0.000 Br
ATOM     23  N   UNL     1      19.042   0.867  51.440  0.00  0.00    +0.000 NA
ATOM     24  C   UNL     1      20.161   1.022  52.194  0.00  0.00    +0.000 A 
ATOM     25  H   UNL     1      21.510   0.999  54.947  0.00  0.00    +0.000 HD
BRANCH  24  26
ATOM     26  O   UNL     1      21.026   2.050  51.867  0.00  0.00    +0.000 OA
ATOM     27  C   UNL     1      20.460   3.344  52.114  0.00  0.00    +0.000 C 
ENDBRANCH  24  26
ENDBRANCH   1  17
TORSDOF 4
ENDMDL
MODEL 4
REMARK VINA RESULT:    -7.822      3.006      5.081
REMARK INTER + INTRA:         -10.188
REMARK INTER:                  -9.768
REMARK INTRA:                  -0.419
REMARK UNBOUND:                -0.537
REMARK  Name = 
REMARK  6 active torsions:
REMARK  status: ('A' for Active; 'I' for Inactive)
REMARK    1  A    between atoms: C_1  and  N_2
REMARK    2  A    between atoms: N_2  and  C_3
REMARK    3  A    between atoms: C_8  and  S_9
REMARK    4  A    between atoms: S_9  and  N_12
REMARK    5  A    between atoms: C_19  and  O_20
REMARK    6  A    between atoms: O_20  and  C_21
REMARK                            x       y       z     vdW  Elec       q    Type
REMARK                         _______ _______ _______ _____ _____    ______ ____
ROOT
ATOM      1  S   UNL     1      22.641   3.529  52.044  0.00  0.00    +0.000 S 
ATOM      2  O   UNL     1      21.210   3.745  52.079  0.00  0.00    +0.000 OA
ATOM      3  O   UNL     1      23.518   4.545  52.599  0.00  0.00    +0.000 OA
ENDROOT
BRANCH   1   9
ATOM      4  C   UNL     1      26.034  -0.205  53.570  0.00  0.00    +0.000 A 
ATOM      5  C   UNL     1      27.013   0.799  53.587  0.00  0.00    +0.000 A 
ATOM      6  C   UNL     1      26.674   2.141  53.617  0.00  0.00    +0.000 A 
ATOM      7  C   UNL     1      25.350   2.524  53.467  0.00  0.00    +0.000 A 
ATOM      8  C   UNL     1      24.326   1.582  53.236  0.00  0.00    +0.000 A 
ATOM      9  C   UNL     1      22.998   1.964  52.879  0.00  0.00    +0.000 A 
ATOM     10  C   UNL     1      21.979   1.003  52.820  0.00  0.00    +0.000 A 
ATOM     11  C   UNL     1      22.270  -0.335  53.058  0.00  0.00    +0.000 A 
ATOM     12  C   UNL     1      23.590  -0.733  53.293  0.00  0.00    +0.000 A 
ATOM     13  C   UNL     1      24.662   0.194  53.374  0.00  0.00    +0.000 A 
BRANCH   4  15
ATOM     14  C   UNL     1      27.186  -2.115  52.458  0.00  0.00    +0.000 C 
ATOM     15  N   UNL     1      26.434  -1.558  53.580  0.00  0.00    +0.000 N 
ATOM     16  H   UNL     1      26.205  -2.130  54.348  0.00  0.00    +0.000 HD
ENDBRANCH   4  15
ENDBRANCH   1   9
BRANCH   1  17
ATOM     17  N   UNL     1      23.013   3.337  50.413  0.00  0.00    +0.000 N 
ATOM     18  C   UNL     1      24.228   3.930  49.974  0.00  0.00    +0.000 A 
ATOM     19  N   UNL     1      25.300   3.135  50.149  0.00  0.00    +0.000 NA
ATOM     20  C   UNL     1      26.468   3.634  49.670  0.00  0.00    +0.000 A 
ATOM     21  C   UNL     1      26.573   4.882  49.068  0.00  0.00    +0.000 A 
ATOM     22 BR   UNL     1      28.243   5.480  48.414  0.00  0.00    +0.000 Br
ATOM     23  N   UNL     1      25.506   5.692  48.915  0.00  0.00    +0.000 NA
ATOM     24  C   UNL     1      24.327   5.211  49.386  0.00  0.00    +0.000 A 
ATOM     25  H   UNL     1      22.423   2.843  49.799  0.00  0.00    +0.000 HD
BRANCH  24  26
ATOM     26  O   UNL     1      23.196   5.989  49.223  0.00  0.00    +0.000 OA
ATOM     27  C   UNL     1      23.142   7.081  50.151  0.00  0.00    +0.000 C 
ENDBRANCH  24  26
ENDBRANCH   1  17
TORSDOF 4
ENDMDL
MODEL 5
REMARK VINA RESULT:    -7.635      2.053      2.774
REMARK INTER + INTRA:          -9.957
REMARK INTER:                 -10.017
REMARK INTRA:                   0.059
REMARK UNBOUND:                -0.537
REMARK  Name = 
REMARK  6 active torsions:
REMARK  status: ('A' for Active; 'I' for Inactive)
REMARK    1  A    between atoms: C_1  and  N_2
REMARK    2  A    between atoms: N_2  and  C_3
REMARK    3  A    between atoms: C_8  and  S_9
REMARK    4  A    between atoms: S_9  and  N_12
REMARK    5  A    between atoms: C_19  and  O_20
REMARK    6  A    between atoms: O_20  and  C_21
REMARK                            x       y       z     vdW  Elec       q    Type
REMARK                         _______ _______ _______ _____ _____    ______ ____
ROOT
ATOM      1  S   UNL     1      22.856   1.872  52.141  0.00  0.00    +0.000 S 
ATOM      2  O   UNL     1      21.952   2.549  51.236  0.00  0.00    +0.000 OA
ATOM      3  O   UNL     1      23.391   2.602  53.276  0.00  0.00    +0.000 OA
ENDROOT
BRANCH   1   9
ATOM      4  C   UNL     1      18.486  -0.961  52.953  0.00  0.00    +0.000 A 
ATOM      5  C   UNL     1      17.958  -0.331  51.818  0.00  0.00    +0.000 A 
ATOM      6  C   UNL     1      18.773   0.307  50.898  0.00  0.00    +0.000 A 
ATOM      7  C   UNL     1      20.123   0.473  51.168  0.00  0.00    +0.000 A 
ATOM      8  C   UNL     1      20.694   0.051  52.385  0.00  0.00    +0.000 A 
ATOM      9  C   UNL     1      22.026   0.390  52.768  0.00  0.00    +0.000 A 
ATOM     10  C   UNL     1      22.604  -0.187  53.907  0.00  0.00    +0.000 A 
ATOM     11  C   UNL     1      21.861  -1.054  54.699  0.00  0.00    +0.000 A 
ATOM     12  C   UNL     1      20.518  -1.301  54.398  0.00  0.00    +0.000 A 
ATOM     13  C   UNL     1      19.882  -0.754  53.253  0.00  0.00    +0.000 A 
BRANCH   4  15
ATOM     14  C   UNL     1      17.357  -3.061  53.681  0.00  0.00    +0.000 C 
ATOM     15  N   UNL     1      17.614  -1.631  53.838  0.00  0.00    +0.000 N 
ATOM     16  H   UNL     1      17.176  -1.131  54.564  0.00  0.00    +0.000 HD
ENDBRANCH   4  15
ENDBRANCH   1   9
BRANCH   1  17
ATOM     17  N   UNL     1      24.144   1.370  51.177  0.00  0.00    +0.000 N 
ATOM     18  C   UNL     1      25.405   1.266  51.822  0.00  0.00    +0.000 A 
ATOM     19  N   UNL     1      25.598   0.076  52.423  0.00  0.00    +0.000 NA
ATOM     20  C   UNL     1      26.823  -0.091  52.983  0.00  0.00    +0.000 A 
ATOM     21  C   UNL     1      27.806   0.892  52.973  0.00  0.00    +0.000 A 
ATOM     22 BR   UNL     1      29.490   0.555  53.763  0.00  0.00    +0.000 Br
ATOM     23  N   UNL     1      27.606   2.094  52.395  0.00  0.00    +0.000 NA
ATOM     24  C   UNL     1      26.387   2.281  51.826  0.00  0.00    +0.000 A 
ATOM     25  H   UNL     1      24.027   1.161  50.222  0.00  0.00    +0.000 HD
BRANCH  24  26
ATOM     26  O   UNL     1      26.145   3.485  51.191  0.00  0.00    +0.000 OA
ATOM     27  C   UNL     1      26.572   3.479  49.822  0.00  0.00    +0.000 C 
ENDBRANCH  24  26
ENDBRANCH   1  17
TORSDOF 4
ENDMDL
MODEL 6
REMARK VINA RESULT:    -7.631      3.526      7.251
REMARK INTER + INTRA:          -9.952
REMARK INTER:                  -9.513
REMARK INTRA:                  -0.440
REMARK UNBOUND:                -0.537
REMARK  Name = 
REMARK  6 active torsions:
REMARK  status: ('A' for Active; 'I' for Inactive)
REMARK    1  A    between atoms: C_1  and  N_2
REMARK    2  A    between atoms: N_2  and  C_3
REMARK    3  A    between atoms: C_8  and  S_9
REMARK    4  A    between atoms: S_9  and  N_12
REMARK    5  A    between atoms: C_19  and  O_20
REMARK    6  A    between atoms: O_20  and  C_21
REMARK                            x       y       z     vdW  Elec       q    Type
REMARK                         _______ _______ _______ _____ _____    ______ ____
ROOT
ATOM      1  S   UNL     1      22.575   2.056  51.271  0.00  0.00    +0.000 S 
ATOM      2  O   UNL     1      22.093   2.395  52.592  0.00  0.00    +0.000 OA
ATOM      3  O   UNL     1      22.265   2.940  50.162  0.00  0.00    +0.000 OA
ENDROOT
BRANCH   1   9
ATOM      4  C   UNL     1      26.963   0.877  53.943  0.00  0.00    +0.000 A 
ATOM      5  C   UNL     1      26.168   0.026  54.724  0.00  0.00    +0.000 A 
ATOM      6  C   UNL     1      24.922  -0.399  54.294  0.00  0.00    +0.000 A 
ATOM      7  C   UNL     1      24.366   0.143  53.145  0.00  0.00    +0.000 A 
ATOM      8  C   UNL     1      25.013   1.160  52.414  0.00  0.00    +0.000 A 
ATOM      9  C   UNL     1      24.374   1.870  51.354  0.00  0.00    +0.000 A 
ATOM     10  C   UNL     1      25.108   2.755  50.552  0.00  0.00    +0.000 A 
ATOM     11  C   UNL     1      26.452   2.984  50.822  0.00  0.00    +0.000 A 
ATOM     12  C   UNL     1      27.057   2.382  51.929  0.00  0.00    +0.000 A 
ATOM     13  C   UNL     1      26.368   1.470  52.771  0.00  0.00    +0.000 A 
BRANCH   4  15
ATOM     14  C   UNL     1      29.421   0.472  54.033  0.00  0.00    +0.000 C 
ATOM     15  N   UNL     1      28.241   1.247  54.412  0.00  0.00    +0.000 N 
ATOM     16  H   UNL     1      28.339   2.032  54.998  0.00  0.00    +0.000 HD
ENDBRANCH   4  15
ENDBRANCH   1   9
BRANCH   1  17
ATOM     17  N   UNL     1      21.918   0.540  50.942  0.00  0.00    +0.000 N 
ATOM     18  C   UNL     1      20.578   0.333  51.366  0.00  0.00    +0.000 A 
ATOM     19  N   UNL     1      19.666   0.747  50.466  0.00  0.00    +0.000 NA
ATOM     20  C   UNL     1      18.375   0.495  50.800  0.00  0.00    +0.000 A 
ATOM     21  C   UNL     1      18.002  -0.116  51.991  0.00  0.00    +0.000 A 
ATOM     22 BR   UNL     1      16.176  -0.443  52.355  0.00  0.00    +0.000 Br
ATOM     23  N   UNL     1      18.911  -0.509  52.907  0.00  0.00    +0.000 NA
ATOM     24  C   UNL     1      20.210  -0.267  52.591  0.00  0.00    +0.000 A 
ATOM     25  H   UNL     1      22.434  -0.162  50.483  0.00  0.00    +0.000 HD
BRANCH  24  26
ATOM     26  O   UNL     1      21.183  -0.681  53.481  0.00  0.00    +0.000 OA
ATOM     27  C   UNL     1      21.061  -0.046  54.762  0.00  0.00    +0.000 C 
ENDBRANCH  24  26
ENDBRANCH   1  17
TORSDOF 4
ENDMDL
MODEL 7
REMARK VINA RESULT:    -7.579      2.454      3.231
REMARK INTER + INTRA:          -9.888
REMARK INTER:                  -9.489
REMARK INTRA:                  -0.399
REMARK UNBOUND:                -0.537
REMARK  Name = 
REMARK  6 active torsions:
REMARK  status: ('A' for Active; 'I' for Inactive)
REMARK    1  A    between atoms: C_1  and  N_2
REMARK    2  A    between atoms: N_2  and  C_3
REMARK    3  A    between atoms: C_8  and  S_9
REMARK    4  A    between atoms: S_9  and  N_12
REMARK    5  A    between atoms: C_19  and  O_20
REMARK    6  A    between atoms: O_20  and  C_21
REMARK                            x       y       z     vdW  Elec       q    Type
REMARK                         _______ _______ _______ _____ _____    ______ ____
ROOT
ATOM      1  S   UNL     1      23.704   1.767  51.998  0.00  0.00    +0.000 S 
ATOM      2  O   UNL     1      25.078   1.685  52.443  0.00  0.00    +0.000 OA
ATOM      3  O   UNL     1      23.430   1.830  50.573  0.00  0.00    +0.000 OA
ENDROOT
BRANCH   1   9
ATOM      4  C   UNL     1      19.187  -0.740  53.045  0.00  0.00    +0.000 A 
ATOM      5  C   UNL     1      18.652  -0.084  51.927  0.00  0.00    +0.000 A 
ATOM      6  C   UNL     1      19.466   0.485  50.963  0.00  0.00    +0.000 A 
ATOM      7  C   UNL     1      20.836   0.557  51.169  0.00  0.00    +0.000 A 
ATOM      8  C   UNL     1      21.432   0.107  52.364  0.00  0.00    +0.000 A 
ATOM      9  C   UNL     1      22.801   0.355  52.681  0.00  0.00    +0.000 A 
ATOM     10  C   UNL     1      23.389  -0.252  53.800  0.00  0.00    +0.000 A 
ATOM     11  C   UNL     1      22.624  -1.055  54.636  0.00  0.00    +0.000 A 
ATOM     12  C   UNL     1      21.254  -1.210  54.400  0.00  0.00    +0.000 A 
ATOM     13  C   UNL     1      20.606  -0.629  53.278  0.00  0.00    +0.000 A 
BRANCH   4  15
ATOM     14  C   UNL     1      17.586  -2.559  53.633  0.00  0.00    +0.000 C 
ATOM     15  N   UNL     1      18.312  -1.337  53.977  0.00  0.00    +0.000 N 
ATOM     16  H   UNL     1      18.189  -0.929  54.864  0.00  0.00    +0.000 HD
ENDBRANCH   4  15
ENDBRANCH   1   9
BRANCH   1  17
ATOM     17  N   UNL     1      23.094   3.162  52.719  0.00  0.00    +0.000 N 
ATOM     18  C   UNL     1      22.379   4.046  51.866  0.00  0.00    +0.000 A 
ATOM     19  N   UNL     1      21.076   3.730  51.746  0.00  0.00    +0.000 NA
ATOM     20  C   UNL     1      20.341   4.596  51.002  0.00  0.00    +0.000 A 
ATOM     21  C   UNL     1      20.884   5.714  50.381  0.00  0.00    +0.000 A 
ATOM     22 BR   UNL     1      19.773   6.873  49.382  0.00  0.00    +0.000 Br
ATOM     23  N   UNL     1      22.194   6.020  50.477  0.00  0.00    +0.000 NA
ATOM     24  C   UNL     1      22.946   5.166  51.218  0.00  0.00    +0.000 A 
ATOM     25  H   UNL     1      23.226   3.353  53.675  0.00  0.00    +0.000 HD
BRANCH  24  26
ATOM     26  O   UNL     1      24.289   5.453  51.376  0.00  0.00    +0.000 OA
ATOM     27  C   UNL     1      25.078   5.021  50.259  0.00  0.00    +0.000 C 
ENDBRANCH  24  26
ENDBRANCH   1  17
TORSDOF 4
ENDMDL
MODEL 8
REMARK VINA RESULT:    -7.548      3.466      8.593
REMARK INTER + INTRA:          -9.849
REMARK INTER:                  -9.322
REMARK INTRA:                  -0.527
REMARK UNBOUND:                -0.537
REMARK  Name = 
REMARK  6 active torsions:
REMARK  status: ('A' for Active; 'I' for Inactive)
REMARK    1  A    between atoms: C_1  and  N_2
REMARK    2  A    between atoms: N_2  and  C_3
REMARK    3  A    between atoms: C_8  and  S_9
REMARK    4  A    between atoms: S_9  and  N_12
REMARK    5  A    between atoms: C_19  and  O_20
REMARK    6  A    between atoms: O_20  and  C_21
REMARK                            x       y       z     vdW  Elec       q    Type
REMARK                         _______ _______ _______ _____ _____    ______ ____
ROOT
ATOM      1  S   UNL     1      23.937   4.053  50.615  0.00  0.00    +0.000 S 
ATOM      2  O   UNL     1      23.802   4.211  52.048  0.00  0.00    +0.000 OA
ATOM      3  O   UNL     1      22.876   4.542  49.753  0.00  0.00    +0.000 OA
ENDROOT
BRANCH   1   9
ATOM      4  C   UNL     1      26.586   8.187  48.698  0.00  0.00    +0.000 A 
ATOM      5  C   UNL     1      25.582   8.992  49.255  0.00  0.00    +0.000 A 
ATOM      6  C   UNL     1      24.731   8.514  50.237  0.00  0.00    +0.000 A 
ATOM      7  C   UNL     1      24.752   7.169  50.575  0.00  0.00    +0.000 A 
ATOM      8  C   UNL     1      25.590   6.249  49.913  0.00  0.00    +0.000 A 
ATOM      9  C   UNL     1      25.484   4.839  50.101  0.00  0.00    +0.000 A 
ATOM     10  C   UNL     1      26.442   3.978  49.549  0.00  0.00    +0.000 A 
ATOM     11  C   UNL     1      27.472   4.492  48.769  0.00  0.00    +0.000 A 
ATOM     12  C   UNL     1      27.517   5.860  48.483  0.00  0.00    +0.000 A 
ATOM     13  C   UNL     1      26.581   6.781  49.021  0.00  0.00    +0.000 A 
BRANCH   4  15
ATOM     14  C   UNL     1      28.548   9.617  48.130  0.00  0.00    +0.000 C 
ATOM     15  N   UNL     1      27.451   8.737  47.729  0.00  0.00    +0.000 N 
ATOM     16  H   UNL     1      27.316   8.528  46.777  0.00  0.00    +0.000 HD
ENDBRANCH   4  15
ENDBRANCH   1   9
BRANCH   1  17
ATOM     17  N   UNL     1      24.099   2.394  50.372  0.00  0.00    +0.000 N 
ATOM     18  C   UNL     1      23.581   1.558  51.398  0.00  0.00    +0.000 A 
ATOM     19  N   UNL     1      22.269   1.290  51.253  0.00  0.00    +0.000 NA
ATOM     20  C   UNL     1      21.755   0.431  52.169  0.00  0.00    +0.000 A 
ATOM     21  C   UNL     1      22.504  -0.118  53.203  0.00  0.00    +0.000 A 
ATOM     22 BR   UNL     1      21.700  -1.324  54.417  0.00  0.00    +0.000 Br
ATOM     23  N   UNL     1      23.812   0.168  53.366  0.00  0.00    +0.000 NA
ATOM     24  C   UNL     1      24.347   1.025  52.459  0.00  0.00    +0.000 A 
ATOM     25  H   UNL     1      24.528   2.026  49.566  0.00  0.00    +0.000 HD
BRANCH  24  26
ATOM     26  O   UNL     1      25.692   1.324  52.562  0.00  0.00    +0.000 OA
ATOM     27  C   UNL     1      26.528   0.295  52.015  0.00  0.00    +0.000 C 
ENDBRANCH  24  26
ENDBRANCH   1  17
TORSDOF 4
ENDMDL
MODEL 9
REMARK VINA RESULT:    -7.343      3.542      8.952
REMARK INTER + INTRA:          -9.596
REMARK INTER:                  -9.326
REMARK INTRA:                  -0.270
REMARK UNBOUND:                -0.537
REMARK  Name = 
REMARK  6 active torsions:
REMARK  status: ('A' for Active; 'I' for Inactive)
REMARK    1  A    between atoms: C_1  and  N_2
REMARK    2  A    between atoms: N_2  and  C_3
REMARK    3  A    between atoms: C_8  and  S_9
REMARK    4  A    between atoms: S_9  and  N_12
REMARK    5  A    between atoms: C_19  and  O_20
REMARK    6  A    between atoms: O_20  and  C_21
REMARK                            x       y       z     vdW  Elec       q    Type
REMARK                         _______ _______ _______ _____ _____    ______ ____
ROOT
ATOM      1  S   UNL     1      25.235   3.438  50.832  0.00  0.00    +0.000 S 
ATOM      2  O   UNL     1      24.321   2.650  50.033  0.00  0.00    +0.000 OA
ATOM      3  O   UNL     1      26.631   3.043  50.895  0.00  0.00    +0.000 OA
ENDROOT
BRANCH   1   9
ATOM      4  C   UNL     1      27.586   7.768  48.959  0.00  0.00    +0.000 A 
ATOM      5  C   UNL     1      28.540   6.912  48.391  0.00  0.00    +0.000 A 
ATOM      6  C   UNL     1      28.292   5.560  48.220  0.00  0.00    +0.000 A 
ATOM      7  C   UNL     1      27.145   4.995  48.758  0.00  0.00    +0.000 A 
ATOM      8  C   UNL     1      26.234   5.749  49.524  0.00  0.00    +0.000 A 
ATOM      9  C   UNL     1      25.162   5.151  50.253  0.00  0.00    +0.000 A 
ATOM     10  C   UNL     1      24.189   5.953  50.864  0.00  0.00    +0.000 A 
ATOM     11  C   UNL     1      24.293   7.337  50.808  0.00  0.00    +0.000 A 
ATOM     12  C   UNL     1      25.401   7.932  50.196  0.00  0.00    +0.000 A 
ATOM     13  C   UNL     1      26.414   7.173  49.553  0.00  0.00    +0.000 A 
BRANCH   4  15
ATOM     14  C   UNL     1      29.255   9.597  49.246  0.00  0.00    +0.000 C 
ATOM     15  N   UNL     1      27.876   9.143  49.073  0.00  0.00    +0.000 N 
ATOM     16  H   UNL     1      27.145   9.802  49.037  0.00  0.00    +0.000 HD
ENDBRANCH   4  15
ENDBRANCH   1   9
BRANCH   1  17
ATOM     17  N   UNL     1      24.599   3.396  52.392  0.00  0.00    +0.000 N 
ATOM     18  C   UNL     1      23.841   2.243  52.728  0.00  0.00    +0.000 A 
ATOM     19  N   UNL     1      24.597   1.224  53.180  0.00  0.00    +0.000 NA
ATOM     20  C   UNL     1      23.902   0.131  53.586  0.00  0.00    +0.000 A 
ATOM     21  C   UNL     1      22.516   0.042  53.520  0.00  0.00    +0.000 A 
ATOM     22 BR   UNL     1      21.638  -1.517  54.131  0.00  0.00    +0.000 Br
ATOM     23  N   UNL     1      21.758   1.050  53.044  0.00  0.00    +0.000 NA
ATOM     24  C   UNL     1      22.434   2.154  52.633  0.00  0.00    +0.000 A 
ATOM     25  H   UNL     1      24.745   4.130  53.032  0.00  0.00    +0.000 HD
BRANCH  24  26
ATOM     26  O   UNL     1      21.701   3.230  52.168  0.00  0.00    +0.000 OA
ATOM     27  C   UNL     1      20.826   2.872  51.089  0.00  0.00    +0.000 C 
ENDBRANCH  24  26
ENDBRANCH   1  17
TORSDOF 4
ENDMDL
