MODEL 1
REMARK VINA RESULT:    -7.532      0.000      0.000
REMARK INTER + INTRA:         -16.812
REMARK INTER:                 -13.696
REMARK INTRA:                  -3.117
REMARK UNBOUND:                -3.117
REMARK  Name = 
REMARK  17 active torsions:
REMARK  status: ('A' for Active; 'I' for Inactive)
REMARK    1  A    between atoms: C_1  and  O_2
REMARK    2  A    between atoms: O_2  and  C_3
REMARK    3  A    between atoms: C_3  and  C_5
REMARK    4  A    between atoms: C_5  and  C_6
REMARK    5  A    between atoms: C_6  and  C_7
REMARK    6  A    between atoms: C_8  and  C_9
REMARK    7  A    between atoms: C_9  and  C_10
REMARK    8  A    between atoms: C_10  and  C_11
REMARK    9  A    between atoms: C_15  and  O_16
REMARK   10  A    between atoms: C_17  and  C_18
REMARK   11  A    between atoms: C_19  and  C_20
REMARK   12  A    between atoms: C_20  and  C_21
REMARK   13  A    between atoms: C_21  and  C_22
REMARK   14  A    between atoms: C_21  and  O_23
REMARK   15  A    between atoms: C_21  and  C_24
REMARK   16  A    between atoms: C_24  and  C_25
REMARK   17  A    between atoms: C_25  and  C_26
REMARK                            x       y       z     vdW  Elec       q    Type
REMARK                         _______ _______ _______ _____ _____    ______ ____
ROOT
ATOM      1  C   UNL     1      24.160   2.982  51.533  0.00  0.00    +0.000 C 
ATOM      2  C   UNL     1      23.613   4.357  51.880  0.00  0.00    +0.000 C 
ATOM      3  O   UNL     1      22.995   4.608  52.908  0.00  0.00    +0.000 OA
ATOM      4  C   UNL     1      23.856   5.383  50.804  0.00  0.00    +0.000 C 
ATOM      5  C   UNL     1      24.822   4.644  49.883  0.00  0.00    +0.000 C 
ATOM      6  C   UNL     1      24.444   3.155  50.021  0.00  0.00    +0.000 C 
ENDROOT
BRANCH   5   7
ATOM      7  O   UNL     1      26.182   4.869  50.247  0.00  0.00    +0.000 OA
ATOM      8  H   UNL     1      26.337   5.821  50.342  0.00  0.00    +0.000 HD
ENDBRANCH   5   7
BRANCH   6   9
ATOM      9  C   UNL     1      23.230   2.880  49.130  0.00  0.00    +0.000 C 
ATOM     10  C   UNL     1      22.365   1.861  49.320  0.00  0.00    +0.000 C 
BRANCH  10  11
ATOM     11  C   UNL     1      21.042   1.685  48.640  0.00  0.00    +0.000 C 
BRANCH  11  12
ATOM     12  C   UNL     1      19.767   1.955  49.504  0.00  0.00    +0.000 C 
ATOM     13  C   UNL     1      19.800   3.453  49.844  0.00  0.00    +0.000 C 
BRANCH  12  14
ATOM     14  O   UNL     1      18.599   1.704  48.717  0.00  0.00    +0.000 OA
ATOM     15  H   UNL     1      18.626   2.248  47.915  0.00  0.00    +0.000 HD
ENDBRANCH  12  14
BRANCH  12  16
ATOM     16  C   UNL     1      19.682   1.084  50.800  0.00  0.00    +0.000 C 
BRANCH  16  17
ATOM     17  C   UNL     1      20.096   1.787  52.118  0.00  0.00    +0.000 C 
BRANCH  17  18
ATOM     18  C   UNL     1      21.192   1.049  52.954  0.00  0.00    +0.000 C 
ATOM     19  C   UNL     1      21.782  -0.121  52.134  0.00  0.00    +0.000 C 
ATOM     20  C   UNL     1      22.697  -1.034  52.950  0.00  0.00    +0.000 C 
ATOM     21  C   UNL     1      21.959  -1.600  54.152  0.00  0.00    +0.000 C 
ATOM     22  C   UNL     1      21.456  -0.480  55.049  0.00  0.00    +0.000 C 
ATOM     23  C   UNL     1      20.633   0.576  54.310  0.00  0.00    +0.000 C 
ENDBRANCH  17  18
ENDBRANCH  16  17
ENDBRANCH  12  16
ENDBRANCH  11  12
ENDBRANCH  10  11
ENDBRANCH   6   9
BRANCH   1  24
ATOM     24  C   UNL     1      25.382   2.618  52.382  0.00  0.00    +0.000 C 
BRANCH  24  25
ATOM     25  C   UNL     1      26.294   1.564  51.732  0.00  0.00    +0.000 C 
BRANCH  25  27
ATOM     26  C   UNL     1      26.218  -0.316  53.463  0.00  0.00    +0.000 C 
ATOM     27  C   UNL     1      26.078   0.159  52.216  0.00  0.00    +0.000 C 
BRANCH  26  28
ATOM     28  C   UNL     1      26.665   0.445  54.683  0.00  0.00    +0.000 C 
BRANCH  28  29
ATOM     29  C   UNL     1      28.140   0.164  54.981  0.00  0.00    +0.000 C 
BRANCH  29  30
ATOM     30  C   UNL     1      29.063   1.074  54.213  0.00  0.00    +0.000 C 
ATOM     31  O   UNL     1      29.156   2.286  54.340  0.00  0.00    +0.000 OA
BRANCH  30  33
ATOM     32  C   UNL     1      29.954  -1.049  53.723  0.00  0.00    +0.000 C 
ATOM     33  O   UNL     1      29.810   0.323  53.351  0.00  0.00    +0.000 OA
ENDBRANCH  30  33
ENDBRANCH  29  30
ENDBRANCH  28  29
ENDBRANCH  26  28
ENDBRANCH  25  27
ENDBRANCH  24  25
ENDBRANCH   1  24
TORSDOF 15
ENDMDL
MODEL 2
REMARK VINA RESULT:    -7.529      2.071      5.909
REMARK INTER + INTRA:         -16.807
REMARK INTER:                 -13.085
REMARK INTRA:                  -3.723
REMARK UNBOUND:                -3.117
REMARK  Name = 
REMARK  17 active torsions:
REMARK  status: ('A' for Active; 'I' for Inactive)
REMARK    1  A    between atoms: C_1  and  O_2
REMARK    2  A    between atoms: O_2  and  C_3
REMARK    3  A    between atoms: C_3  and  C_5
REMARK    4  A    between atoms: C_5  and  C_6
REMARK    5  A    between atoms: C_6  and  C_7
REMARK    6  A    between atoms: C_8  and  C_9
REMARK    7  A    between atoms: C_9  and  C_10
REMARK    8  A    between atoms: C_10  and  C_11
REMARK    9  A    between atoms: C_15  and  O_16
REMARK   10  A    between atoms: C_17  and  C_18
REMARK   11  A    between atoms: C_19  and  C_20
REMARK   12  A    between atoms: C_20  and  C_21
REMARK   13  A    between atoms: C_21  and  C_22
REMARK   14  A    between atoms: C_21  and  O_23
REMARK   15  A    between atoms: C_21  and  C_24
REMARK   16  A    between atoms: C_24  and  C_25
REMARK   17  A    between atoms: C_25  and  C_26
REMARK                            x       y       z     vdW  Elec       q    Type
REMARK                         _______ _______ _______ _____ _____    ______ ____
ROOT
ATOM      1  C   UNL     1      25.799   0.989  51.807  0.00  0.00    +0.000 C 
ATOM      2  C   UNL     1      26.592  -0.037  52.599  0.00  0.00    +0.000 C 
ATOM      3  O   UNL     1      27.111  -1.031  52.104  0.00  0.00    +0.000 OA
ATOM      4  C   UNL     1      26.636   0.256  54.076  0.00  0.00    +0.000 C 
ATOM      5  C   UNL     1      26.057   1.667  54.130  0.00  0.00    +0.000 C 
ATOM      6  C   UNL     1      25.068   1.736  52.948  0.00  0.00    +0.000 C 
ENDROOT
BRANCH   5   7
ATOM      7  O   UNL     1      27.070   2.663  54.016  0.00  0.00    +0.000 OA
ATOM      8  H   UNL     1      26.789   3.465  54.484  0.00  0.00    +0.000 HD
ENDBRANCH   5   7
BRANCH   6   9
ATOM      9  C   UNL     1      23.756   1.075  53.377  0.00  0.00    +0.000 C 
ATOM     10  C   UNL     1      22.906   0.457  52.529  0.00  0.00    +0.000 C 
BRANCH  10  11
ATOM     11  C   UNL     1      21.744  -0.407  52.915  0.00  0.00    +0.000 C 
BRANCH  11  12
ATOM     12  C   UNL     1      20.485   0.323  53.486  0.00  0.00    +0.000 C 
ATOM     13  C   UNL     1      19.278  -0.528  53.064  0.00  0.00    +0.000 C 
BRANCH  12  14
ATOM     14  O   UNL     1      20.548   0.326  54.916  0.00  0.00    +0.000 OA
ATOM     15  H   UNL     1      20.980   1.140  55.218  0.00  0.00    +0.000 HD
ENDBRANCH  12  14
BRANCH  12  16
ATOM     16  C   UNL     1      20.333   1.800  52.999  0.00  0.00    +0.000 C 
BRANCH  16  17
ATOM     17  C   UNL     1      19.448   2.013  51.744  0.00  0.00    +0.000 C 
BRANCH  17  18
ATOM     18  C   UNL     1      20.216   2.427  50.446  0.00  0.00    +0.000 C 
ATOM     19  C   UNL     1      20.642   1.166  49.661  0.00  0.00    +0.000 C 
ATOM     20  C   UNL     1      21.589   1.465  48.499  0.00  0.00    +0.000 C 
ATOM     21  C   UNL     1      22.836   2.183  48.992  0.00  0.00    +0.000 C 
ATOM     22  C   UNL     1      22.468   3.490  49.676  0.00  0.00    +0.000 C 
ATOM     23  C   UNL     1      21.417   3.332  50.776  0.00  0.00    +0.000 C 
ENDBRANCH  17  18
ENDBRANCH  16  17
ENDBRANCH  12  16
ENDBRANCH  11  12
ENDBRANCH  10  11
ENDBRANCH   6   9
BRANCH   1  24
ATOM     24  C   UNL     1      26.702   1.867  50.935  0.00  0.00    +0.000 C 
BRANCH  24  25
ATOM     25  C   UNL     1      26.048   3.190  50.504  0.00  0.00    +0.000 C 
BRANCH  25  27
ATOM     26  C   UNL     1      26.506   5.143  48.918  0.00  0.00    +0.000 C 
ATOM     27  C   UNL     1      26.862   4.013  49.548  0.00  0.00    +0.000 C 
BRANCH  26  28
ATOM     28  C   UNL     1      25.175   5.844  48.991  0.00  0.00    +0.000 C 
BRANCH  28  29
ATOM     29  C   UNL     1      25.180   6.892  50.107  0.00  0.00    +0.000 C 
BRANCH  29  30
ATOM     30  C   UNL     1      24.040   6.704  51.073  0.00  0.00    +0.000 C 
ATOM     31  O   UNL     1      23.922   5.801  51.887  0.00  0.00    +0.000 OA
BRANCH  30  33
ATOM     32  C   UNL     1      21.795   7.317  50.718  0.00  0.00    +0.000 C 
ATOM     33  O   UNL     1      23.149   7.728  50.912  0.00  0.00    +0.000 OA
ENDBRANCH  30  33
ENDBRANCH  29  30
ENDBRANCH  28  29
ENDBRANCH  26  28
ENDBRANCH  25  27
ENDBRANCH  24  25
ENDBRANCH   1  24
TORSDOF 15
ENDMDL
MODEL 3
REMARK VINA RESULT:    -7.109      3.255      6.500
REMARK INTER + INTRA:         -16.043
REMARK INTER:                 -13.908
REMARK INTRA:                  -2.135
REMARK UNBOUND:                -3.117
REMARK  Name = 
REMARK  17 active torsions:
REMARK  status: ('A' for Active; 'I' for Inactive)
REMARK    1  A    between atoms: C_1  and  O_2
REMARK    2  A    between atoms: O_2  and  C_3
REMARK    3  A    between atoms: C_3  and  C_5
REMARK    4  A    between atoms: C_5  and  C_6
REMARK    5  A    between atoms: C_6  and  C_7
REMARK    6  A    between atoms: C_8  and  C_9
REMARK    7  A    between atoms: C_9  and  C_10
REMARK    8  A    between atoms: C_10  and  C_11
REMARK    9  A    between atoms: C_15  and  O_16
REMARK   10  A    between atoms: C_17  and  C_18
REMARK   11  A    between atoms: C_19  and  C_20
REMARK   12  A    between atoms: C_20  and  C_21
REMARK   13  A    between atoms: C_21  and  C_22
REMARK   14  A    between atoms: C_21  and  O_23
REMARK   15  A    between atoms: C_21  and  C_24
REMARK   16  A    between atoms: C_24  and  C_25
REMARK   17  A    between atoms: C_25  and  C_26
REMARK                            x       y       z     vdW  Elec       q    Type
REMARK                         _______ _______ _______ _____ _____    ______ ____
ROOT
ATOM      1  C   UNL     1      25.144   4.603  50.426  0.00  0.00    +0.000 C 
ATOM      2  C   UNL     1      23.871   4.855  51.217  0.00  0.00    +0.000 C 
ATOM      3  O   UNL     1      23.580   5.933  51.721  0.00  0.00    +0.000 OA
ATOM      4  C   UNL     1      23.015   3.624  51.373  0.00  0.00    +0.000 C 
ATOM      5  C   UNL     1      23.687   2.654  50.406  0.00  0.00    +0.000 C 
ATOM      6  C   UNL     1      25.176   3.056  50.409  0.00  0.00    +0.000 C 
ENDROOT
BRANCH   5   7
ATOM      7  O   UNL     1      23.131   2.737  49.096  0.00  0.00    +0.000 OA
ATOM      8  H   UNL     1      23.802   3.073  48.482  0.00  0.00    +0.000 HD
ENDBRANCH   5   7
BRANCH   6   9
ATOM      9  C   UNL     1      25.840   2.440  51.644  0.00  0.00    +0.000 C 
ATOM     10  C   UNL     1      26.790   1.482  51.595  0.00  0.00    +0.000 C 
BRANCH  10  11
ATOM     11  C   UNL     1      27.640   1.020  52.739  0.00  0.00    +0.000 C 
BRANCH  11  12
ATOM     12  C   UNL     1      27.077  -0.157  53.601  0.00  0.00    +0.000 C 
ATOM     13  C   UNL     1      26.718  -1.271  52.606  0.00  0.00    +0.000 C 
BRANCH  12  14
ATOM     14  O   UNL     1      28.107  -0.647  54.464  0.00  0.00    +0.000 OA
ATOM     15  H   UNL     1      27.705  -1.078  55.235  0.00  0.00    +0.000 HD
ENDBRANCH  12  14
BRANCH  12  16
ATOM     16  C   UNL     1      25.845   0.234  54.480  0.00  0.00    +0.000 C 
BRANCH  16  17
ATOM     17  C   UNL     1      24.895  -0.928  54.871  0.00  0.00    +0.000 C 
BRANCH  17  18
ATOM     18  C   UNL     1      23.543  -0.978  54.086  0.00  0.00    +0.000 C 
ATOM     19  C   UNL     1      23.314   0.358  53.344  0.00  0.00    +0.000 C 
ATOM     20  C   UNL     1      21.917   0.483  52.736  0.00  0.00    +0.000 C 
ATOM     21  C   UNL     1      20.848   0.325  53.805  0.00  0.00    +0.000 C 
ATOM     22  C   UNL     1      20.967  -1.028  54.488  0.00  0.00    +0.000 C 
ATOM     23  C   UNL     1      22.369  -1.324  55.022  0.00  0.00    +0.000 C 
ENDBRANCH  17  18
ENDBRANCH  16  17
ENDBRANCH  12  16
ENDBRANCH  11  12
ENDBRANCH  10  11
ENDBRANCH   6   9
BRANCH   1  24
ATOM     24  C   UNL     1      25.102   5.262  49.043  0.00  0.00    +0.000 C 
BRANCH  24  25
ATOM     25  C   UNL     1      26.386   6.028  48.684  0.00  0.00    +0.000 C 
BRANCH  25  27
ATOM     26  C   UNL     1      28.843   5.530  48.186  0.00  0.00    +0.000 C 
ATOM     27  C   UNL     1      27.630   5.189  48.646  0.00  0.00    +0.000 C 
BRANCH  26  28
ATOM     28  C   UNL     1      29.243   6.838  47.556  0.00  0.00    +0.000 C 
BRANCH  28  29
ATOM     29  C   UNL     1      30.106   7.657  48.520  0.00  0.00    +0.000 C 
BRANCH  29  30
ATOM     30  C   UNL     1      29.387   8.875  49.037  0.00  0.00    +0.000 C 
ATOM     31  O   UNL     1      28.304   8.892  49.602  0.00  0.00    +0.000 OA
BRANCH  30  33
ATOM     32  C   UNL     1      31.446   9.702  48.249  0.00  0.00    +0.000 C 
ATOM     33  O   UNL     1      30.154   9.979  48.792  0.00  0.00    +0.000 OA
ENDBRANCH  30  33
ENDBRANCH  29  30
ENDBRANCH  28  29
ENDBRANCH  26  28
ENDBRANCH  25  27
ENDBRANCH  24  25
ENDBRANCH   1  24
TORSDOF 15
ENDMDL
MODEL 4
REMARK VINA RESULT:    -7.100      3.065      5.804
REMARK INTER + INTRA:         -16.029
REMARK INTER:                 -13.249
REMARK INTRA:                  -2.779
REMARK UNBOUND:                -3.117
REMARK  Name = 
REMARK  17 active torsions:
REMARK  status: ('A' for Active; 'I' for Inactive)
REMARK    1  A    between atoms: C_1  and  O_2
REMARK    2  A    between atoms: O_2  and  C_3
REMARK    3  A    between atoms: C_3  and  C_5
REMARK    4  A    between atoms: C_5  and  C_6
REMARK    5  A    between atoms: C_6  and  C_7
REMARK    6  A    between atoms: C_8  and  C_9
REMARK    7  A    between atoms: C_9  and  C_10
REMARK    8  A    between atoms: C_10  and  C_11
REMARK    9  A    between atoms: C_15  and  O_16
REMARK   10  A    between atoms: C_17  and  C_18
REMARK   11  A    between atoms: C_19  and  C_20
REMARK   12  A    between atoms: C_20  and  C_21
REMARK   13  A    between atoms: C_21  and  C_22
REMARK   14  A    between atoms: C_21  and  O_23
REMARK   15  A    between atoms: C_21  and  C_24
REMARK   16  A    between atoms: C_24  and  C_25
REMARK   17  A    between atoms: C_25  and  C_26
REMARK                            x       y       z     vdW  Elec       q    Type
REMARK                         _______ _______ _______ _____ _____    ______ ____
ROOT
ATOM      1  C   UNL     1      22.984   3.100  49.774  0.00  0.00    +0.000 C 
ATOM      2  C   UNL     1      21.927   3.869  48.999  0.00  0.00    +0.000 C 
ATOM      3  O   UNL     1      21.880   5.092  48.935  0.00  0.00    +0.000 OA
ATOM      4  C   UNL     1      20.897   2.979  48.354  0.00  0.00    +0.000 C 
ATOM      5  C   UNL     1      21.519   1.598  48.540  0.00  0.00    +0.000 C 
ATOM      6  C   UNL     1      22.329   1.700  49.849  0.00  0.00    +0.000 C 
ENDROOT
BRANCH   5   7
ATOM      7  O   UNL     1      22.354   1.238  47.441  0.00  0.00    +0.000 OA
ATOM      8  H   UNL     1      22.518   0.283  47.460  0.00  0.00    +0.000 HD
ENDBRANCH   5   7
BRANCH   6   9
ATOM      9  C   UNL     1      21.367   1.532  51.027  0.00  0.00    +0.000 C 
ATOM     10  C   UNL     1      20.713   0.387  51.315  0.00  0.00    +0.000 C 
BRANCH  10  11
ATOM     11  C   UNL     1      19.958   0.091  52.575  0.00  0.00    +0.000 C 
BRANCH  11  12
ATOM     12  C   UNL     1      20.731  -0.684  53.691  0.00  0.00    +0.000 C 
ATOM     13  C   UNL     1      20.929   0.318  54.839  0.00  0.00    +0.000 C 
BRANCH  12  14
ATOM     14  O   UNL     1      19.917  -1.757  54.174  0.00  0.00    +0.000 OA
ATOM     15  H   UNL     1      19.161  -1.882  53.579  0.00  0.00    +0.000 HD
ENDBRANCH  12  14
BRANCH  12  16
ATOM     16  C   UNL     1      22.098  -1.279  53.220  0.00  0.00    +0.000 C 
BRANCH  16  17
ATOM     17  C   UNL     1      23.365  -0.661  53.864  0.00  0.00    +0.000 C 
BRANCH  17  18
ATOM     18  C   UNL     1      24.247   0.206  52.906  0.00  0.00    +0.000 C 
ATOM     19  C   UNL     1      25.694  -0.339  52.885  0.00  0.00    +0.000 C 
ATOM     20  C   UNL     1      26.676   0.576  52.154  0.00  0.00    +0.000 C 
ATOM     21  C   UNL     1      26.682   1.964  52.773  0.00  0.00    +0.000 C 
ATOM     22  C   UNL     1      25.296   2.585  52.715  0.00  0.00    +0.000 C 
ATOM     23  C   UNL     1      24.199   1.694  53.300  0.00  0.00    +0.000 C 
ENDBRANCH  17  18
ENDBRANCH  16  17
ENDBRANCH  12  16
ENDBRANCH  11  12
ENDBRANCH  10  11
ENDBRANCH   6   9
BRANCH   1  24
ATOM     24  C   UNL     1      24.349   3.137  49.078  0.00  0.00    +0.000 C 
BRANCH  24  25
ATOM     25  C   UNL     1      25.293   4.221  49.625  0.00  0.00    +0.000 C 
BRANCH  25  27
ATOM     26  C   UNL     1      27.583   4.952  48.755  0.00  0.00    +0.000 C 
ATOM     27  C   UNL     1      26.738   4.040  49.260  0.00  0.00    +0.000 C 
BRANCH  26  28
ATOM     28  C   UNL     1      27.272   6.381  48.396  0.00  0.00    +0.000 C 
BRANCH  28  29
ATOM     29  C   UNL     1      28.549   7.126  48.001  0.00  0.00    +0.000 C 
BRANCH  29  30
ATOM     30  C   UNL     1      28.759   8.374  48.817  0.00  0.00    +0.000 C 
ATOM     31  O   UNL     1      27.930   8.921  49.530  0.00  0.00    +0.000 OA
BRANCH  30  33
ATOM     32  C   UNL     1      31.044   7.840  49.007  0.00  0.00    +0.000 C 
ATOM     33  O   UNL     1      30.047   8.800  48.654  0.00  0.00    +0.000 OA
ENDBRANCH  30  33
ENDBRANCH  29  30
ENDBRANCH  28  29
ENDBRANCH  26  28
ENDBRANCH  25  27
ENDBRANCH  24  25
ENDBRANCH   1  24
TORSDOF 15
ENDMDL
MODEL 5
REMARK VINA RESULT:    -6.873      1.619      2.226
REMARK INTER + INTRA:         -15.615
REMARK INTER:                 -12.722
REMARK INTRA:                  -2.893
REMARK UNBOUND:                -3.117
REMARK  Name = 
REMARK  17 active torsions:
REMARK  status: ('A' for Active; 'I' for Inactive)
REMARK    1  A    between atoms: C_1  and  O_2
REMARK    2  A    between atoms: O_2  and  C_3
REMARK    3  A    between atoms: C_3  and  C_5
REMARK    4  A    between atoms: C_5  and  C_6
REMARK    5  A    between atoms: C_6  and  C_7
REMARK    6  A    between atoms: C_8  and  C_9
REMARK    7  A    between atoms: C_9  and  C_10
REMARK    8  A    between atoms: C_10  and  C_11
REMARK    9  A    between atoms: C_15  and  O_16
REMARK   10  A    between atoms: C_17  and  C_18
REMARK   11  A    between atoms: C_19  and  C_20
REMARK   12  A    between atoms: C_20  and  C_21
REMARK   13  A    between atoms: C_21  and  C_22
REMARK   14  A    between atoms: C_21  and  O_23
REMARK   15  A    between atoms: C_21  and  C_24
REMARK   16  A    between atoms: C_24  and  C_25
REMARK   17  A    between atoms: C_25  and  C_26
REMARK                            x       y       z     vdW  Elec       q    Type
REMARK                         _______ _______ _______ _____ _____    ______ ____
ROOT
ATOM      1  C   UNL     1      24.445   4.734  49.615  0.00  0.00    +0.000 C 
ATOM      2  C   UNL     1      23.768   5.552  50.702  0.00  0.00    +0.000 C 
ATOM      3  O   UNL     1      23.907   5.345  51.902  0.00  0.00    +0.000 OA
ATOM      4  C   UNL     1      22.856   6.622  50.160  0.00  0.00    +0.000 C 
ATOM      5  C   UNL     1      23.207   6.607  48.675  0.00  0.00    +0.000 C 
ATOM      6  C   UNL     1      23.613   5.148  48.378  0.00  0.00    +0.000 C 
ENDROOT
BRANCH   5   7
ATOM      7  O   UNL     1      24.265   7.511  48.369  0.00  0.00    +0.000 OA
ATOM      8  H   UNL     1      24.013   8.407  48.641  0.00  0.00    +0.000 HD
ENDBRANCH   5   7
BRANCH   6   9
ATOM      9  C   UNL     1      22.339   4.321  48.186  0.00  0.00    +0.000 C 
ATOM     10  C   UNL     1      22.308   2.972  48.159  0.00  0.00    +0.000 C 
BRANCH  10  11
ATOM     11  C   UNL     1      21.081   2.114  48.218  0.00  0.00    +0.000 C 
BRANCH  11  12
ATOM     12  C   UNL     1      20.597   1.678  49.640  0.00  0.00    +0.000 C 
ATOM     13  C   UNL     1      20.226   2.975  50.373  0.00  0.00    +0.000 C 
BRANCH  12  14
ATOM     14  O   UNL     1      19.414   0.883  49.515  0.00  0.00    +0.000 OA
ATOM     15  H   UNL     1      19.661  -0.045  49.381  0.00  0.00    +0.000 HD
ENDBRANCH  12  14
BRANCH  12  16
ATOM     16  C   UNL     1      21.656   0.857  50.446  0.00  0.00    +0.000 C 
BRANCH  16  17
ATOM     17  C   UNL     1      22.566   1.674  51.398  0.00  0.00    +0.000 C 
BRANCH  17  18
ATOM     18  C   UNL     1      22.618   1.163  52.875  0.00  0.00    +0.000 C 
ATOM     19  C   UNL     1      23.574  -0.048  52.981  0.00  0.00    +0.000 C 
ATOM     20  C   UNL     1      23.516  -0.751  54.337  0.00  0.00    +0.000 C 
ATOM     21  C   UNL     1      22.100  -1.214  54.643  0.00  0.00    +0.000 C 
ATOM     22  C   UNL     1      21.141  -0.035  54.659  0.00  0.00    +0.000 C 
ATOM     23  C   UNL     1      21.208   0.829  53.399  0.00  0.00    +0.000 C 
ENDBRANCH  17  18
ENDBRANCH  16  17
ENDBRANCH  12  16
ENDBRANCH  11  12
ENDBRANCH  10  11
ENDBRANCH   6   9
BRANCH   1  24
ATOM     24  C   UNL     1      25.944   5.036  49.516  0.00  0.00    +0.000 C 
BRANCH  24  25
ATOM     25  C   UNL     1      26.838   3.804  49.734  0.00  0.00    +0.000 C 
BRANCH  25  27
ATOM     26  C   UNL     1      26.286   1.940  51.395  0.00  0.00    +0.000 C 
ATOM     27  C   UNL     1      26.119   2.583  50.229  0.00  0.00    +0.000 C 
BRANCH  26  28
ATOM     28  C   UNL     1      27.271   2.272  52.484  0.00  0.00    +0.000 C 
BRANCH  28  29
ATOM     29  C   UNL     1      26.931   1.511  53.768  0.00  0.00    +0.000 C 
BRANCH  29  30
ATOM     30  C   UNL     1      27.527   0.128  53.788  0.00  0.00    +0.000 C 
ATOM     31  O   UNL     1      26.999  -0.894  53.376  0.00  0.00    +0.000 OA
BRANCH  30  33
ATOM     32  C   UNL     1      29.709  -0.755  53.800  0.00  0.00    +0.000 C 
ATOM     33  O   UNL     1      28.780   0.192  54.329  0.00  0.00    +0.000 OA
ENDBRANCH  30  33
ENDBRANCH  29  30
ENDBRANCH  28  29
ENDBRANCH  26  28
ENDBRANCH  25  27
ENDBRANCH  24  25
ENDBRANCH   1  24
TORSDOF 15
ENDMDL
MODEL 6
REMARK VINA RESULT:    -6.861      1.555      6.597
REMARK INTER + INTRA:         -15.593
REMARK INTER:                 -12.368
REMARK INTRA:                  -3.225
REMARK UNBOUND:                -3.117
REMARK  Name = 
REMARK  17 active torsions:
REMARK  status: ('A' for Active; 'I' for Inactive)
REMARK    1  A    between atoms: C_1  and  O_2
REMARK    2  A    between atoms: O_2  and  C_3
REMARK    3  A    between atoms: C_3  and  C_5
REMARK    4  A    between atoms: C_5  and  C_6
REMARK    5  A    between atoms: C_6  and  C_7
REMARK    6  A    between atoms: C_8  and  C_9
REMARK    7  A    between atoms: C_9  and  C_10
REMARK    8  A    between atoms: C_10  and  C_11
REMARK    9  A    between atoms: C_15  and  O_16
REMARK   10  A    between atoms: C_17  and  C_18
REMARK   11  A    between atoms: C_19  and  C_20
REMARK   12  A    between atoms: C_20  and  C_21
REMARK   13  A    between atoms: C_21  and  C_22
REMARK   14  A    between atoms: C_21  and  O_23
REMARK   15  A    between atoms: C_21  and  C_24
REMARK   16  A    between atoms: C_24  and  C_25
REMARK   17  A    between atoms: C_25  and  C_26
REMARK                            x       y       z     vdW  Elec       q    Type
REMARK                         _______ _______ _______ _____ _____    ______ ____
ROOT
ATOM      1  C   UNL     1      23.911   4.464  49.388  0.00  0.00    +0.000 C 
ATOM      2  C   UNL     1      24.587   5.824  49.347  0.00  0.00    +0.000 C 
ATOM      3  O   UNL     1      25.137   6.286  48.355  0.00  0.00    +0.000 OA
ATOM      4  C   UNL     1      24.563   6.540  50.673  0.00  0.00    +0.000 C 
ATOM      5  C   UNL     1      23.600   5.672  51.478  0.00  0.00    +0.000 C 
ATOM      6  C   UNL     1      23.783   4.247  50.915  0.00  0.00    +0.000 C 
ENDROOT
BRANCH   5   7
ATOM      7  O   UNL     1      22.250   6.112  51.345  0.00  0.00    +0.000 OA
ATOM      8  H   UNL     1      21.756   5.881  52.146  0.00  0.00    +0.000 HD
ENDBRANCH   5   7
BRANCH   6   9
ATOM      9  C   UNL     1      25.029   3.631  51.557  0.00  0.00    +0.000 C 
ATOM     10  C   UNL     1      25.461   2.374  51.319  0.00  0.00    +0.000 C 
BRANCH  10  11
ATOM     11  C   UNL     1      26.787   1.803  51.721  0.00  0.00    +0.000 C 
BRANCH  11  12
ATOM     12  C   UNL     1      26.995   1.518  53.244  0.00  0.00    +0.000 C 
ATOM     13  C   UNL     1      28.009   0.367  53.321  0.00  0.00    +0.000 C 
BRANCH  12  14
ATOM     14  O   UNL     1      27.579   2.667  53.865  0.00  0.00    +0.000 OA
ATOM     15  H   UNL     1      28.308   2.997  53.316  0.00  0.00    +0.000 HD
ENDBRANCH  12  14
BRANCH  12  16
ATOM     16  C   UNL     1      25.679   1.163  54.009  0.00  0.00    +0.000 C 
BRANCH  16  17
ATOM     17  C   UNL     1      25.256  -0.328  53.975  0.00  0.00    +0.000 C 
BRANCH  17  18
ATOM     18  C   UNL     1      23.753  -0.589  53.631  0.00  0.00    +0.000 C 
ATOM     19  C   UNL     1      23.082   0.724  53.172  0.00  0.00    +0.000 C 
ATOM     20  C   UNL     1      21.564   0.613  53.030  0.00  0.00    +0.000 C 
ATOM     21  C   UNL     1      20.932   0.169  54.339  0.00  0.00    +0.000 C 
ATOM     22  C   UNL     1      21.485  -1.179  54.773  0.00  0.00    +0.000 C 
ATOM     23  C   UNL     1      23.013  -1.228  54.821  0.00  0.00    +0.000 C 
ENDBRANCH  17  18
ENDBRANCH  16  17
ENDBRANCH  12  16
ENDBRANCH  11  12
ENDBRANCH  10  11
ENDBRANCH   6   9
BRANCH   1  24
ATOM     24  C   UNL     1      22.584   4.457  48.622  0.00  0.00    +0.000 C 
BRANCH  24  25
ATOM     25  C   UNL     1      22.372   3.199  47.764  0.00  0.00    +0.000 C 
BRANCH  25  27
ATOM     26  C   UNL     1      21.267   1.347  49.138  0.00  0.00    +0.000 C 
ATOM     27  C   UNL     1      22.325   1.911  48.535  0.00  0.00    +0.000 C 
BRANCH  26  28
ATOM     28  C   UNL     1      19.866   1.892  49.217  0.00  0.00    +0.000 C 
BRANCH  28  29
ATOM     29  C   UNL     1      19.444   2.083  50.676  0.00  0.00    +0.000 C 
BRANCH  29  30
ATOM     30  C   UNL     1      19.671   3.491  51.158  0.00  0.00    +0.000 C 
ATOM     31  O   UNL     1      20.503   3.850  51.980  0.00  0.00    +0.000 OA
BRANCH  30  33
ATOM     32  C   UNL     1      17.440   4.202  50.916  0.00  0.00    +0.000 C 
ATOM     33  O   UNL     1      18.805   4.327  50.512  0.00  0.00    +0.000 OA
ENDBRANCH  30  33
ENDBRANCH  29  30
ENDBRANCH  28  29
ENDBRANCH  26  28
ENDBRANCH  25  27
ENDBRANCH  24  25
ENDBRANCH   1  24
TORSDOF 15
ENDMDL
MODEL 7
REMARK VINA RESULT:    -6.701      2.911      5.804
REMARK INTER + INTRA:         -15.302
REMARK INTER:                 -12.735
REMARK INTRA:                  -2.567
REMARK UNBOUND:                -3.117
REMARK  Name = 
REMARK  17 active torsions:
REMARK  status: ('A' for Active; 'I' for Inactive)
REMARK    1  A    between atoms: C_1  and  O_2
REMARK    2  A    between atoms: O_2  and  C_3
REMARK    3  A    between atoms: C_3  and  C_5
REMARK    4  A    between atoms: C_5  and  C_6
REMARK    5  A    between atoms: C_6  and  C_7
REMARK    6  A    between atoms: C_8  and  C_9
REMARK    7  A    between atoms: C_9  and  C_10
REMARK    8  A    between atoms: C_10  and  C_11
REMARK    9  A    between atoms: C_15  and  O_16
REMARK   10  A    between atoms: C_17  and  C_18
REMARK   11  A    between atoms: C_19  and  C_20
REMARK   12  A    between atoms: C_20  and  C_21
REMARK   13  A    between atoms: C_21  and  C_22
REMARK   14  A    between atoms: C_21  and  O_23
REMARK   15  A    between atoms: C_21  and  C_24
REMARK   16  A    between atoms: C_24  and  C_25
REMARK   17  A    between atoms: C_25  and  C_26
REMARK                            x       y       z     vdW  Elec       q    Type
REMARK                         _______ _______ _______ _____ _____    ______ ____
ROOT
ATOM      1  C   UNL     1      23.694   3.682  51.188  0.00  0.00    +0.000 C 
ATOM      2  C   UNL     1      22.835   4.556  52.087  0.00  0.00    +0.000 C 
ATOM      3  O   UNL     1      23.185   4.953  53.192  0.00  0.00    +0.000 OA
ATOM      4  C   UNL     1      21.475   4.847  51.508  0.00  0.00    +0.000 C 
ATOM      5  C   UNL     1      21.628   4.335  50.079  0.00  0.00    +0.000 C 
ATOM      6  C   UNL     1      22.637   3.171  50.180  0.00  0.00    +0.000 C 
ENDROOT
BRANCH   5   7
ATOM      7  O   UNL     1      22.097   5.351  49.197  0.00  0.00    +0.000 OA
ATOM      8  H   UNL     1      22.537   4.940  48.437  0.00  0.00    +0.000 HD
ENDBRANCH   5   7
BRANCH   6   9
ATOM      9  C   UNL     1      21.888   1.922  50.652  0.00  0.00    +0.000 C 
ATOM     10  C   UNL     1      22.437   0.952  51.414  0.00  0.00    +0.000 C 
BRANCH  10  11
ATOM     11  C   UNL     1      21.699  -0.157  52.101  0.00  0.00    +0.000 C 
BRANCH  11  12
ATOM     12  C   UNL     1      22.126  -0.477  53.571  0.00  0.00    +0.000 C 
ATOM     13  C   UNL     1      21.143   0.288  54.469  0.00  0.00    +0.000 C 
BRANCH  12  14
ATOM     14  O   UNL     1      21.958  -1.876  53.818  0.00  0.00    +0.000 OA
ATOM     15  H   UNL     1      21.796  -2.020  54.764  0.00  0.00    +0.000 HD
ENDBRANCH  12  14
BRANCH  12  16
ATOM     16  C   UNL     1      23.606  -0.096  53.899  0.00  0.00    +0.000 C 
BRANCH  16  17
ATOM     17  C   UNL     1      24.694  -1.022  53.298  0.00  0.00    +0.000 C 
BRANCH  17  18
ATOM     18  C   UNL     1      26.092  -0.355  53.078  0.00  0.00    +0.000 C 
ATOM     19  C   UNL     1      26.717   0.021  54.441  0.00  0.00    +0.000 C 
ATOM     20  C   UNL     1      27.977   0.876  54.316  0.00  0.00    +0.000 C 
ATOM     21  C   UNL     1      27.688   2.151  53.540  0.00  0.00    +0.000 C 
ATOM     22  C   UNL     1      27.174   1.826  52.146  0.00  0.00    +0.000 C 
ATOM     23  C   UNL     1      25.987   0.861  52.139  0.00  0.00    +0.000 C 
ENDBRANCH  17  18
ENDBRANCH  16  17
ENDBRANCH  12  16
ENDBRANCH  11  12
ENDBRANCH  10  11
ENDBRANCH   6   9
BRANCH   1  24
ATOM     24  C   UNL     1      24.855   4.464  50.564  0.00  0.00    +0.000 C 
BRANCH  24  25
ATOM     25  C   UNL     1      25.455   3.791  49.319  0.00  0.00    +0.000 C 
BRANCH  25  27
ATOM     26  C   UNL     1      27.621   5.046  48.795  0.00  0.00    +0.000 C 
ATOM     27  C   UNL     1      26.941   3.952  49.170  0.00  0.00    +0.000 C 
BRANCH  26  28
ATOM     28  C   UNL     1      27.049   6.380  48.395  0.00  0.00    +0.000 C 
BRANCH  28  29
ATOM     29  C   UNL     1      28.092   7.209  47.642  0.00  0.00    +0.000 C 
BRANCH  29  30
ATOM     30  C   UNL     1      28.905   8.079  48.563  0.00  0.00    +0.000 C 
ATOM     31  O   UNL     1      28.477   8.754  49.488  0.00  0.00    +0.000 OA
BRANCH  30  33
ATOM     32  C   UNL     1      30.930   6.909  48.838  0.00  0.00    +0.000 C 
ATOM     33  O   UNL     1      30.223   7.984  48.216  0.00  0.00    +0.000 OA
ENDBRANCH  30  33
ENDBRANCH  29  30
ENDBRANCH  28  29
ENDBRANCH  26  28
ENDBRANCH  25  27
ENDBRANCH  24  25
ENDBRANCH   1  24
TORSDOF 15
ENDMDL
MODEL 8
REMARK VINA RESULT:    -6.551      2.238      8.342
REMARK INTER + INTRA:         -15.029
REMARK INTER:                 -11.818
REMARK INTRA:                  -3.211
REMARK UNBOUND:                -3.117
REMARK  Name = 
REMARK  17 active torsions:
REMARK  status: ('A' for Active; 'I' for Inactive)
REMARK    1  A    between atoms: C_1  and  O_2
REMARK    2  A    between atoms: O_2  and  C_3
REMARK    3  A    between atoms: C_3  and  C_5
REMARK    4  A    between atoms: C_5  and  C_6
REMARK    5  A    between atoms: C_6  and  C_7
REMARK    6  A    between atoms: C_8  and  C_9
REMARK    7  A    between atoms: C_9  and  C_10
REMARK    8  A    between atoms: C_10  and  C_11
REMARK    9  A    between atoms: C_15  and  O_16
REMARK   10  A    between atoms: C_17  and  C_18
REMARK   11  A    between atoms: C_19  and  C_20
REMARK   12  A    between atoms: C_20  and  C_21
REMARK   13  A    between atoms: C_21  and  C_22
REMARK   14  A    between atoms: C_21  and  O_23
REMARK   15  A    between atoms: C_21  and  C_24
REMARK   16  A    between atoms: C_24  and  C_25
REMARK   17  A    between atoms: C_25  and  C_26
REMARK                            x       y       z     vdW  Elec       q    Type
REMARK                         _______ _______ _______ _____ _____    ______ ____
ROOT
ATOM      1  C   UNL     1      21.932   0.543  52.360  0.00  0.00    +0.000 C 
ATOM      2  C   UNL     1      20.969   1.222  53.320  0.00  0.00    +0.000 C 
ATOM      3  O   UNL     1      20.446   2.310  53.110  0.00  0.00    +0.000 OA
ATOM      4  C   UNL     1      20.758   0.449  54.596  0.00  0.00    +0.000 C 
ATOM      5  C   UNL     1      21.428  -0.882  54.267  0.00  0.00    +0.000 C 
ATOM      6  C   UNL     1      22.563  -0.524  53.285  0.00  0.00    +0.000 C 
ENDROOT
BRANCH   5   7
ATOM      7  O   UNL     1      20.515  -1.809  53.686  0.00  0.00    +0.000 OA
ATOM      8  H   UNL     1      20.130  -1.424  52.884  0.00  0.00    +0.000 HD
ENDBRANCH   5   7
BRANCH   6   9
ATOM      9  C   UNL     1      23.757  -0.010  54.094  0.00  0.00    +0.000 C 
ATOM     10  C   UNL     1      24.918  -0.683  54.243  0.00  0.00    +0.000 C 
BRANCH  10  11
ATOM     11  C   UNL     1      26.192  -0.135  54.810  0.00  0.00    +0.000 C 
BRANCH  11  12
ATOM     12  C   UNL     1      27.444  -0.162  53.875  0.00  0.00    +0.000 C 
ATOM     13  C   UNL     1      28.615   0.351  54.725  0.00  0.00    +0.000 C 
BRANCH  12  14
ATOM     14  O   UNL     1      27.727  -1.513  53.499  0.00  0.00    +0.000 OA
ATOM     15  H   UNL     1      28.660  -1.709  53.675  0.00  0.00    +0.000 HD
ENDBRANCH  12  14
BRANCH  12  16
ATOM     16  C   UNL     1      27.280   0.685  52.570  0.00  0.00    +0.000 C 
BRANCH  16  17
ATOM     17  C   UNL     1      26.636   2.084  52.746  0.00  0.00    +0.000 C 
BRANCH  17  18
ATOM     18  C   UNL     1      25.319   2.320  51.936  0.00  0.00    +0.000 C 
ATOM     19  C   UNL     1      25.658   2.834  50.518  0.00  0.00    +0.000 C 
ATOM     20  C   UNL     1      24.433   3.304  49.734  0.00  0.00    +0.000 C 
ATOM     21  C   UNL     1      23.696   4.398  50.490  0.00  0.00    +0.000 C 
ATOM     22  C   UNL     1      23.245   3.898  51.854  0.00  0.00    +0.000 C 
ATOM     23  C   UNL     1      24.370   3.277  52.683  0.00  0.00    +0.000 C 
ENDBRANCH  17  18
ENDBRANCH  16  17
ENDBRANCH  12  16
ENDBRANCH  11  12
ENDBRANCH  10  11
ENDBRANCH   6   9
BRANCH   1  24
ATOM     24  C   UNL     1      21.215  -0.016  51.126  0.00  0.00    +0.000 C 
BRANCH  24  25
ATOM     25  C   UNL     1      21.557   0.726  49.823  0.00  0.00    +0.000 C 
BRANCH  25  27
ATOM     26  C   UNL     1      19.510   2.252  49.672  0.00  0.00    +0.000 C 
ATOM     27  C   UNL     1      20.833   2.027  49.631  0.00  0.00    +0.000 C 
BRANCH  26  28
ATOM     28  C   UNL     1      18.421   1.234  49.886  0.00  0.00    +0.000 C 
BRANCH  28  29
ATOM     29  C   UNL     1      17.616   1.566  51.146  0.00  0.00    +0.000 C 
BRANCH  29  30
ATOM     30  C   UNL     1      16.717   2.758  50.953  0.00  0.00    +0.000 C 
ATOM     31  O   UNL     1      15.982   2.964  49.998  0.00  0.00    +0.000 OA
BRANCH  30  33
ATOM     32  C   UNL     1      15.596   4.104  52.526  0.00  0.00    +0.000 C 
ATOM     33  O   UNL     1      16.832   3.581  52.037  0.00  0.00    +0.000 OA
ENDBRANCH  30  33
ENDBRANCH  29  30
ENDBRANCH  28  29
ENDBRANCH  26  28
ENDBRANCH  25  27
ENDBRANCH  24  25
ENDBRANCH   1  24
TORSDOF 15
ENDMDL
MODEL 9
REMARK VINA RESULT:    -6.492      2.280      5.984
REMARK INTER + INTRA:         -14.922
REMARK INTER:                 -11.656
REMARK INTRA:                  -3.266
REMARK UNBOUND:                -3.117
REMARK  Name = 
REMARK  17 active torsions:
REMARK  status: ('A' for Active; 'I' for Inactive)
REMARK    1  A    between atoms: C_1  and  O_2
REMARK    2  A    between atoms: O_2  and  C_3
REMARK    3  A    between atoms: C_3  and  C_5
REMARK    4  A    between atoms: C_5  and  C_6
REMARK    5  A    between atoms: C_6  and  C_7
REMARK    6  A    between atoms: C_8  and  C_9
REMARK    7  A    between atoms: C_9  and  C_10
REMARK    8  A    between atoms: C_10  and  C_11
REMARK    9  A    between atoms: C_15  and  O_16
REMARK   10  A    between atoms: C_17  and  C_18
REMARK   11  A    between atoms: C_19  and  C_20
REMARK   12  A    between atoms: C_20  and  C_21
REMARK   13  A    between atoms: C_21  and  C_22
REMARK   14  A    between atoms: C_21  and  O_23
REMARK   15  A    between atoms: C_21  and  C_24
REMARK   16  A    between atoms: C_24  and  C_25
REMARK   17  A    between atoms: C_25  and  C_26
REMARK                            x       y       z     vdW  Elec       q    Type
REMARK                         _______ _______ _______ _____ _____    ______ ____
ROOT
ATOM      1  C   UNL     1      20.209   3.268  49.777  0.00  0.00    +0.000 C 
ATOM      2  C   UNL     1      20.027   3.850  48.385  0.00  0.00    +0.000 C 
ATOM      3  O   UNL     1      20.319   3.258  47.352  0.00  0.00    +0.000 OA
ATOM      4  C   UNL     1      19.497   5.260  48.395  0.00  0.00    +0.000 C 
ATOM      5  C   UNL     1      19.102   5.433  49.859  0.00  0.00    +0.000 C 
ATOM      6  C   UNL     1      20.086   4.543  50.645  0.00  0.00    +0.000 C 
ENDROOT
BRANCH   5   7
ATOM      7  O   UNL     1      17.751   5.045  50.095  0.00  0.00    +0.000 OA
ATOM      8  H   UNL     1      17.735   4.264  50.669  0.00  0.00    +0.000 HD
ENDBRANCH   5   7
BRANCH   6   9
ATOM      9  C   UNL     1      21.403   5.306  50.808  0.00  0.00    +0.000 C 
ATOM     10  C   UNL     1      22.570   4.736  51.177  0.00  0.00    +0.000 C 
BRANCH  10  11
ATOM     11  C   UNL     1      23.924   5.374  51.119  0.00  0.00    +0.000 C 
BRANCH  11  12
ATOM     12  C   UNL     1      24.908   4.834  50.031  0.00  0.00    +0.000 C 
ATOM     13  C   UNL     1      24.387   5.369  48.690  0.00  0.00    +0.000 C 
BRANCH  12  14
ATOM     14  O   UNL     1      26.210   5.385  50.254  0.00  0.00    +0.000 OA
ATOM     15  H   UNL     1      26.298   5.641  51.185  0.00  0.00    +0.000 HD
ENDBRANCH  12  14
BRANCH  12  16
ATOM     16  C   UNL     1      25.034   3.276  50.007  0.00  0.00    +0.000 C 
BRANCH  16  17
ATOM     17  C   UNL     1      26.240   2.680  50.779  0.00  0.00    +0.000 C 
BRANCH  17  18
ATOM     18  C   UNL     1      25.877   1.630  51.879  0.00  0.00    +0.000 C 
ATOM     19  C   UNL     1      26.251   2.178  53.275  0.00  0.00    +0.000 C 
ATOM     20  C   UNL     1      26.140   1.135  54.387  0.00  0.00    +0.000 C 
ATOM     21  C   UNL     1      27.013  -0.072  54.082  0.00  0.00    +0.000 C 
ATOM     22  C   UNL     1      26.604  -0.712  52.765  0.00  0.00    +0.000 C 
ATOM     23  C   UNL     1      26.548   0.273  51.596  0.00  0.00    +0.000 C 
ENDBRANCH  17  18
ENDBRANCH  16  17
ENDBRANCH  12  16
ENDBRANCH  11  12
ENDBRANCH  10  11
ENDBRANCH   6   9
BRANCH   1  24
ATOM     24  C   UNL     1      19.178   2.176  50.084  0.00  0.00    +0.000 C 
BRANCH  24  25
ATOM     25  C   UNL     1      19.804   0.829  50.482  0.00  0.00    +0.000 C 
BRANCH  25  27
ATOM     26  C   UNL     1      22.285   0.938  51.090  0.00  0.00    +0.000 C 
ATOM     27  C   UNL     1      21.280   0.721  50.228  0.00  0.00    +0.000 C 
BRANCH  26  28
ATOM     28  C   UNL     1      22.174   1.383  52.524  0.00  0.00    +0.000 C 
BRANCH  28  29
ATOM     29  C   UNL     1      22.719   0.305  53.465  0.00  0.00    +0.000 C 
BRANCH  29  30
ATOM     30  C   UNL     1      21.664  -0.223  54.401  0.00  0.00    +0.000 C 
ATOM     31  O   UNL     1      20.656   0.366  54.762  0.00  0.00    +0.000 OA
BRANCH  30  33
ATOM     32  C   UNL     1      23.196  -1.589  55.553  0.00  0.00    +0.000 C 
ATOM     33  O   UNL     1      22.001  -1.492  54.777  0.00  0.00    +0.000 OA
ENDBRANCH  30  33
ENDBRANCH  29  30
ENDBRANCH  28  29
ENDBRANCH  26  28
ENDBRANCH  25  27
ENDBRANCH  24  25
ENDBRANCH   1  24
TORSDOF 15
ENDMDL
