MODEL 1
REMARK VINA RESULT:    -8.372      0.000      0.000
REMARK INTER + INTRA:         -12.176
REMARK INTER:                 -11.309
REMARK INTRA:                  -0.867
REMARK UNBOUND:                -0.867
REMARK  Name = 
REMARK  8 active torsions:
REMARK  status: ('A' for Active; 'I' for Inactive)
REMARK    1  A    between atoms: C_1  and  C_2
REMARK    2  A    between atoms: C_2  and  N_3
REMARK    3  A    between atoms: N_3  and  C_4
REMARK    4  A    between atoms: C_4  and  C_5
REMARK    5  A    between atoms: N_8  and  C_9
REMARK    6  A    between atoms: C_16  and  C_17
REMARK    7  A    between atoms: N_21  and  C_22
REMARK    8  A    between atoms: C_24  and  C_25
REMARK                            x       y       z     vdW  Elec       q    Type
REMARK                         _______ _______ _______ _____ _____    ______ ____
ROOT
ATOM      1  C   UNL     1      23.895   4.140  51.153  0.00  0.00    +0.000 A 
ATOM      2  C   UNL     1      22.505   4.141  51.357  0.00  0.00    +0.000 A 
ATOM      3  F   UNL     1      21.736   5.117  50.849  0.00  0.00    +0.000 F 
ATOM      4  C   UNL     1      21.849   3.117  52.028  0.00  0.00    +0.000 A 
ATOM      5  C   UNL     1      22.580   2.051  52.552  0.00  0.00    +0.000 A 
ATOM      6  C   UNL     1      21.849   0.991  53.296  0.00  0.00    +0.000 A 
ATOM      7  O   UNL     1      20.641   1.101  53.464  0.00  0.00    +0.000 OA
ATOM      8  C   UNL     1      22.637  -0.143  53.826  0.00  0.00    +0.000 A 
ATOM      9  C   UNL     1      23.963  -0.109  53.632  0.00  0.00    +0.000 A 
ATOM     10  N   UNL     1      24.677   0.892  52.996  0.00  0.00    +0.000 N 
ATOM     11  C   UNL     1      23.974   1.979  52.393  0.00  0.00    +0.000 A 
ATOM     12  C   UNL     1      24.592   3.012  51.655  0.00  0.00    +0.000 A 
ATOM     13  F   UNL     1      25.914   2.941  51.429  0.00  0.00    +0.000 F 
ENDROOT
BRANCH   1  17
ATOM     14  C   UNL     1      25.239   6.492  48.644  0.00  0.00    +0.000 C 
ATOM     15  C   UNL     1      24.467   7.345  49.655  0.00  0.00    +0.000 C 
ATOM     16  C   UNL     1      24.563   6.561  50.956  0.00  0.00    +0.000 C 
ATOM     17  N   UNL     1      24.565   5.174  50.519  0.00  0.00    +0.000 N 
ATOM     18  C   UNL     1      24.995   5.046  49.121  0.00  0.00    +0.000 C 
BRANCH  14  19
ATOM     19  C   UNL     1      26.725   6.872  48.598  0.00  0.00    +0.000 C 
BRANCH  19  20
ATOM     20  N   UNL     1      27.569   5.765  49.058  0.00  0.00    +0.000 N 
ATOM     21  H   UNL     1      27.814   5.916  50.036  0.00  0.00    +0.000 HD
ATOM     22  H   UNL     1      27.048   4.894  48.949  0.00  0.00    +0.000 HD
BRANCH  20  24
ATOM     23  C   UNL     1      28.964   6.937  47.429  0.00  0.00    +0.000 C 
ATOM     24  C   UNL     1      28.795   5.678  48.265  0.00  0.00    +0.000 C 
ENDBRANCH  20  24
ENDBRANCH  19  20
ENDBRANCH  14  19
ENDBRANCH   1  17
BRANCH  10  25
ATOM     25  C   UNL     1      26.155   0.790  52.972  0.00  0.00    +0.000 C 
ATOM     26  C   UNL     1      26.872  -0.259  52.143  0.00  0.00    +0.000 C 
ATOM     27  C   UNL     1      26.892  -0.356  53.637  0.00  0.00    +0.000 C 
ATOM     28  C   UNL     1      28.174  -0.127  54.362  0.00  0.00    +0.000 C 
ENDBRANCH  10  25
BRANCH   8  29
ATOM     29  C   UNL     1      22.094  -1.280  54.581  0.00  0.00    +0.000 C 
ATOM     30  O   UNL     1      21.012  -1.809  54.387  0.00  0.00    +0.000 OA
ATOM     31  O   UNL     1      22.888  -1.706  55.575  0.00  0.00    +0.000 OA
ENDBRANCH   8  29
TORSDOF 6
ENDMDL
MODEL 2
REMARK VINA RESULT:    -7.945      3.990      6.439
REMARK INTER + INTRA:         -11.599
REMARK INTER:                 -11.051
REMARK INTRA:                  -0.548
REMARK UNBOUND:                -0.867
REMARK  Name = 
REMARK  8 active torsions:
REMARK  status: ('A' for Active; 'I' for Inactive)
REMARK    1  A    between atoms: C_1  and  C_2
REMARK    2  A    between atoms: C_2  and  N_3
REMARK    3  A    between atoms: N_3  and  C_4
REMARK    4  A    between atoms: C_4  and  C_5
REMARK    5  A    between atoms: N_8  and  C_9
REMARK    6  A    between atoms: C_16  and  C_17
REMARK    7  A    between atoms: N_21  and  C_22
REMARK    8  A    between atoms: C_24  and  C_25
REMARK                            x       y       z     vdW  Elec       q    Type
REMARK                         _______ _______ _______ _____ _____    ______ ____
ROOT
ATOM      1  C   UNL     1      23.057   0.143  53.267  0.00  0.00    +0.000 A 
ATOM      2  C   UNL     1      22.398  -0.750  54.128  0.00  0.00    +0.000 A 
ATOM      3  F   UNL     1      23.053  -1.343  55.138  0.00  0.00    +0.000 F 
ATOM      4  C   UNL     1      21.038  -1.016  54.028  0.00  0.00    +0.000 A 
ATOM      5  C   UNL     1      20.285  -0.407  53.024  0.00  0.00    +0.000 A 
ATOM      6  C   UNL     1      18.839  -0.744  52.924  0.00  0.00    +0.000 A 
ATOM      7  O   UNL     1      18.361  -1.570  53.692  0.00  0.00    +0.000 OA
ATOM      8  C   UNL     1      18.050  -0.073  51.868  0.00  0.00    +0.000 A 
ATOM      9  C   UNL     1      18.709   0.760  51.050  0.00  0.00    +0.000 A 
ATOM     10  N   UNL     1      20.063   1.046  51.082  0.00  0.00    +0.000 N 
ATOM     11  C   UNL     1      20.871   0.494  52.121  0.00  0.00    +0.000 A 
ATOM     12  C   UNL     1      22.243   0.779  52.296  0.00  0.00    +0.000 A 
ATOM     13  F   UNL     1      22.821   1.685  51.491  0.00  0.00    +0.000 F 
ENDROOT
BRANCH   1  17
ATOM     14  C   UNL     1      26.689   0.209  52.612  0.00  0.00    +0.000 C 
ATOM     15  C   UNL     1      26.227   1.669  52.587  0.00  0.00    +0.000 C 
ATOM     16  C   UNL     1      25.025   1.696  53.520  0.00  0.00    +0.000 C 
ATOM     17  N   UNL     1      24.419   0.387  53.333  0.00  0.00    +0.000 N 
ATOM     18  C   UNL     1      25.384  -0.586  52.806  0.00  0.00    +0.000 C 
BRANCH  14  19
ATOM     19  C   UNL     1      27.722  -0.040  53.720  0.00  0.00    +0.000 C 
BRANCH  19  20
ATOM     20  N   UNL     1      28.244  -1.408  53.658  0.00  0.00    +0.000 N 
ATOM     21  H   UNL     1      27.943  -1.919  54.487  0.00  0.00    +0.000 HD
ATOM     22  H   UNL     1      27.885  -1.854  52.813  0.00  0.00    +0.000 HD
BRANCH  20  24
ATOM     23  C   UNL     1      30.224   0.021  53.563  0.00  0.00    +0.000 C 
ATOM     24  C   UNL     1      29.706  -1.408  53.601  0.00  0.00    +0.000 C 
ENDBRANCH  20  24
ENDBRANCH  19  20
ENDBRANCH  14  19
ENDBRANCH   1  17
BRANCH  10  25
ATOM     25  C   UNL     1      20.618   1.921  50.022  0.00  0.00    +0.000 C 
ATOM     26  C   UNL     1      19.861   2.204  48.738  0.00  0.00    +0.000 C 
ATOM     27  C   UNL     1      21.103   1.368  48.697  0.00  0.00    +0.000 C 
ATOM     28  C   UNL     1      22.323   1.914  48.036  0.00  0.00    +0.000 C 
ENDBRANCH  10  25
BRANCH   8  29
ATOM     29  C   UNL     1      16.617  -0.273  51.616  0.00  0.00    +0.000 C 
ATOM     30  O   UNL     1      16.138  -0.815  50.632  0.00  0.00    +0.000 OA
ATOM     31  O   UNL     1      15.818   0.233  52.567  0.00  0.00    +0.000 OA
ENDBRANCH   8  29
TORSDOF 6
ENDMDL
MODEL 3
REMARK VINA RESULT:    -7.911      1.214      1.595
REMARK INTER + INTRA:         -11.553
REMARK INTER:                 -10.685
REMARK INTRA:                  -0.868
REMARK UNBOUND:                -0.867
REMARK  Name = 
REMARK  8 active torsions:
REMARK  status: ('A' for Active; 'I' for Inactive)
REMARK    1  A    between atoms: C_1  and  C_2
REMARK    2  A    between atoms: C_2  and  N_3
REMARK    3  A    between atoms: N_3  and  C_4
REMARK    4  A    between atoms: C_4  and  C_5
REMARK    5  A    between atoms: N_8  and  C_9
REMARK    6  A    between atoms: C_16  and  C_17
REMARK    7  A    between atoms: N_21  and  C_22
REMARK    8  A    between atoms: C_24  and  C_25
REMARK                            x       y       z     vdW  Elec       q    Type
REMARK                         _______ _______ _______ _____ _____    ______ ____
ROOT
ATOM      1  C   UNL     1      23.437   4.226  51.077  0.00  0.00    +0.000 A 
ATOM      2  C   UNL     1      22.051   4.143  51.289  0.00  0.00    +0.000 A 
ATOM      3  F   UNL     1      21.220   5.064  50.777  0.00  0.00    +0.000 F 
ATOM      4  C   UNL     1      21.463   3.086  51.972  0.00  0.00    +0.000 A 
ATOM      5  C   UNL     1      22.262   2.072  52.501  0.00  0.00    +0.000 A 
ATOM      6  C   UNL     1      21.601   0.975  53.258  0.00  0.00    +0.000 A 
ATOM      7  O   UNL     1      20.389   1.011  53.431  0.00  0.00    +0.000 OA
ATOM      8  C   UNL     1      22.461  -0.104  53.794  0.00  0.00    +0.000 A 
ATOM      9  C   UNL     1      23.781   0.012  53.592  0.00  0.00    +0.000 A 
ATOM     10  N   UNL     1      24.428   1.049  52.943  0.00  0.00    +0.000 N 
ATOM     11  C   UNL     1      23.657   2.085  52.335  0.00  0.00    +0.000 A 
ATOM     12  C   UNL     1      24.205   3.148  51.585  0.00  0.00    +0.000 A 
ATOM     13  F   UNL     1      25.528   3.157  51.352  0.00  0.00    +0.000 F 
ENDROOT
BRANCH   1  17
ATOM     14  C   UNL     1      25.554   7.129  50.229  0.00  0.00    +0.000 C 
ATOM     15  C   UNL     1      25.852   6.063  49.170  0.00  0.00    +0.000 C 
ATOM     16  C   UNL     1      24.562   5.261  49.074  0.00  0.00    +0.000 C 
ATOM     17  N   UNL     1      24.039   5.294  50.431  0.00  0.00    +0.000 N 
ATOM     18  C   UNL     1      24.577   6.427  51.193  0.00  0.00    +0.000 C 
BRANCH  14  19
ATOM     19  C   UNL     1      24.974   8.404  49.601  0.00  0.00    +0.000 C 
BRANCH  19  20
ATOM     20  N   UNL     1      25.981   9.468  49.537  0.00  0.00    +0.000 N 
ATOM     21  H   UNL     1      26.226   9.638  48.563  0.00  0.00    +0.000 HD
ATOM     22  H   UNL     1      25.590  10.310  49.960  0.00  0.00    +0.000 HD
BRANCH  20  24
ATOM     23  C   UNL     1      28.423   9.563  49.526  0.00  0.00    +0.000 C 
ATOM     24  C   UNL     1      27.187   9.092  50.276  0.00  0.00    +0.000 C 
ENDBRANCH  20  24
ENDBRANCH  19  20
ENDBRANCH  14  19
ENDBRANCH   1  17
BRANCH  10  25
ATOM     25  C   UNL     1      25.910   1.039  52.912  0.00  0.00    +0.000 C 
ATOM     26  C   UNL     1      26.685   0.116  51.990  0.00  0.00    +0.000 C 
ATOM     27  C   UNL     1      26.717  -0.117  53.469  0.00  0.00    +0.000 C 
ATOM     28  C   UNL     1      27.986   0.120  54.214  0.00  0.00    +0.000 C 
ENDBRANCH  10  25
BRANCH   8  29
ATOM     29  C   UNL     1      21.994  -1.265  54.561  0.00  0.00    +0.000 C 
ATOM     30  O   UNL     1      20.933  -1.847  54.394  0.00  0.00    +0.000 OA
ATOM     31  O   UNL     1      22.832  -1.652  55.534  0.00  0.00    +0.000 OA
ENDBRANCH   8  29
TORSDOF 6
ENDMDL
MODEL 4
REMARK VINA RESULT:    -7.823      3.622      5.747
REMARK INTER + INTRA:         -11.434
REMARK INTER:                 -10.859
REMARK INTRA:                  -0.575
REMARK UNBOUND:                -0.867
REMARK  Name = 
REMARK  8 active torsions:
REMARK  status: ('A' for Active; 'I' for Inactive)
REMARK    1  A    between atoms: C_1  and  C_2
REMARK    2  A    between atoms: C_2  and  N_3
REMARK    3  A    between atoms: N_3  and  C_4
REMARK    4  A    between atoms: C_4  and  C_5
REMARK    5  A    between atoms: N_8  and  C_9
REMARK    6  A    between atoms: C_16  and  C_17
REMARK    7  A    between atoms: N_21  and  C_22
REMARK    8  A    between atoms: C_24  and  C_25
REMARK                            x       y       z     vdW  Elec       q    Type
REMARK                         _______ _______ _______ _____ _____    ______ ____
ROOT
ATOM      1  C   UNL     1      24.000   2.883  51.868  0.00  0.00    +0.000 A 
ATOM      2  C   UNL     1      23.642   4.167  51.423  0.00  0.00    +0.000 A 
ATOM      3  F   UNL     1      24.580   5.085  51.143  0.00  0.00    +0.000 F 
ATOM      4  C   UNL     1      22.323   4.533  51.188  0.00  0.00    +0.000 A 
ATOM      5  C   UNL     1      21.296   3.619  51.423  0.00  0.00    +0.000 A 
ATOM      6  C   UNL     1      19.893   4.057  51.196  0.00  0.00    +0.000 A 
ATOM      7  O   UNL     1      19.675   5.212  50.851  0.00  0.00    +0.000 OA
ATOM      8  C   UNL     1      18.818   3.068  51.429  0.00  0.00    +0.000 A 
ATOM      9  C   UNL     1      19.189   1.858  51.871  0.00  0.00    +0.000 A 
ATOM     10  N   UNL     1      20.479   1.441  52.147  0.00  0.00    +0.000 N 
ATOM     11  C   UNL     1      21.572   2.317  51.873  0.00  0.00    +0.000 A 
ATOM     12  C   UNL     1      22.931   1.969  52.043  0.00  0.00    +0.000 A 
ATOM     13  F   UNL     1      23.234   0.713  52.410  0.00  0.00    +0.000 F 
ENDROOT
BRANCH   1  17
ATOM     14  C   UNL     1      27.046   1.470  53.401  0.00  0.00    +0.000 C 
ATOM     15  C   UNL     1      26.965   0.875  51.992  0.00  0.00    +0.000 C 
ATOM     16  C   UNL     1      26.230   1.933  51.182  0.00  0.00    +0.000 C 
ATOM     17  N   UNL     1      25.308   2.518  52.142  0.00  0.00    +0.000 N 
ATOM     18  C   UNL     1      25.754   2.302  53.524  0.00  0.00    +0.000 C 
BRANCH  14  19
ATOM     19  C   UNL     1      28.323   2.301  53.593  0.00  0.00    +0.000 C 
BRANCH  19  20
ATOM     20  N   UNL     1      29.506   1.441  53.680  0.00  0.00    +0.000 N 
ATOM     21  H   UNL     1      29.825   1.215  52.739  0.00  0.00    +0.000 HD
ATOM     22  H   UNL     1      30.233   1.941  54.193  0.00  0.00    +0.000 HD
BRANCH  20  24
ATOM     23  C   UNL     1      29.881  -0.974  53.706  0.00  0.00    +0.000 C 
ATOM     24  C   UNL     1      29.200   0.200  54.393  0.00  0.00    +0.000 C 
ENDBRANCH  20  24
ENDBRANCH  19  20
ENDBRANCH  14  19
ENDBRANCH   1  17
BRANCH  10  25
ATOM     25  C   UNL     1      20.669   0.089  52.724  0.00  0.00    +0.000 C 
ATOM     26  C   UNL     1      19.555  -0.631  53.462  0.00  0.00    +0.000 C 
ATOM     27  C   UNL     1      20.750  -0.141  54.220  0.00  0.00    +0.000 C 
ATOM     28  C   UNL     1      21.702  -1.135  54.795  0.00  0.00    +0.000 C 
ENDBRANCH  10  25
BRANCH   8  29
ATOM     29  C   UNL     1      17.381   3.313  51.257  0.00  0.00    +0.000 C 
ATOM     30  O   UNL     1      16.712   4.102  51.905  0.00  0.00    +0.000 OA
ATOM     31  O   UNL     1      16.804   2.552  50.315  0.00  0.00    +0.000 OA
ENDBRANCH   8  29
TORSDOF 6
ENDMDL
MODEL 5
REMARK VINA RESULT:    -7.782      3.081      5.906
REMARK INTER + INTRA:         -11.379
REMARK INTER:                 -10.541
REMARK INTRA:                  -0.838
REMARK UNBOUND:                -0.867
REMARK  Name = 
REMARK  8 active torsions:
REMARK  status: ('A' for Active; 'I' for Inactive)
REMARK    1  A    between atoms: C_1  and  C_2
REMARK    2  A    between atoms: C_2  and  N_3
REMARK    3  A    between atoms: N_3  and  C_4
REMARK    4  A    between atoms: C_4  and  C_5
REMARK    5  A    between atoms: N_8  and  C_9
REMARK    6  A    between atoms: C_16  and  C_17
REMARK    7  A    between atoms: N_21  and  C_22
REMARK    8  A    between atoms: C_24  and  C_25
REMARK                            x       y       z     vdW  Elec       q    Type
REMARK                         _______ _______ _______ _____ _____    ______ ____
ROOT
ATOM      1  C   UNL     1      23.507   0.053  53.144  0.00  0.00    +0.000 A 
ATOM      2  C   UNL     1      22.910  -0.808  54.081  0.00  0.00    +0.000 A 
ATOM      3  F   UNL     1      23.644  -1.398  55.037  0.00  0.00    +0.000 F 
ATOM      4  C   UNL     1      21.541  -1.041  54.113  0.00  0.00    +0.000 A 
ATOM      5  C   UNL     1      20.712  -0.432  53.172  0.00  0.00    +0.000 A 
ATOM      6  C   UNL     1      19.256  -0.734  53.213  0.00  0.00    +0.000 A 
ATOM      7  O   UNL     1      18.832  -1.534  54.039  0.00  0.00    +0.000 OA
ATOM      8  C   UNL     1      18.387  -0.063  52.221  0.00  0.00    +0.000 A 
ATOM      9  C   UNL     1      18.986   0.738  51.329  0.00  0.00    +0.000 A 
ATOM     10  N   UNL     1      20.343   0.991  51.229  0.00  0.00    +0.000 N 
ATOM     11  C   UNL     1      21.232   0.438  52.199  0.00  0.00    +0.000 A 
ATOM     12  C   UNL     1      22.620   0.691  52.240  0.00  0.00    +0.000 A 
ATOM     13  F   UNL     1      23.142   1.568  51.366  0.00  0.00    +0.000 F 
ENDROOT
BRANCH   1  17
ATOM     14  C   UNL     1      26.978   1.098  53.843  0.00  0.00    +0.000 C 
ATOM     15  C   UNL     1      27.007  -0.430  53.742  0.00  0.00    +0.000 C 
ATOM     16  C   UNL     1      25.864  -0.764  52.794  0.00  0.00    +0.000 C 
ATOM     17  N   UNL     1      24.874   0.264  53.078  0.00  0.00    +0.000 N 
ATOM     18  C   UNL     1      25.483   1.448  53.695  0.00  0.00    +0.000 C 
BRANCH  14  19
ATOM     19  C   UNL     1      27.862   1.754  52.773  0.00  0.00    +0.000 C 
BRANCH  19  20
ATOM     20  N   UNL     1      27.149   2.837  52.089  0.00  0.00    +0.000 N 
ATOM     21  H   UNL     1      26.319   3.082  52.626  0.00  0.00    +0.000 HD
ATOM     22  H   UNL     1      27.775   3.639  52.012  0.00  0.00    +0.000 HD
BRANCH  20  24
ATOM     23  C   UNL     1      25.758   3.434  50.170  0.00  0.00    +0.000 C 
ATOM     24  C   UNL     1      26.745   2.429  50.743  0.00  0.00    +0.000 C 
ENDBRANCH  20  24
ENDBRANCH  19  20
ENDBRANCH  14  19
ENDBRANCH   1  17
BRANCH  10  25
ATOM     25  C   UNL     1      20.817   1.832  50.105  0.00  0.00    +0.000 C 
ATOM     26  C   UNL     1      19.973   2.061  48.864  0.00  0.00    +0.000 C 
ATOM     27  C   UNL     1      21.219   1.236  48.770  0.00  0.00    +0.000 C 
ATOM     28  C   UNL     1      22.387   1.769  48.011  0.00  0.00    +0.000 C 
ENDBRANCH  10  25
BRANCH   8  29
ATOM     29  C   UNL     1      16.932  -0.232  52.108  0.00  0.00    +0.000 C 
ATOM     30  O   UNL     1      16.096   0.620  52.364  0.00  0.00    +0.000 OA
ATOM     31  O   UNL     1      16.552  -1.457  51.718  0.00  0.00    +0.000 OA
ENDBRANCH   8  29
TORSDOF 6
ENDMDL
MODEL 6
REMARK VINA RESULT:    -7.572      3.642      7.061
REMARK INTER + INTRA:         -11.095
REMARK INTER:                 -10.505
REMARK INTRA:                  -0.590
REMARK UNBOUND:                -0.867
REMARK  Name = 
REMARK  8 active torsions:
REMARK  status: ('A' for Active; 'I' for Inactive)
REMARK    1  A    between atoms: C_1  and  C_2
REMARK    2  A    between atoms: C_2  and  N_3
REMARK    3  A    between atoms: N_3  and  C_4
REMARK    4  A    between atoms: C_4  and  C_5
REMARK    5  A    between atoms: N_8  and  C_9
REMARK    6  A    between atoms: C_16  and  C_17
REMARK    7  A    between atoms: N_21  and  C_22
REMARK    8  A    between atoms: C_24  and  C_25
REMARK                            x       y       z     vdW  Elec       q    Type
REMARK                         _______ _______ _______ _____ _____    ______ ____
ROOT
ATOM      1  C   UNL     1      22.149   0.981  51.781  0.00  0.00    +0.000 A 
ATOM      2  C   UNL     1      22.385   0.315  52.996  0.00  0.00    +0.000 A 
ATOM      3  F   UNL     1      21.399  -0.349  53.618  0.00  0.00    +0.000 F 
ATOM      4  C   UNL     1      23.644   0.251  53.579  0.00  0.00    +0.000 A 
ATOM      5  C   UNL     1      24.724   0.888  52.968  0.00  0.00    +0.000 A 
ATOM      6  C   UNL     1      26.050   0.829  53.640  0.00  0.00    +0.000 A 
ATOM      7  O   UNL     1      26.150   0.263  54.722  0.00  0.00    +0.000 OA
ATOM      8  C   UNL     1      27.190   1.491  52.968  0.00  0.00    +0.000 A 
ATOM      9  C   UNL     1      26.932   2.134  51.821  0.00  0.00    +0.000 A 
ATOM     10  N   UNL     1      25.699   2.255  51.203  0.00  0.00    +0.000 N 
ATOM     11  C   UNL     1      24.570   1.578  51.755  0.00  0.00    +0.000 A 
ATOM     12  C   UNL     1      23.285   1.569  51.169  0.00  0.00    +0.000 A 
ATOM     13  F   UNL     1      23.116   2.165  49.977  0.00  0.00    +0.000 F 
ENDROOT
BRANCH   1  17
ATOM     14  C   UNL     1      18.823   2.168  50.706  0.00  0.00    +0.000 C 
ATOM     15  C   UNL     1      19.600   1.864  49.422  0.00  0.00    +0.000 C 
ATOM     16  C   UNL     1      20.575   0.767  49.826  0.00  0.00    +0.000 C 
ATOM     17  N   UNL     1      20.891   1.085  51.210  0.00  0.00    +0.000 N 
ATOM     18  C   UNL     1      19.852   1.917  51.827  0.00  0.00    +0.000 C 
BRANCH  14  19
ATOM     19  C   UNL     1      17.567   1.294  50.830  0.00  0.00    +0.000 C 
BRANCH  19  20
ATOM     20  N   UNL     1      17.486   0.669  52.153  0.00  0.00    +0.000 N 
ATOM     21  H   UNL     1      18.320   0.907  52.687  0.00  0.00    +0.000 HD
ATOM     22  H   UNL     1      16.649   1.016  52.624  0.00  0.00    +0.000 HD
BRANCH  20  24
ATOM     23  C   UNL     1      18.061  -1.446  53.233  0.00  0.00    +0.000 C 
ATOM     24  C   UNL     1      17.388  -0.786  52.039  0.00  0.00    +0.000 C 
ENDBRANCH  20  24
ENDBRANCH  19  20
ENDBRANCH  14  19
ENDBRANCH   1  17
BRANCH  10  25
ATOM     25  C   UNL     1      25.606   3.095  49.986  0.00  0.00    +0.000 C 
ATOM     26  C   UNL     1      26.770   3.941  49.505  0.00  0.00    +0.000 C 
ATOM     27  C   UNL     1      25.549   4.608  50.056  0.00  0.00    +0.000 C 
ATOM     28  C   UNL     1      24.671   5.389  49.138  0.00  0.00    +0.000 C 
ENDBRANCH  10  25
BRANCH   8  29
ATOM     29  C   UNL     1      28.568   1.538  53.473  0.00  0.00    +0.000 C 
ATOM     30  O   UNL     1      29.282   0.569  53.680  0.00  0.00    +0.000 OA
ATOM     31  O   UNL     1      29.012   2.775  53.741  0.00  0.00    +0.000 OA
ENDBRANCH   8  29
TORSDOF 6
ENDMDL
MODEL 7
REMARK VINA RESULT:    -7.541      3.581      6.964
REMARK INTER + INTRA:         -11.054
REMARK INTER:                 -10.257
REMARK INTRA:                  -0.796
REMARK UNBOUND:                -0.867
REMARK  Name = 
REMARK  8 active torsions:
REMARK  status: ('A' for Active; 'I' for Inactive)
REMARK    1  A    between atoms: C_1  and  C_2
REMARK    2  A    between atoms: C_2  and  N_3
REMARK    3  A    between atoms: N_3  and  C_4
REMARK    4  A    between atoms: C_4  and  C_5
REMARK    5  A    between atoms: N_8  and  C_9
REMARK    6  A    between atoms: C_16  and  C_17
REMARK    7  A    between atoms: N_21  and  C_22
REMARK    8  A    between atoms: C_24  and  C_25
REMARK                            x       y       z     vdW  Elec       q    Type
REMARK                         _______ _______ _______ _____ _____    ______ ____
ROOT
ATOM      1  C   UNL     1      21.897   0.446  52.610  0.00  0.00    +0.000 A 
ATOM      2  C   UNL     1      22.434  -0.489  53.511  0.00  0.00    +0.000 A 
ATOM      3  F   UNL     1      21.661  -1.442  54.054  0.00  0.00    +0.000 F 
ATOM      4  C   UNL     1      23.784  -0.523  53.835  0.00  0.00    +0.000 A 
ATOM      5  C   UNL     1      24.654   0.415  53.279  0.00  0.00    +0.000 A 
ATOM      6  C   UNL     1      26.086   0.372  53.677  0.00  0.00    +0.000 A 
ATOM      7  O   UNL     1      26.454  -0.452  54.506  0.00  0.00    +0.000 OA
ATOM      8  C   UNL     1      27.000   1.361  53.062  0.00  0.00    +0.000 A 
ATOM      9  C   UNL     1      26.457   2.252  52.221  0.00  0.00    +0.000 A 
ATOM     10  N   UNL     1      25.120   2.353  51.878  0.00  0.00    +0.000 N 
ATOM     11  C   UNL     1      24.194   1.386  52.374  0.00  0.00    +0.000 A 
ATOM     12  C   UNL     1      22.825   1.346  52.029  0.00  0.00    +0.000 A 
ATOM     13  F   UNL     1      22.365   2.219  51.117  0.00  0.00    +0.000 F 
ENDROOT
BRANCH   1  17
ATOM     14  C   UNL     1      18.575  -0.007  51.064  0.00  0.00    +0.000 C 
ATOM     15  C   UNL     1      18.432  -0.463  52.519  0.00  0.00    +0.000 C 
ATOM     16  C   UNL     1      19.468   0.360  53.272  0.00  0.00    +0.000 C 
ATOM     17  N   UNL     1      20.546   0.514  52.309  0.00  0.00    +0.000 N 
ATOM     18  C   UNL     1      20.073   0.332  50.932  0.00  0.00    +0.000 C 
BRANCH  14  19
ATOM     19  C   UNL     1      17.655   1.180  50.748  0.00  0.00    +0.000 C 
BRANCH  19  20
ATOM     20  N   UNL     1      18.196   1.992  49.654  0.00  0.00    +0.000 N 
ATOM     21  H   UNL     1      19.148   1.690  49.453  0.00  0.00    +0.000 HD
ATOM     22  H   UNL     1      17.601   1.867  48.834  0.00  0.00    +0.000 HD
BRANCH  20  24
ATOM     23  C   UNL     1      17.978   3.572  51.505  0.00  0.00    +0.000 C 
ATOM     24  C   UNL     1      18.207   3.411  50.010  0.00  0.00    +0.000 C 
ENDBRANCH  20  24
ENDBRANCH  19  20
ENDBRANCH  14  19
ENDBRANCH   1  17
BRANCH  10  25
ATOM     25  C   UNL     1      24.704   3.476  51.004  0.00  0.00    +0.000 C 
ATOM     26  C   UNL     1      24.748   3.371  49.491  0.00  0.00    +0.000 C 
ATOM     27  C   UNL     1      25.706   4.279  50.198  0.00  0.00    +0.000 C 
ATOM     28  C   UNL     1      25.559   5.754  50.040  0.00  0.00    +0.000 C 
ENDBRANCH  10  25
BRANCH   8  29
ATOM     29  C   UNL     1      28.440   1.472  53.327  0.00  0.00    +0.000 C 
ATOM     30  O   UNL     1      29.238   0.549  53.313  0.00  0.00    +0.000 OA
ATOM     31  O   UNL     1      28.845   2.713  53.637  0.00  0.00    +0.000 OA
ENDBRANCH   8  29
TORSDOF 6
ENDMDL
MODEL 8
REMARK VINA RESULT:    -7.480      3.755      6.129
REMARK INTER + INTRA:         -10.971
REMARK INTER:                  -9.902
REMARK INTRA:                  -1.069
REMARK UNBOUND:                -0.867
REMARK  Name = 
REMARK  8 active torsions:
REMARK  status: ('A' for Active; 'I' for Inactive)
REMARK    1  A    between atoms: C_1  and  C_2
REMARK    2  A    between atoms: C_2  and  N_3
REMARK    3  A    between atoms: N_3  and  C_4
REMARK    4  A    between atoms: C_4  and  C_5
REMARK    5  A    between atoms: N_8  and  C_9
REMARK    6  A    between atoms: C_16  and  C_17
REMARK    7  A    between atoms: N_21  and  C_22
REMARK    8  A    between atoms: C_24  and  C_25
REMARK                            x       y       z     vdW  Elec       q    Type
REMARK                         _______ _______ _______ _____ _____    ______ ____
ROOT
ATOM      1  C   UNL     1      22.081   2.646  50.964  0.00  0.00    +0.000 A 
ATOM      2  C   UNL     1      23.247   2.998  50.263  0.00  0.00    +0.000 A 
ATOM      3  F   UNL     1      23.197   3.854  49.231  0.00  0.00    +0.000 F 
ATOM      4  C   UNL     1      24.506   2.542  50.633  0.00  0.00    +0.000 A 
ATOM      5  C   UNL     1      24.638   1.678  51.720  0.00  0.00    +0.000 A 
ATOM      6  C   UNL     1      25.997   1.180  52.065  0.00  0.00    +0.000 A 
ATOM      7  O   UNL     1      26.950   1.506  51.367  0.00  0.00    +0.000 OA
ATOM      8  C   UNL     1      26.122   0.281  53.233  0.00  0.00    +0.000 A 
ATOM      9  C   UNL     1      24.992  -0.052  53.870  0.00  0.00    +0.000 A 
ATOM     10  N   UNL     1      23.709   0.347  53.537  0.00  0.00    +0.000 N 
ATOM     11  C   UNL     1      23.520   1.275  52.468  0.00  0.00    +0.000 A 
ATOM     12  C   UNL     1      22.268   1.809  52.092  0.00  0.00    +0.000 A 
ATOM     13  F   UNL     1      21.187   1.496  52.826  0.00  0.00    +0.000 F 
ENDROOT
BRANCH   1  17
ATOM     14  C   UNL     1      19.059   4.653  50.281  0.00  0.00    +0.000 C 
ATOM     15  C   UNL     1      19.487   4.060  48.935  0.00  0.00    +0.000 C 
ATOM     16  C   UNL     1      20.188   2.761  49.306  0.00  0.00    +0.000 C 
ATOM     17  N   UNL     1      20.817   3.064  50.581  0.00  0.00    +0.000 N 
ATOM     18  C   UNL     1      20.163   4.194  51.253  0.00  0.00    +0.000 C 
BRANCH  14  19
ATOM     19  C   UNL     1      17.657   4.179  50.689  0.00  0.00    +0.000 C 
BRANCH  19  20
ATOM     20  N   UNL     1      17.724   3.218  51.793  0.00  0.00    +0.000 N 
ATOM     21  H   UNL     1      18.699   3.078  52.055  0.00  0.00    +0.000 HD
ATOM     22  H   UNL     1      17.193   3.591  52.581  0.00  0.00    +0.000 HD
BRANCH  20  24
ATOM     23  C   UNL     1      18.132   0.811  51.682  0.00  0.00    +0.000 C 
ATOM     24  C   UNL     1      17.143   1.933  51.405  0.00  0.00    +0.000 C 
ENDBRANCH  20  24
ENDBRANCH  19  20
ENDBRANCH  14  19
ENDBRANCH   1  17
BRANCH  10  25
ATOM     25  C   UNL     1      22.577  -0.214  54.312  0.00  0.00    +0.000 C 
ATOM     26  C   UNL     1      22.720  -1.482  55.133  0.00  0.00    +0.000 C 
ATOM     27  C   UNL     1      21.876  -1.492  53.897  0.00  0.00    +0.000 C 
ATOM     28  C   UNL     1      20.398  -1.635  54.028  0.00  0.00    +0.000 C 
ENDBRANCH  10  25
BRANCH   8  29
ATOM     29  C   UNL     1      27.375  -0.307  53.727  0.00  0.00    +0.000 C 
ATOM     30  O   UNL     1      27.957   0.018  54.749  0.00  0.00    +0.000 OA
ATOM     31  O   UNL     1      27.889  -1.252  52.926  0.00  0.00    +0.000 OA
ENDBRANCH   8  29
TORSDOF 6
ENDMDL
MODEL 9
REMARK VINA RESULT:    -7.366      3.420      5.659
REMARK INTER + INTRA:         -10.817
REMARK INTER:                  -9.591
REMARK INTRA:                  -1.226
REMARK UNBOUND:                -0.867
REMARK  Name = 
REMARK  8 active torsions:
REMARK  status: ('A' for Active; 'I' for Inactive)
REMARK    1  A    between atoms: C_1  and  C_2
REMARK    2  A    between atoms: C_2  and  N_3
REMARK    3  A    between atoms: N_3  and  C_4
REMARK    4  A    between atoms: C_4  and  C_5
REMARK    5  A    between atoms: N_8  and  C_9
REMARK    6  A    between atoms: C_16  and  C_17
REMARK    7  A    between atoms: N_21  and  C_22
REMARK    8  A    between atoms: C_24  and  C_25
REMARK                            x       y       z     vdW  Elec       q    Type
REMARK                         _______ _______ _______ _____ _____    ______ ____
ROOT
ATOM      1  C   UNL     1      22.641   3.060  49.997  0.00  0.00    +0.000 A 
ATOM      2  C   UNL     1      23.948   3.491  49.714  0.00  0.00    +0.000 A 
ATOM      3  F   UNL     1      24.175   4.439  48.791  0.00  0.00    +0.000 F 
ATOM      4  C   UNL     1      25.056   3.018  50.405  0.00  0.00    +0.000 A 
ATOM      5  C   UNL     1      24.892   2.057  51.403  0.00  0.00    +0.000 A 
ATOM      6  C   UNL     1      26.104   1.546  52.097  0.00  0.00    +0.000 A 
ATOM      7  O   UNL     1      27.208   1.948  51.750  0.00  0.00    +0.000 OA
ATOM      8  C   UNL     1      25.911   0.544  53.168  0.00  0.00    +0.000 A 
ATOM      9  C   UNL     1      24.656   0.138  53.404  0.00  0.00    +0.000 A 
ATOM     10  N   UNL     1      23.516   0.551  52.735  0.00  0.00    +0.000 N 
ATOM     11  C   UNL     1      23.618   1.572  51.742  0.00  0.00    +0.000 A 
ATOM     12  C   UNL     1      22.516   2.124  51.054  0.00  0.00    +0.000 A 
ATOM     13  F   UNL     1      21.278   1.729  51.398  0.00  0.00    +0.000 F 
ENDROOT
BRANCH   1  17
ATOM     14  C   UNL     1      20.159   5.117  48.198  0.00  0.00    +0.000 C 
ATOM     15  C   UNL     1      20.619   4.043  47.207  0.00  0.00    +0.000 C 
ATOM     16  C   UNL     1      21.009   2.865  48.088  0.00  0.00    +0.000 C 
ATOM     17  N   UNL     1      21.533   3.496  49.289  0.00  0.00    +0.000 N 
ATOM     18  C   UNL     1      21.035   4.868  49.442  0.00  0.00    +0.000 C 
BRANCH  14  19
ATOM     19  C   UNL     1      18.655   5.016  48.486  0.00  0.00    +0.000 C 
BRANCH  19  20
ATOM     20  N   UNL     1      18.361   5.344  49.885  0.00  0.00    +0.000 N 
ATOM     21  H   UNL     1      19.235   5.392  50.407  0.00  0.00    +0.000 HD
ATOM     22  H   UNL     1      17.878   6.243  49.912  0.00  0.00    +0.000 HD
BRANCH  20  24
ATOM     23  C   UNL     1      18.318   3.408  51.375  0.00  0.00    +0.000 C 
ATOM     24  C   UNL     1      17.496   4.331  50.489  0.00  0.00    +0.000 C 
ENDBRANCH  20  24
ENDBRANCH  19  20
ENDBRANCH  14  19
ENDBRANCH   1  17
BRANCH  10  25
ATOM     25  C   UNL     1      22.228  -0.095  53.082  0.00  0.00    +0.000 C 
ATOM     26  C   UNL     1      21.336   0.439  54.187  0.00  0.00    +0.000 C 
ATOM     27  C   UNL     1      22.040  -0.869  54.371  0.00  0.00    +0.000 C 
ATOM     28  C   UNL     1      21.238  -2.126  54.403  0.00  0.00    +0.000 C 
ENDBRANCH  10  25
BRANCH   8  29
ATOM     29  C   UNL     1      26.981  -0.072  53.964  0.00  0.00    +0.000 C 
ATOM     30  O   UNL     1      27.239   0.187  55.128  0.00  0.00    +0.000 OA
ATOM     31  O   UNL     1      27.722  -0.962  53.288  0.00  0.00    +0.000 OA
ENDBRANCH   8  29
TORSDOF 6
ENDMDL
