MODEL 1
REMARK VINA RESULT:    -9.221      0.000      0.000
REMARK INTER + INTRA:         -10.931
REMARK INTER:                 -10.569
REMARK INTRA:                  -0.362
REMARK UNBOUND:                -0.362
REMARK  Name = 
REMARK  8 active torsions:
REMARK  status: ('A' for Active; 'I' for Inactive)
REMARK    1  A    between atoms: C_1  and  C_2
REMARK    2  A    between atoms: C_2  and  C_3
REMARK    3  A    between atoms: C_3  and  C_4
REMARK    4  A    between atoms: C_16  and  C_17
REMARK    5  A    between atoms: C_16  and  C_18
REMARK    6  A    between atoms: C_22  and  C_23
REMARK    7  A    between atoms: C_24  and  C_25
REMARK    8  A    between atoms: C_26  and  O_27
REMARK                            x       y       z     vdW  Elec       q    Type
REMARK                         _______ _______ _______ _____ _____    ______ ____
ROOT
ATOM      1  C   UNL     1      22.080   0.793  52.871  0.00  0.00    +0.000 A 
ATOM      2  C   UNL     1      20.850   1.307  52.669  0.00  0.00    +0.000 A 
ATOM      3  C   UNL     1      20.563   2.715  52.419  0.00  0.00    +0.000 A 
ATOM      4  O   UNL     1      19.428   3.153  52.304  0.00  0.00    +0.000 OA
ATOM      5  O   UNL     1      21.667   3.495  52.244  0.00  0.00    +0.000 OA
ATOM      6  C   UNL     1      22.878   2.844  52.041  0.00  0.00    +0.000 A 
ATOM      7  C   UNL     1      23.629   3.318  51.011  0.00  0.00    +0.000 A 
ATOM      8  C   UNL     1      25.001   3.204  51.065  0.00  0.00    +0.000 A 
ATOM      9  C   UNL     1      25.533   2.351  52.043  0.00  0.00    +0.000 A 
ATOM     10  C   UNL     1      24.664   1.473  52.746  0.00  0.00    +0.000 A 
ATOM     11  C   UNL     1      23.262   1.682  52.682  0.00  0.00    +0.000 A 
ATOM     12  O   UNL     1      25.166   0.466  53.549  0.00  0.00    +0.000 OA
ATOM     13  C   UNL     1      26.609   0.213  53.536  0.00  0.00    +0.000 C 
ATOM     14  C   UNL     1      27.051  -0.124  54.971  0.00  0.00    +0.000 C 
ATOM     15  C   UNL     1      26.878  -1.004  52.638  0.00  0.00    +0.000 C 
ATOM     16  C   UNL     1      27.461   1.354  53.033  0.00  0.00    +0.000 C 
ATOM     17  C   UNL     1      26.957   2.342  52.290  0.00  0.00    +0.000 C 
ATOM     18  O   UNL     1      25.783   3.922  50.210  0.00  0.00    +0.000 OA
ATOM     19  C   UNL     1      25.148   4.586  49.081  0.00  0.00    +0.000 C 
ATOM     20  C   UNL     1      25.900   5.901  48.862  0.00  0.00    +0.000 C 
ATOM     21  C   UNL     1      23.635   4.888  49.191  0.00  0.00    +0.000 C 
ATOM     22  C   UNL     1      22.984   5.263  47.853  0.00  0.00    +0.000 C 
ATOM     23  C   UNL     1      22.929   3.695  49.753  0.00  0.00    +0.000 C 
ENDROOT
BRANCH  23  24
ATOM     24  O   UNL     1      22.995   2.582  48.856  0.00  0.00    +0.000 OA
ATOM     25  H   UNL     1      22.426   2.750  48.089  0.00  0.00    +0.000 HD
ENDBRANCH  23  24
BRANCH   1  26
ATOM     26  C   UNL     1      22.186  -0.700  52.900  0.00  0.00    +0.000 C 
BRANCH  26  28
ATOM     27  C   UNL     1      22.755  -1.393  55.248  0.00  0.00    +0.000 C 
ATOM     28  C   UNL     1      21.654  -1.294  54.200  0.00  0.00    +0.000 C 
ENDBRANCH  26  28
ENDBRANCH   1  26
TORSDOF 3
ENDMDL
MODEL 2
REMARK VINA RESULT:    -8.638      2.003      5.463
REMARK INTER + INTRA:         -10.263
REMARK INTER:                  -9.901
REMARK INTRA:                  -0.362
REMARK UNBOUND:                -0.362
REMARK  Name = 
REMARK  8 active torsions:
REMARK  status: ('A' for Active; 'I' for Inactive)
REMARK    1  A    between atoms: C_1  and  C_2
REMARK    2  A    between atoms: C_2  and  C_3
REMARK    3  A    between atoms: C_3  and  C_4
REMARK    4  A    between atoms: C_16  and  C_17
REMARK    5  A    between atoms: C_16  and  C_18
REMARK    6  A    between atoms: C_22  and  C_23
REMARK    7  A    between atoms: C_24  and  C_25
REMARK    8  A    between atoms: C_26  and  O_27
REMARK                            x       y       z     vdW  Elec       q    Type
REMARK                         _______ _______ _______ _____ _____    ______ ____
ROOT
ATOM      1  C   UNL     1      23.339   3.170  49.584  0.00  0.00    +0.000 A 
ATOM      2  C   UNL     1      22.489   3.472  48.582  0.00  0.00    +0.000 A 
ATOM      3  C   UNL     1      21.434   2.594  48.088  0.00  0.00    +0.000 A 
ATOM      4  O   UNL     1      20.724   2.877  47.135  0.00  0.00    +0.000 OA
ATOM      5  O   UNL     1      21.249   1.462  48.825  0.00  0.00    +0.000 OA
ATOM      6  C   UNL     1      21.857   1.411  50.073  0.00  0.00    +0.000 A 
ATOM      7  C   UNL     1      21.062   0.986  51.091  0.00  0.00    +0.000 A 
ATOM      8  C   UNL     1      21.629   0.344  52.170  0.00  0.00    +0.000 A 
ATOM      9  C   UNL     1      23.024   0.418  52.296  0.00  0.00    +0.000 A 
ATOM     10  C   UNL     1      23.748   1.331  51.482  0.00  0.00    +0.000 A 
ATOM     11  C   UNL     1      23.111   1.916  50.358  0.00  0.00    +0.000 A 
ATOM     12  O   UNL     1      25.081   1.599  51.725  0.00  0.00    +0.000 OA
ATOM     13  C   UNL     1      25.697   1.052  52.937  0.00  0.00    +0.000 C 
ATOM     14  C   UNL     1      27.132   0.616  52.592  0.00  0.00    +0.000 C 
ATOM     15  C   UNL     1      25.760   2.166  53.993  0.00  0.00    +0.000 C 
ATOM     16  C   UNL     1      24.979  -0.126  53.552  0.00  0.00    +0.000 C 
ATOM     17  C   UNL     1      23.700  -0.398  53.280  0.00  0.00    +0.000 C 
ATOM     18  O   UNL     1      20.846  -0.348  53.047  0.00  0.00    +0.000 OA
ATOM     19  C   UNL     1      19.403  -0.169  52.977  0.00  0.00    +0.000 C 
ATOM     20  C   UNL     1      18.775  -1.525  53.308  0.00  0.00    +0.000 C 
ATOM     21  C   UNL     1      18.812   0.344  51.644  0.00  0.00    +0.000 C 
ATOM     22  C   UNL     1      17.360   0.827  51.760  0.00  0.00    +0.000 C 
ATOM     23  C   UNL     1      19.654   1.466  51.125  0.00  0.00    +0.000 C 
ENDROOT
BRANCH  23  24
ATOM     24  O   UNL     1      19.592   2.604  51.991  0.00  0.00    +0.000 OA
ATOM     25  H   UNL     1      20.491   2.864  52.249  0.00  0.00    +0.000 HD
ENDBRANCH  23  24
BRANCH   1  26
ATOM     26  C   UNL     1      24.210   4.282  50.082  0.00  0.00    +0.000 C 
BRANCH  26  28
ATOM     27  C   UNL     1      26.602   3.790  49.489  0.00  0.00    +0.000 C 
ATOM     28  C   UNL     1      25.358   4.592  49.127  0.00  0.00    +0.000 C 
ENDBRANCH  26  28
ENDBRANCH   1  26
TORSDOF 3
ENDMDL
MODEL 3
REMARK VINA RESULT:    -8.028      1.663      4.688
REMARK INTER + INTRA:          -9.563
REMARK INTER:                  -9.200
REMARK INTRA:                  -0.363
REMARK UNBOUND:                -0.362
REMARK  Name = 
REMARK  8 active torsions:
REMARK  status: ('A' for Active; 'I' for Inactive)
REMARK    1  A    between atoms: C_1  and  C_2
REMARK    2  A    between atoms: C_2  and  C_3
REMARK    3  A    between atoms: C_3  and  C_4
REMARK    4  A    between atoms: C_16  and  C_17
REMARK    5  A    between atoms: C_16  and  C_18
REMARK    6  A    between atoms: C_22  and  C_23
REMARK    7  A    between atoms: C_24  and  C_25
REMARK    8  A    between atoms: C_26  and  O_27
REMARK                            x       y       z     vdW  Elec       q    Type
REMARK                         _______ _______ _______ _____ _____    ______ ____
ROOT
ATOM      1  C   UNL     1      25.579   1.641  52.155  0.00  0.00    +0.000 A 
ATOM      2  C   UNL     1      26.486   2.370  51.473  0.00  0.00    +0.000 A 
ATOM      3  C   UNL     1      26.217   3.089  50.232  0.00  0.00    +0.000 A 
ATOM      4  O   UNL     1      27.080   3.687  49.609  0.00  0.00    +0.000 OA
ATOM      5  O   UNL     1      24.905   3.107  49.862  0.00  0.00    +0.000 OA
ATOM      6  C   UNL     1      23.972   2.710  50.812  0.00  0.00    +0.000 A 
ATOM      7  C   UNL     1      22.894   3.528  50.947  0.00  0.00    +0.000 A 
ATOM      8  C   UNL     1      21.690   2.999  51.359  0.00  0.00    +0.000 A 
ATOM      9  C   UNL     1      21.712   1.701  51.892  0.00  0.00    +0.000 A 
ATOM     10  C   UNL     1      22.960   1.102  52.212  0.00  0.00    +0.000 A 
ATOM     11  C   UNL     1      24.157   1.677  51.711  0.00  0.00    +0.000 A 
ATOM     12  O   UNL     1      23.022  -0.071  52.940  0.00  0.00    +0.000 OA
ATOM     13  C   UNL     1      21.785  -0.603  53.518  0.00  0.00    +0.000 C 
ATOM     14  C   UNL     1      21.818  -2.136  53.397  0.00  0.00    +0.000 C 
ATOM     15  C   UNL     1      21.747  -0.226  55.007  0.00  0.00    +0.000 C 
ATOM     16  C   UNL     1      20.508  -0.104  52.884  0.00  0.00    +0.000 C 
ATOM     17  C   UNL     1      20.468   1.010  52.150  0.00  0.00    +0.000 C 
ATOM     18  O   UNL     1      20.540   3.718  51.218  0.00  0.00    +0.000 OA
ATOM     19  C   UNL     1      20.643   5.132  50.887  0.00  0.00    +0.000 C 
ATOM     20  C   UNL     1      19.462   5.456  49.968  0.00  0.00    +0.000 C 
ATOM     21  C   UNL     1      21.949   5.612  50.212  0.00  0.00    +0.000 C 
ATOM     22  C   UNL     1      22.116   7.137  50.212  0.00  0.00    +0.000 C 
ATOM     23  C   UNL     1      23.123   4.997  50.905  0.00  0.00    +0.000 C 
ENDROOT
BRANCH  23  24
ATOM     24  O   UNL     1      23.236   5.469  52.252  0.00  0.00    +0.000 OA
ATOM     25  H   UNL     1      22.877   6.368  52.311  0.00  0.00    +0.000 HD
ENDBRANCH  23  24
BRANCH   1  26
ATOM     26  C   UNL     1      25.993   1.156  53.510  0.00  0.00    +0.000 C 
BRANCH  26  28
ATOM     27  C   UNL     1      26.412  -1.172  52.663  0.00  0.00    +0.000 C 
ATOM     28  C   UNL     1      26.992   0.007  53.436  0.00  0.00    +0.000 C 
ENDBRANCH  26  28
ENDBRANCH   1  26
TORSDOF 3
ENDMDL
MODEL 4
REMARK VINA RESULT:    -7.951      2.201      6.404
REMARK INTER + INTRA:          -9.476
REMARK INTER:                  -9.180
REMARK INTRA:                  -0.296
REMARK UNBOUND:                -0.362
REMARK  Name = 
REMARK  8 active torsions:
REMARK  status: ('A' for Active; 'I' for Inactive)
REMARK    1  A    between atoms: C_1  and  C_2
REMARK    2  A    between atoms: C_2  and  C_3
REMARK    3  A    between atoms: C_3  and  C_4
REMARK    4  A    between atoms: C_16  and  C_17
REMARK    5  A    between atoms: C_16  and  C_18
REMARK    6  A    between atoms: C_22  and  C_23
REMARK    7  A    between atoms: C_24  and  C_25
REMARK    8  A    between atoms: C_26  and  O_27
REMARK                            x       y       z     vdW  Elec       q    Type
REMARK                         _______ _______ _______ _____ _____    ______ ____
ROOT
ATOM      1  C   UNL     1      22.480   6.482  49.987  0.00  0.00    +0.000 A 
ATOM      2  C   UNL     1      21.305   5.940  50.368  0.00  0.00    +0.000 A 
ATOM      3  C   UNL     1      20.996   4.514  50.343  0.00  0.00    +0.000 A 
ATOM      4  O   UNL     1      19.898   4.066  50.636  0.00  0.00    +0.000 OA
ATOM      5  O   UNL     1      22.056   3.711  50.044  0.00  0.00    +0.000 OA
ATOM      6  C   UNL     1      23.320   4.287  50.079  0.00  0.00    +0.000 A 
ATOM      7  C   UNL     1      24.267   3.573  50.743  0.00  0.00    +0.000 A 
ATOM      8  C   UNL     1      25.589   3.691  50.371  0.00  0.00    +0.000 A 
ATOM      9  C   UNL     1      25.920   4.756  49.520  0.00  0.00    +0.000 A 
ATOM     10  C   UNL     1      24.965   5.783  49.287  0.00  0.00    +0.000 A 
ATOM     11  C   UNL     1      23.610   5.570  49.654  0.00  0.00    +0.000 A 
ATOM     12  O   UNL     1      25.319   6.953  48.645  0.00  0.00    +0.000 OA
ATOM     13  C   UNL     1      26.735   7.190  48.350  0.00  0.00    +0.000 C 
ATOM     14  C   UNL     1      26.833   7.866  46.971  0.00  0.00    +0.000 C 
ATOM     15  C   UNL     1      27.295   8.149  49.411  0.00  0.00    +0.000 C 
ATOM     16  C   UNL     1      27.607   5.957  48.336  0.00  0.00    +0.000 C 
ATOM     17  C   UNL     1      27.237   4.819  48.928  0.00  0.00    +0.000 C 
ATOM     18  O   UNL     1      26.508   2.783  50.806  0.00  0.00    +0.000 OA
ATOM     19  C   UNL     1      26.127   1.866  51.870  0.00  0.00    +0.000 C 
ATOM     20  C   UNL     1      26.822   0.534  51.574  0.00  0.00    +0.000 C 
ATOM     21  C   UNL     1      24.617   1.606  52.080  0.00  0.00    +0.000 C 
ATOM     22  C   UNL     1      24.290   0.917  53.411  0.00  0.00    +0.000 C 
ATOM     23  C   UNL     1      23.874   2.902  52.012  0.00  0.00    +0.000 C 
ENDROOT
BRANCH  23  24
ATOM     24  O   UNL     1      24.232   3.762  53.099  0.00  0.00    +0.000 OA
ATOM     25  H   UNL     1      25.119   3.532  53.417  0.00  0.00    +0.000 HD
ENDBRANCH  23  24
BRANCH   1  26
ATOM     26  C   UNL     1      22.673   7.937  50.284  0.00  0.00    +0.000 C 
BRANCH  26  28
ATOM     27  C   UNL     1      21.011   9.482  49.204  0.00  0.00    +0.000 C 
ATOM     28  C   UNL     1      22.378   8.820  49.077  0.00  0.00    +0.000 C 
ENDBRANCH  26  28
ENDBRANCH   1  26
TORSDOF 3
ENDMDL
MODEL 5
REMARK VINA RESULT:    -7.667      4.702      9.041
REMARK INTER + INTRA:          -9.150
REMARK INTER:                  -8.926
REMARK INTRA:                  -0.225
REMARK UNBOUND:                -0.362
REMARK  Name = 
REMARK  8 active torsions:
REMARK  status: ('A' for Active; 'I' for Inactive)
REMARK    1  A    between atoms: C_1  and  C_2
REMARK    2  A    between atoms: C_2  and  C_3
REMARK    3  A    between atoms: C_3  and  C_4
REMARK    4  A    between atoms: C_16  and  C_17
REMARK    5  A    between atoms: C_16  and  C_18
REMARK    6  A    between atoms: C_22  and  C_23
REMARK    7  A    between atoms: C_24  and  C_25
REMARK    8  A    between atoms: C_26  and  O_27
REMARK                            x       y       z     vdW  Elec       q    Type
REMARK                         _______ _______ _______ _____ _____    ______ ____
ROOT
ATOM      1  C   UNL     1      27.145   5.738  48.557  0.00  0.00    +0.000 A 
ATOM      2  C   UNL     1      28.430   5.343  48.444  0.00  0.00    +0.000 A 
ATOM      3  C   UNL     1      29.466   6.069  47.717  0.00  0.00    +0.000 A 
ATOM      4  O   UNL     1      30.604   5.647  47.583  0.00  0.00    +0.000 OA
ATOM      5  O   UNL     1      29.085   7.297  47.265  0.00  0.00    +0.000 OA
ATOM      6  C   UNL     1      27.902   7.822  47.773  0.00  0.00    +0.000 A 
ATOM      7  C   UNL     1      27.969   9.116  48.184  0.00  0.00    +0.000 A 
ATOM      8  C   UNL     1      26.837   9.901  48.135  0.00  0.00    +0.000 A 
ATOM      9  C   UNL     1      25.613   9.245  47.936  0.00  0.00    +0.000 A 
ATOM     10  C   UNL     1      25.558   7.829  48.044  0.00  0.00    +0.000 A 
ATOM     11  C   UNL     1      26.765   7.083  48.038  0.00  0.00    +0.000 A 
ATOM     12  O   UNL     1      24.348   7.164  48.079  0.00  0.00    +0.000 OA
ATOM     13  C   UNL     1      23.116   7.953  48.168  0.00  0.00    +0.000 C 
ATOM     14  C   UNL     1      22.048   7.277  47.291  0.00  0.00    +0.000 C 
ATOM     15  C   UNL     1      22.638   7.939  49.628  0.00  0.00    +0.000 C 
ATOM     16  C   UNL     1      23.240   9.395  47.737  0.00  0.00    +0.000 C 
ATOM     17  C   UNL     1      24.420  10.017  47.670  0.00  0.00    +0.000 C 
ATOM     18  O   UNL     1      26.936  11.256  48.252  0.00  0.00    +0.000 OA
ATOM     19  C   UNL     1      28.201  11.823  48.697  0.00  0.00    +0.000 C 
ATOM     20  C   UNL     1      28.379  13.144  47.945  0.00  0.00    +0.000 C 
ATOM     21  C   UNL     1      29.472  10.964  48.507  0.00  0.00    +0.000 C 
ATOM     22  C   UNL     1      30.683  11.474  49.299  0.00  0.00    +0.000 C 
ATOM     23  C   UNL     1      29.187   9.554  48.918  0.00  0.00    +0.000 C 
ENDROOT
BRANCH  23  24
ATOM     24  O   UNL     1      28.916   9.467  50.321  0.00  0.00    +0.000 OA
ATOM     25  H   UNL     1      28.765   8.541  50.564  0.00  0.00    +0.000 HD
ENDBRANCH  23  24
BRANCH   1  26
ATOM     26  C   UNL     1      26.290   4.968  49.516  0.00  0.00    +0.000 C 
BRANCH  26  28
ATOM     27  C   UNL     1      26.433   2.861  50.877  0.00  0.00    +0.000 C 
ATOM     28  C   UNL     1      26.591   3.474  49.491  0.00  0.00    +0.000 C 
ENDBRANCH  26  28
ENDBRANCH   1  26
TORSDOF 3
ENDMDL
MODEL 6
REMARK VINA RESULT:    -7.637      1.980      5.876
REMARK INTER + INTRA:          -9.116
REMARK INTER:                  -8.664
REMARK INTRA:                  -0.452
REMARK UNBOUND:                -0.362
REMARK  Name = 
REMARK  8 active torsions:
REMARK  status: ('A' for Active; 'I' for Inactive)
REMARK    1  A    between atoms: C_1  and  C_2
REMARK    2  A    between atoms: C_2  and  C_3
REMARK    3  A    between atoms: C_3  and  C_4
REMARK    4  A    between atoms: C_16  and  C_17
REMARK    5  A    between atoms: C_16  and  C_18
REMARK    6  A    between atoms: C_22  and  C_23
REMARK    7  A    between atoms: C_24  and  C_25
REMARK    8  A    between atoms: C_26  and  O_27
REMARK                            x       y       z     vdW  Elec       q    Type
REMARK                         _______ _______ _______ _____ _____    ______ ____
ROOT
ATOM      1  C   UNL     1      21.496   4.292  49.222  0.00  0.00    +0.000 A 
ATOM      2  C   UNL     1      20.605   3.290  49.370  0.00  0.00    +0.000 A 
ATOM      3  C   UNL     1      20.942   1.871  49.410  0.00  0.00    +0.000 A 
ATOM      4  O   UNL     1      20.101   0.989  49.482  0.00  0.00    +0.000 OA
ATOM      5  O   UNL     1      22.279   1.609  49.441  0.00  0.00    +0.000 OA
ATOM      6  C   UNL     1      23.130   2.673  49.713  0.00  0.00    +0.000 A 
ATOM      7  C   UNL     1      24.091   2.428  50.643  0.00  0.00    +0.000 A 
ATOM      8  C   UNL     1      25.286   3.110  50.577  0.00  0.00    +0.000 A 
ATOM      9  C   UNL     1      25.339   4.226  49.729  0.00  0.00    +0.000 A 
ATOM     10  C   UNL     1      24.132   4.744  49.186  0.00  0.00    +0.000 A 
ATOM     11  C   UNL     1      22.949   3.962  49.248  0.00  0.00    +0.000 A 
ATOM     12  O   UNL     1      24.108   5.962  48.535  0.00  0.00    +0.000 OA
ATOM     13  C   UNL     1      25.317   6.791  48.554  0.00  0.00    +0.000 C 
ATOM     14  C   UNL     1      25.461   7.463  47.178  0.00  0.00    +0.000 C 
ATOM     15  C   UNL     1      25.136   7.882  49.620  0.00  0.00    +0.000 C 
ATOM     16  C   UNL     1      26.600   6.055  48.860  0.00  0.00    +0.000 C 
ATOM     17  C   UNL     1      26.609   4.860  49.455  0.00  0.00    +0.000 C 
ATOM     18  O   UNL     1      26.362   2.681  51.297  0.00  0.00    +0.000 OA
ATOM     19  C   UNL     1      26.150   1.673  52.326  0.00  0.00    +0.000 C 
ATOM     20  C   UNL     1      27.391   0.777  52.326  0.00  0.00    +0.000 C 
ATOM     21  C   UNL     1      24.891   0.784  52.204  0.00  0.00    +0.000 C 
ATOM     22  C   UNL     1      24.564   0.002  53.483  0.00  0.00    +0.000 C 
ATOM     23  C   UNL     1      23.714   1.634  51.845  0.00  0.00    +0.000 C 
ENDROOT
BRANCH  23  24
ATOM     24  O   UNL     1      23.392   2.548  52.898  0.00  0.00    +0.000 OA
ATOM     25  H   UNL     1      22.678   3.137  52.609  0.00  0.00    +0.000 HD
ENDBRANCH  23  24
BRANCH   1  26
ATOM     26  C   UNL     1      20.977   5.683  49.417  0.00  0.00    +0.000 C 
BRANCH  26  28
ATOM     27  C   UNL     1      21.611   7.749  50.700  0.00  0.00    +0.000 C 
ATOM     28  C   UNL     1      21.340   6.251  50.784  0.00  0.00    +0.000 C 
ENDBRANCH  26  28
ENDBRANCH   1  26
TORSDOF 3
ENDMDL
MODEL 7
REMARK VINA RESULT:    -7.575      2.201      5.736
REMARK INTER + INTRA:          -9.045
REMARK INTER:                  -8.797
REMARK INTRA:                  -0.247
REMARK UNBOUND:                -0.362
REMARK  Name = 
REMARK  8 active torsions:
REMARK  status: ('A' for Active; 'I' for Inactive)
REMARK    1  A    between atoms: C_1  and  C_2
REMARK    2  A    between atoms: C_2  and  C_3
REMARK    3  A    between atoms: C_3  and  C_4
REMARK    4  A    between atoms: C_16  and  C_17
REMARK    5  A    between atoms: C_16  and  C_18
REMARK    6  A    between atoms: C_22  and  C_23
REMARK    7  A    between atoms: C_24  and  C_25
REMARK    8  A    between atoms: C_26  and  O_27
REMARK                            x       y       z     vdW  Elec       q    Type
REMARK                         _______ _______ _______ _____ _____    ______ ____
ROOT
ATOM      1  C   UNL     1      24.054   1.237  52.622  0.00  0.00    +0.000 A 
ATOM      2  C   UNL     1      23.904   0.080  53.299  0.00  0.00    +0.000 A 
ATOM      3  C   UNL     1      22.733  -0.278  54.092  0.00  0.00    +0.000 A 
ATOM      4  O   UNL     1      22.660  -1.309  54.743  0.00  0.00    +0.000 OA
ATOM      5  O   UNL     1      21.690   0.593  53.986  0.00  0.00    +0.000 OA
ATOM      6  C   UNL     1      21.744   1.526  52.958  0.00  0.00    +0.000 A 
ATOM      7  C   UNL     1      20.604   1.656  52.228  0.00  0.00    +0.000 A 
ATOM      8  C   UNL     1      20.316   2.864  51.631  0.00  0.00    +0.000 A 
ATOM      9  C   UNL     1      21.351   3.809  51.570  0.00  0.00    +0.000 A 
ATOM     10  C   UNL     1      22.679   3.407  51.881  0.00  0.00    +0.000 A 
ATOM     11  C   UNL     1      22.894   2.169  52.540  0.00  0.00    +0.000 A 
ATOM     12  O   UNL     1      23.753   4.235  51.619  0.00  0.00    +0.000 OA
ATOM     13  C   UNL     1      23.520   5.469  50.864  0.00  0.00    +0.000 C 
ATOM     14  C   UNL     1      24.408   6.574  51.463  0.00  0.00    +0.000 C 
ATOM     15  C   UNL     1      23.944   5.231  49.407  0.00  0.00    +0.000 C 
ATOM     16  C   UNL     1      22.092   5.961  50.855  0.00  0.00    +0.000 C 
ATOM     17  C   UNL     1      21.064   5.161  51.147  0.00  0.00    +0.000 C 
ATOM     18  O   UNL     1      19.063   3.112  51.155  0.00  0.00    +0.000 OA
ATOM     19  C   UNL     1      18.131   1.999  51.042  0.00  0.00    +0.000 C 
ATOM     20  C   UNL     1      16.743   2.552  51.372  0.00  0.00    +0.000 C 
ATOM     21  C   UNL     1      18.397   0.756  51.921  0.00  0.00    +0.000 C 
ATOM     22  C   UNL     1      17.591  -0.480  51.498  0.00  0.00    +0.000 C 
ATOM     23  C   UNL     1      19.853   0.419  51.880  0.00  0.00    +0.000 C 
ENDROOT
BRANCH  23  24
ATOM     24  O   UNL     1      20.255   0.008  50.569  0.00  0.00    +0.000 OA
ATOM     25  H   UNL     1      20.971  -0.642  50.639  0.00  0.00    +0.000 HD
ENDBRANCH  23  24
BRANCH   1  26
ATOM     26  C   UNL     1      25.232   1.325  51.701  0.00  0.00    +0.000 C 
BRANCH  26  28
ATOM     27  C   UNL     1      27.471   1.096  52.817  0.00  0.00    +0.000 C 
ATOM     28  C   UNL     1      26.348   0.364  52.092  0.00  0.00    +0.000 C 
ENDBRANCH  26  28
ENDBRANCH   1  26
TORSDOF 3
ENDMDL
MODEL 8
REMARK VINA RESULT:    -7.462      2.010      5.024
REMARK INTER + INTRA:          -8.915
REMARK INTER:                  -8.659
REMARK INTRA:                  -0.257
REMARK UNBOUND:                -0.362
REMARK  Name = 
REMARK  8 active torsions:
REMARK  status: ('A' for Active; 'I' for Inactive)
REMARK    1  A    between atoms: C_1  and  C_2
REMARK    2  A    between atoms: C_2  and  C_3
REMARK    3  A    between atoms: C_3  and  C_4
REMARK    4  A    between atoms: C_16  and  C_17
REMARK    5  A    between atoms: C_16  and  C_18
REMARK    6  A    between atoms: C_22  and  C_23
REMARK    7  A    between atoms: C_24  and  C_25
REMARK    8  A    between atoms: C_26  and  O_27
REMARK                            x       y       z     vdW  Elec       q    Type
REMARK                         _______ _______ _______ _____ _____    ______ ____
ROOT
ATOM      1  C   UNL     1      22.619   0.732  52.841  0.00  0.00    +0.000 A 
ATOM      2  C   UNL     1      23.918   0.629  53.189  0.00  0.00    +0.000 A 
ATOM      3  C   UNL     1      25.044   0.931  52.313  0.00  0.00    +0.000 A 
ATOM      4  O   UNL     1      26.208   0.764  52.644  0.00  0.00    +0.000 OA
ATOM      5  O   UNL     1      24.698   1.491  51.120  0.00  0.00    +0.000 OA
ATOM      6  C   UNL     1      23.397   1.961  50.992  0.00  0.00    +0.000 A 
ATOM      7  C   UNL     1      23.276   3.204  50.456  0.00  0.00    +0.000 A 
ATOM      8  C   UNL     1      22.138   3.531  49.752  0.00  0.00    +0.000 A 
ATOM      9  C   UNL     1      21.043   2.661  49.870  0.00  0.00    +0.000 A 
ATOM     10  C   UNL     1      21.060   1.654  50.873  0.00  0.00    +0.000 A 
ATOM     11  C   UNL     1      22.282   1.339  51.522  0.00  0.00    +0.000 A 
ATOM     12  O   UNL     1      19.924   0.928  51.173  0.00  0.00    +0.000 OA
ATOM     13  C   UNL     1      18.655   1.323  50.555  0.00  0.00    +0.000 C 
ATOM     14  C   UNL     1      17.873   0.046  50.203  0.00  0.00    +0.000 C 
ATOM     15  C   UNL     1      17.848   2.130  51.582  0.00  0.00    +0.000 C 
ATOM     16  C   UNL     1      18.780   2.161  49.304  0.00  0.00    +0.000 C 
ATOM     17  C   UNL     1      19.897   2.829  49.005  0.00  0.00    +0.000 C 
ATOM     18  O   UNL     1      22.113   4.642  48.963  0.00  0.00    +0.000 OA
ATOM     19  C   UNL     1      23.196   5.607  49.090  0.00  0.00    +0.000 C 
ATOM     20  C   UNL     1      23.457   6.164  47.689  0.00  0.00    +0.000 C 
ATOM     21  C   UNL     1      24.531   5.104  49.685  0.00  0.00    +0.000 C 
ATOM     22  C   UNL     1      25.484   6.233  50.100  0.00  0.00    +0.000 C 
ATOM     23  C   UNL     1      24.254   4.245  50.877  0.00  0.00    +0.000 C 
ENDROOT
BRANCH  23  24
ATOM     24  O   UNL     1      23.666   5.004  51.939  0.00  0.00    +0.000 OA
ATOM     25  H   UNL     1      23.023   4.454  52.413  0.00  0.00    +0.000 HD
ENDBRANCH  23  24
BRANCH   1  26
ATOM     26  C   UNL     1      21.616   0.580  53.943  0.00  0.00    +0.000 C 
BRANCH  26  28
ATOM     27  C   UNL     1      21.153  -1.858  54.335  0.00  0.00    +0.000 C 
ATOM     28  C   UNL     1      21.905  -0.627  54.827  0.00  0.00    +0.000 C 
ENDBRANCH  26  28
ENDBRANCH   1  26
TORSDOF 3
ENDMDL
MODEL 9
REMARK VINA RESULT:    -7.364      1.778      5.886
REMARK INTER + INTRA:          -8.802
REMARK INTER:                  -8.304
REMARK INTRA:                  -0.498
REMARK UNBOUND:                -0.362
REMARK  Name = 
REMARK  8 active torsions:
REMARK  status: ('A' for Active; 'I' for Inactive)
REMARK    1  A    between atoms: C_1  and  C_2
REMARK    2  A    between atoms: C_2  and  C_3
REMARK    3  A    between atoms: C_3  and  C_4
REMARK    4  A    between atoms: C_16  and  C_17
REMARK    5  A    between atoms: C_16  and  C_18
REMARK    6  A    between atoms: C_22  and  C_23
REMARK    7  A    between atoms: C_24  and  C_25
REMARK    8  A    between atoms: C_26  and  O_27
REMARK                            x       y       z     vdW  Elec       q    Type
REMARK                         _______ _______ _______ _____ _____    ______ ____
ROOT
ATOM      1  C   UNL     1      22.060   4.657  50.287  0.00  0.00    +0.000 A 
ATOM      2  C   UNL     1      22.962   5.659  50.263  0.00  0.00    +0.000 A 
ATOM      3  C   UNL     1      23.897   5.968  51.339  0.00  0.00    +0.000 A 
ATOM      4  O   UNL     1      24.657   6.924  51.307  0.00  0.00    +0.000 OA
ATOM      5  O   UNL     1      23.914   5.056  52.352  0.00  0.00    +0.000 OA
ATOM      6  C   UNL     1      23.282   3.841  52.124  0.00  0.00    +0.000 A 
ATOM      7  C   UNL     1      23.993   2.738  52.481  0.00  0.00    +0.000 A 
ATOM      8  C   UNL     1      23.324   1.596  52.863  0.00  0.00    +0.000 A 
ATOM      9  C   UNL     1      21.950   1.538  52.588  0.00  0.00    +0.000 A 
ATOM     10  C   UNL     1      21.371   2.513  51.730  0.00  0.00    +0.000 A 
ATOM     11  C   UNL     1      22.102   3.689  51.420  0.00  0.00    +0.000 A 
ATOM     12  O   UNL     1      20.082   2.368  51.255  0.00  0.00    +0.000 OA
ATOM     13  C   UNL     1      19.376   1.111  51.516  0.00  0.00    +0.000 C 
ATOM     14  C   UNL     1      17.902   1.440  51.811  0.00  0.00    +0.000 C 
ATOM     15  C   UNL     1      19.445   0.245  50.249  0.00  0.00    +0.000 C 
ATOM     16  C   UNL     1      19.917   0.292  52.664  0.00  0.00    +0.000 C 
ATOM     17  C   UNL     1      21.151   0.467  53.141  0.00  0.00    +0.000 C 
ATOM     18  O   UNL     1      23.990   0.592  53.502  0.00  0.00    +0.000 OA
ATOM     19  C   UNL     1      25.445   0.631  53.527  0.00  0.00    +0.000 C 
ATOM     20  C   UNL     1      25.878   0.068  54.882  0.00  0.00    +0.000 C 
ATOM     21  C   UNL     1      26.124   2.003  53.315  0.00  0.00    +0.000 C 
ATOM     22  C   UNL     1      27.626   1.906  53.013  0.00  0.00    +0.000 C 
ATOM     23  C   UNL     1      25.452   2.723  52.190  0.00  0.00    +0.000 C 
ENDROOT
BRANCH  23  24
ATOM     24  O   UNL     1      25.651   2.043  50.946  0.00  0.00    +0.000 OA
ATOM     25  H   UNL     1      25.601   2.681  50.217  0.00  0.00    +0.000 HD
ENDBRANCH  23  24
BRANCH   1  26
ATOM     26  C   UNL     1      21.339   4.373  49.006  0.00  0.00    +0.000 C 
BRANCH  26  28
ATOM     27  C   UNL     1      22.216   2.232  48.027  0.00  0.00    +0.000 C 
ATOM     28  C   UNL     1      22.250   3.753  47.952  0.00  0.00    +0.000 C 
ENDBRANCH  26  28
ENDBRANCH   1  26
TORSDOF 3
ENDMDL
