MODEL 1
REMARK VINA RESULT:    -9.471      0.000      0.000
REMARK INTER + INTRA:         -11.217
REMARK INTER:                 -10.855
REMARK INTRA:                  -0.362
REMARK UNBOUND:                -0.362
REMARK  Name = 
REMARK  9 active torsions:
REMARK  status: ('A' for Active; 'I' for Inactive)
REMARK    1  A    between atoms: C_1  and  C_2
REMARK    2  A    between atoms: C_2  and  C_3
REMARK    3  A    between atoms: C_3  and  C_4
REMARK    4  A    between atoms: C_16  and  C_17
REMARK    5  A    between atoms: C_16  and  C_18
REMARK    6  A    between atoms: C_22  and  C_23
REMARK    7  A    between atoms: C_24  and  C_25
REMARK    8  A    between atoms: C_24  and  C_26
REMARK    9  A    between atoms: C_27  and  O_28
REMARK                            x       y       z     vdW  Elec       q    Type
REMARK                         _______ _______ _______ _____ _____    ______ ____
ROOT
ATOM      1  C   UNL     1      22.117   0.813  52.852  0.00  0.00    +0.000 A 
ATOM      2  C   UNL     1      20.885   1.330  52.600  0.00  0.00    +0.000 A 
ATOM      3  C   UNL     1      20.622   2.751  52.375  0.00  0.00    +0.000 A 
ATOM      4  O   UNL     1      19.491   3.194  52.192  0.00  0.00    +0.000 OA
ATOM      5  O   UNL     1      21.733   3.538  52.332  0.00  0.00    +0.000 OA
ATOM      6  C   UNL     1      22.941   2.879  52.130  0.00  0.00    +0.000 A 
ATOM      7  C   UNL     1      23.697   3.334  51.086  0.00  0.00    +0.000 A 
ATOM      8  C   UNL     1      25.059   3.185  51.140  0.00  0.00    +0.000 A 
ATOM      9  C   UNL     1      25.578   2.325  52.110  0.00  0.00    +0.000 A 
ATOM     10  C   UNL     1      24.699   1.464  52.824  0.00  0.00    +0.000 A 
ATOM     11  C   UNL     1      23.305   1.705  52.748  0.00  0.00    +0.000 A 
ATOM     12  O   UNL     1      25.182   0.448  53.620  0.00  0.00    +0.000 OA
ATOM     13  C   UNL     1      26.615   0.171  53.610  0.00  0.00    +0.000 C 
ATOM     14  C   UNL     1      27.056  -0.149  55.049  0.00  0.00    +0.000 C 
ATOM     15  C   UNL     1      26.848  -1.064  52.732  0.00  0.00    +0.000 C 
ATOM     16  C   UNL     1      27.490   1.285  53.087  0.00  0.00    +0.000 C 
ATOM     17  C   UNL     1      27.010   2.283  52.351  0.00  0.00    +0.000 C 
ATOM     18  O   UNL     1      25.859   3.904  50.296  0.00  0.00    +0.000 OA
ATOM     19  C   UNL     1      25.242   4.588  49.166  0.00  0.00    +0.000 C 
ATOM     20  C   UNL     1      26.125   5.800  48.882  0.00  0.00    +0.000 C 
ATOM     21  C   UNL     1      23.738   4.981  49.305  0.00  0.00    +0.000 C 
ATOM     22  C   UNL     1      23.488   6.161  50.272  0.00  0.00    +0.000 C 
ATOM     23  C   UNL     1      23.113   5.321  47.935  0.00  0.00    +0.000 C 
ATOM     24  C   UNL     1      23.006   3.776  49.849  0.00  0.00    +0.000 C 
ENDROOT
BRANCH  24  25
ATOM     25  O   UNL     1      23.033   2.678  48.927  0.00  0.00    +0.000 OA
ATOM     26  H   UNL     1      22.125   2.442  48.678  0.00  0.00    +0.000 HD
ENDBRANCH  24  25
BRANCH   1  27
ATOM     27  C   UNL     1      22.224  -0.682  52.853  0.00  0.00    +0.000 C 
BRANCH  27  29
ATOM     28  C   UNL     1      22.745  -1.419  55.194  0.00  0.00    +0.000 C 
ATOM     29  C   UNL     1      21.665  -1.298  54.128  0.00  0.00    +0.000 C 
ENDBRANCH  27  29
ENDBRANCH   1  27
TORSDOF 3
ENDMDL
MODEL 2
REMARK VINA RESULT:    -8.372      1.969      5.451
REMARK INTER + INTRA:          -9.958
REMARK INTER:                  -9.591
REMARK INTRA:                  -0.367
REMARK UNBOUND:                -0.362
REMARK  Name = 
REMARK  9 active torsions:
REMARK  status: ('A' for Active; 'I' for Inactive)
REMARK    1  A    between atoms: C_1  and  C_2
REMARK    2  A    between atoms: C_2  and  C_3
REMARK    3  A    between atoms: C_3  and  C_4
REMARK    4  A    between atoms: C_16  and  C_17
REMARK    5  A    between atoms: C_16  and  C_18
REMARK    6  A    between atoms: C_22  and  C_23
REMARK    7  A    between atoms: C_24  and  C_25
REMARK    8  A    between atoms: C_24  and  C_26
REMARK    9  A    between atoms: C_27  and  O_28
REMARK                            x       y       z     vdW  Elec       q    Type
REMARK                         _______ _______ _______ _____ _____    ______ ____
ROOT
ATOM      1  C   UNL     1      23.621   3.613  49.821  0.00  0.00    +0.000 A 
ATOM      2  C   UNL     1      22.789   4.162  48.898  0.00  0.00    +0.000 A 
ATOM      3  C   UNL     1      21.638   3.470  48.317  0.00  0.00    +0.000 A 
ATOM      4  O   UNL     1      20.928   3.977  47.452  0.00  0.00    +0.000 OA
ATOM      5  O   UNL     1      21.384   2.241  48.846  0.00  0.00    +0.000 OA
ATOM      6  C   UNL     1      21.977   1.969  50.074  0.00  0.00    +0.000 A 
ATOM      7  C   UNL     1      21.128   1.561  51.064  0.00  0.00    +0.000 A 
ATOM      8  C   UNL     1      21.615   0.755  52.062  0.00  0.00    +0.000 A 
ATOM      9  C   UNL     1      23.000   0.633  52.178  0.00  0.00    +0.000 A 
ATOM     10  C   UNL     1      23.844   1.514  51.444  0.00  0.00    +0.000 A 
ATOM     11  C   UNL     1      23.275   2.287  50.403  0.00  0.00    +0.000 A 
ATOM     12  O   UNL     1      25.197   1.582  51.695  0.00  0.00    +0.000 OA
ATOM     13  C   UNL     1      25.738   0.840  52.830  0.00  0.00    +0.000 C 
ATOM     14  C   UNL     1      27.091   0.236  52.412  0.00  0.00    +0.000 C 
ATOM     15  C   UNL     1      25.970   1.834  53.974  0.00  0.00    +0.000 C 
ATOM     16  C   UNL     1      24.867  -0.277  53.353  0.00  0.00    +0.000 C 
ATOM     17  C   UNL     1      23.569  -0.358  53.076  0.00  0.00    +0.000 C 
ATOM     18  O   UNL     1      20.750   0.068  52.868  0.00  0.00    +0.000 OA
ATOM     19  C   UNL     1      19.338   0.430  52.842  0.00  0.00    +0.000 C 
ATOM     20  C   UNL     1      18.576  -0.844  53.194  0.00  0.00    +0.000 C 
ATOM     21  C   UNL     1      18.794   1.095  51.538  0.00  0.00    +0.000 C 
ATOM     22  C   UNL     1      18.659   0.115  50.350  0.00  0.00    +0.000 C 
ATOM     23  C   UNL     1      17.432   1.778  51.776  0.00  0.00    +0.000 C 
ATOM     24  C   UNL     1      19.778   2.171  51.138  0.00  0.00    +0.000 C 
ENDROOT
BRANCH  24  25
ATOM     25  O   UNL     1      19.835   3.224  52.111  0.00  0.00    +0.000 OA
ATOM     26  H   UNL     1      19.199   3.917  51.875  0.00  0.00    +0.000 HD
ENDBRANCH  24  25
BRANCH   1  27
ATOM     27  C   UNL     1      24.618   4.538  50.452  0.00  0.00    +0.000 C 
BRANCH  27  29
ATOM     28  C   UNL     1      26.781   3.800  49.413  0.00  0.00    +0.000 C 
ATOM     29  C   UNL     1      25.742   4.911  49.494  0.00  0.00    +0.000 C 
ENDBRANCH  27  29
ENDBRANCH   1  27
TORSDOF 3
ENDMDL
MODEL 3
REMARK VINA RESULT:    -8.139      1.550      4.612
REMARK INTER + INTRA:          -9.691
REMARK INTER:                  -9.323
REMARK INTRA:                  -0.368
REMARK UNBOUND:                -0.362
REMARK  Name = 
REMARK  9 active torsions:
REMARK  status: ('A' for Active; 'I' for Inactive)
REMARK    1  A    between atoms: C_1  and  C_2
REMARK    2  A    between atoms: C_2  and  C_3
REMARK    3  A    between atoms: C_3  and  C_4
REMARK    4  A    between atoms: C_16  and  C_17
REMARK    5  A    between atoms: C_16  and  C_18
REMARK    6  A    between atoms: C_22  and  C_23
REMARK    7  A    between atoms: C_24  and  C_25
REMARK    8  A    between atoms: C_24  and  C_26
REMARK    9  A    between atoms: C_27  and  O_28
REMARK                            x       y       z     vdW  Elec       q    Type
REMARK                         _______ _______ _______ _____ _____    ______ ____
ROOT
ATOM      1  C   UNL     1      25.594   1.711  52.211  0.00  0.00    +0.000 A 
ATOM      2  C   UNL     1      26.510   2.476  51.561  0.00  0.00    +0.000 A 
ATOM      3  C   UNL     1      26.250   3.174  50.302  0.00  0.00    +0.000 A 
ATOM      4  O   UNL     1      27.112   3.823  49.715  0.00  0.00    +0.000 OA
ATOM      5  O   UNL     1      24.966   3.089  49.856  0.00  0.00    +0.000 OA
ATOM      6  C   UNL     1      24.017   2.701  50.796  0.00  0.00    +0.000 A 
ATOM      7  C   UNL     1      22.946   3.538  50.937  0.00  0.00    +0.000 A 
ATOM      8  C   UNL     1      21.749   3.017  51.357  0.00  0.00    +0.000 A 
ATOM      9  C   UNL     1      21.757   1.729  51.895  0.00  0.00    +0.000 A 
ATOM     10  C   UNL     1      22.999   1.111  52.213  0.00  0.00    +0.000 A 
ATOM     11  C   UNL     1      24.191   1.689  51.711  0.00  0.00    +0.000 A 
ATOM     12  O   UNL     1      23.052  -0.054  52.947  0.00  0.00    +0.000 OA
ATOM     13  C   UNL     1      21.816  -0.576  53.522  0.00  0.00    +0.000 C 
ATOM     14  C   UNL     1      21.827  -2.109  53.383  0.00  0.00    +0.000 C 
ATOM     15  C   UNL     1      21.801  -0.213  55.012  0.00  0.00    +0.000 C 
ATOM     16  C   UNL     1      20.540  -0.057  52.904  0.00  0.00    +0.000 C 
ATOM     17  C   UNL     1      20.503   1.047  52.165  0.00  0.00    +0.000 C 
ATOM     18  O   UNL     1      20.597   3.735  51.197  0.00  0.00    +0.000 OA
ATOM     19  C   UNL     1      20.700   5.149  50.855  0.00  0.00    +0.000 C 
ATOM     20  C   UNL     1      19.437   5.478  50.064  0.00  0.00    +0.000 C 
ATOM     21  C   UNL     1      21.993   5.612  50.112  0.00  0.00    +0.000 C 
ATOM     22  C   UNL     1      22.060   5.157  48.636  0.00  0.00    +0.000 C 
ATOM     23  C   UNL     1      22.160   7.144  50.167  0.00  0.00    +0.000 C 
ATOM     24  C   UNL     1      23.171   5.002  50.837  0.00  0.00    +0.000 C 
ENDROOT
BRANCH  24  25
ATOM     25  O   UNL     1      23.293   5.510  52.172  0.00  0.00    +0.000 OA
ATOM     26  H   UNL     1      23.317   6.480  52.148  0.00  0.00    +0.000 HD
ENDBRANCH  24  25
BRANCH   1  27
ATOM     27  C   UNL     1      25.971   1.245  53.585  0.00  0.00    +0.000 C 
BRANCH  27  29
ATOM     28  C   UNL     1      26.466  -1.084  52.794  0.00  0.00    +0.000 C 
ATOM     29  C   UNL     1      27.001   0.125  53.549  0.00  0.00    +0.000 C 
ENDBRANCH  27  29
ENDBRANCH   1  27
TORSDOF 3
ENDMDL
MODEL 4
REMARK VINA RESULT:    -8.104      1.575      2.082
REMARK INTER + INTRA:          -9.651
REMARK INTER:                  -9.287
REMARK INTRA:                  -0.364
REMARK UNBOUND:                -0.362
REMARK  Name = 
REMARK  9 active torsions:
REMARK  status: ('A' for Active; 'I' for Inactive)
REMARK    1  A    between atoms: C_1  and  C_2
REMARK    2  A    between atoms: C_2  and  C_3
REMARK    3  A    between atoms: C_3  and  C_4
REMARK    4  A    between atoms: C_16  and  C_17
REMARK    5  A    between atoms: C_16  and  C_18
REMARK    6  A    between atoms: C_22  and  C_23
REMARK    7  A    between atoms: C_24  and  C_25
REMARK    8  A    between atoms: C_24  and  C_26
REMARK    9  A    between atoms: C_27  and  O_28
REMARK                            x       y       z     vdW  Elec       q    Type
REMARK                         _______ _______ _______ _____ _____    ______ ____
ROOT
ATOM      1  C   UNL     1      21.512  -0.098  52.835  0.00  0.00    +0.000 A 
ATOM      2  C   UNL     1      20.159  -0.095  52.700  0.00  0.00    +0.000 A 
ATOM      3  C   UNL     1      19.378   1.073  52.295  0.00  0.00    +0.000 A 
ATOM      4  O   UNL     1      18.152   1.058  52.222  0.00  0.00    +0.000 OA
ATOM      5  O   UNL     1      20.118   2.165  51.954  0.00  0.00    +0.000 OA
ATOM      6  C   UNL     1      21.460   1.931  51.673  0.00  0.00    +0.000 A 
ATOM      7  C   UNL     1      21.901   2.393  50.465  0.00  0.00    +0.000 A 
ATOM      8  C   UNL     1      23.223   2.731  50.329  0.00  0.00    +0.000 A 
ATOM      9  C   UNL     1      24.104   2.318  51.330  0.00  0.00    +0.000 A 
ATOM     10  C   UNL     1      23.665   1.374  52.301  0.00  0.00    +0.000 A 
ATOM     11  C   UNL     1      22.279   1.104  52.406  0.00  0.00    +0.000 A 
ATOM     12  O   UNL     1      24.555   0.770  53.163  0.00  0.00    +0.000 OA
ATOM     13  C   UNL     1      25.983   1.001  52.973  0.00  0.00    +0.000 C 
ATOM     14  C   UNL     1      26.637   1.152  54.358  0.00  0.00    +0.000 C 
ATOM     15  C   UNL     1      26.571  -0.233  52.278  0.00  0.00    +0.000 C 
ATOM     16  C   UNL     1      26.342   2.215  52.149  0.00  0.00    +0.000 C 
ATOM     17  C   UNL     1      25.468   2.816  51.348  0.00  0.00    +0.000 C 
ATOM     18  O   UNL     1      23.628   3.491  49.267  0.00  0.00    +0.000 OA
ATOM     19  C   UNL     1      22.706   3.677  48.153  0.00  0.00    +0.000 C 
ATOM     20  C   UNL     1      23.058   5.032  47.544  0.00  0.00    +0.000 C 
ATOM     21  C   UNL     1      21.180   3.554  48.460  0.00  0.00    +0.000 C 
ATOM     22  C   UNL     1      20.606   4.749  49.253  0.00  0.00    +0.000 C 
ATOM     23  C   UNL     1      20.356   3.373  47.169  0.00  0.00    +0.000 C 
ATOM     24  C   UNL     1      20.989   2.310  49.297  0.00  0.00    +0.000 C 
ENDROOT
BRANCH  24  25
ATOM     25  O   UNL     1      21.332   1.123  48.569  0.00  0.00    +0.000 OA
ATOM     26  H   UNL     1      20.627   0.918  47.934  0.00  0.00    +0.000 HD
ENDBRANCH  24  25
BRANCH   1  27
ATOM     27  C   UNL     1      22.156  -1.433  53.057  0.00  0.00    +0.000 C 
BRANCH  27  29
ATOM     28  C   UNL     1      23.071  -1.401  55.394  0.00  0.00    +0.000 C 
ATOM     29  C   UNL     1      21.970  -1.930  54.485  0.00  0.00    +0.000 C 
ENDBRANCH  27  29
ENDBRANCH   1  27
TORSDOF 3
ENDMDL
MODEL 5
REMARK VINA RESULT:    -7.680      1.539      5.550
REMARK INTER + INTRA:          -9.164
REMARK INTER:                  -8.798
REMARK INTRA:                  -0.366
REMARK UNBOUND:                -0.362
REMARK  Name = 
REMARK  9 active torsions:
REMARK  status: ('A' for Active; 'I' for Inactive)
REMARK    1  A    between atoms: C_1  and  C_2
REMARK    2  A    between atoms: C_2  and  C_3
REMARK    3  A    between atoms: C_3  and  C_4
REMARK    4  A    between atoms: C_16  and  C_17
REMARK    5  A    between atoms: C_16  and  C_18
REMARK    6  A    between atoms: C_22  and  C_23
REMARK    7  A    between atoms: C_24  and  C_25
REMARK    8  A    between atoms: C_24  and  C_26
REMARK    9  A    between atoms: C_27  and  O_28
REMARK                            x       y       z     vdW  Elec       q    Type
REMARK                         _______ _______ _______ _____ _____    ______ ____
ROOT
ATOM      1  C   UNL     1      22.097   2.131  52.365  0.00  0.00    +0.000 A 
ATOM      2  C   UNL     1      21.678   1.065  53.097  0.00  0.00    +0.000 A 
ATOM      3  C   UNL     1      22.394  -0.208  53.175  0.00  0.00    +0.000 A 
ATOM      4  O   UNL     1      21.969  -1.169  53.811  0.00  0.00    +0.000 OA
ATOM      5  O   UNL     1      23.594  -0.229  52.531  0.00  0.00    +0.000 OA
ATOM      6  C   UNL     1      24.144   1.011  52.222  0.00  0.00    +0.000 A 
ATOM      7  C   UNL     1      25.421   1.218  52.664  0.00  0.00    +0.000 A 
ATOM      8  C   UNL     1      26.227   2.087  51.973  0.00  0.00    +0.000 A 
ATOM      9  C   UNL     1      25.622   2.928  51.038  0.00  0.00    +0.000 A 
ATOM     10  C   UNL     1      24.203   3.033  51.008  0.00  0.00    +0.000 A 
ATOM     11  C   UNL     1      23.436   2.077  51.717  0.00  0.00    +0.000 A 
ATOM     12  O   UNL     1      23.574   4.009  50.265  0.00  0.00    +0.000 OA
ATOM     13  C   UNL     1      24.390   5.032  49.617  0.00  0.00    +0.000 C 
ATOM     14  C   UNL     1      23.795   5.315  48.226  0.00  0.00    +0.000 C 
ATOM     15  C   UNL     1      24.305   6.307  50.463  0.00  0.00    +0.000 C 
ATOM     16  C   UNL     1      25.850   4.686  49.442  0.00  0.00    +0.000 C 
ATOM     17  C   UNL     1      26.441   3.718  50.135  0.00  0.00    +0.000 C 
ATOM     18  O   UNL     1      27.579   2.072  52.177  0.00  0.00    +0.000 OA
ATOM     19  C   UNL     1      28.102   1.345  53.328  0.00  0.00    +0.000 C 
ATOM     20  C   UNL     1      29.502   0.888  52.929  0.00  0.00    +0.000 C 
ATOM     21  C   UNL     1      27.238   0.169  53.882  0.00  0.00    +0.000 C 
ATOM     22  C   UNL     1      27.238  -1.084  52.977  0.00  0.00    +0.000 C 
ATOM     23  C   UNL     1      27.686  -0.243  55.300  0.00  0.00    +0.000 C 
ATOM     24  C   UNL     1      25.814   0.665  53.984  0.00  0.00    +0.000 C 
ENDROOT
BRANCH  24  25
ATOM     25  O   UNL     1      25.688   1.721  54.946  0.00  0.00    +0.000 OA
ATOM     26  H   UNL     1      26.553   2.136  55.086  0.00  0.00    +0.000 HD
ENDBRANCH  24  25
BRANCH   1  27
ATOM     27  C   UNL     1      21.348   3.414  52.568  0.00  0.00    +0.000 C 
BRANCH  27  29
ATOM     28  C   UNL     1      20.040   3.657  50.440  0.00  0.00    +0.000 C 
ATOM     29  C   UNL     1      19.963   3.377  51.935  0.00  0.00    +0.000 C 
ENDBRANCH  27  29
ENDBRANCH   1  27
TORSDOF 3
ENDMDL
MODEL 6
REMARK VINA RESULT:    -7.432      2.509      6.156
REMARK INTER + INTRA:          -8.880
REMARK INTER:                  -8.393
REMARK INTRA:                  -0.488
REMARK UNBOUND:                -0.362
REMARK  Name = 
REMARK  9 active torsions:
REMARK  status: ('A' for Active; 'I' for Inactive)
REMARK    1  A    between atoms: C_1  and  C_2
REMARK    2  A    between atoms: C_2  and  C_3
REMARK    3  A    between atoms: C_3  and  C_4
REMARK    4  A    between atoms: C_16  and  C_17
REMARK    5  A    between atoms: C_16  and  C_18
REMARK    6  A    between atoms: C_22  and  C_23
REMARK    7  A    between atoms: C_24  and  C_25
REMARK    8  A    between atoms: C_24  and  C_26
REMARK    9  A    between atoms: C_27  and  O_28
REMARK                            x       y       z     vdW  Elec       q    Type
REMARK                         _______ _______ _______ _____ _____    ______ ____
ROOT
ATOM      1  C   UNL     1      19.710   4.653  50.275  0.00  0.00    +0.000 A 
ATOM      2  C   UNL     1      20.498   5.758  50.190  0.00  0.00    +0.000 A 
ATOM      3  C   UNL     1      21.600   6.052  51.106  0.00  0.00    +0.000 A 
ATOM      4  O   UNL     1      22.267   7.080  51.031  0.00  0.00    +0.000 OA
ATOM      5  O   UNL     1      21.862   5.073  52.017  0.00  0.00    +0.000 OA
ATOM      6  C   UNL     1      21.336   3.817  51.734  0.00  0.00    +0.000 A 
ATOM      7  C   UNL     1      22.233   2.786  51.733  0.00  0.00    +0.000 A 
ATOM      8  C   UNL     1      21.790   1.523  52.034  0.00  0.00    +0.000 A 
ATOM      9  C   UNL     1      20.411   1.305  52.041  0.00  0.00    +0.000 A 
ATOM     10  C   UNL     1      19.543   2.299  51.508  0.00  0.00    +0.000 A 
ATOM     11  C   UNL     1      20.065   3.591  51.256  0.00  0.00    +0.000 A 
ATOM     12  O   UNL     1      18.208   2.038  51.287  0.00  0.00    +0.000 OA
ATOM     13  C   UNL     1      17.720   0.675  51.472  0.00  0.00    +0.000 C 
ATOM     14  C   UNL     1      16.335   0.744  52.138  0.00  0.00    +0.000 C 
ATOM     15  C   UNL     1      17.573   0.035  50.086  0.00  0.00    +0.000 C 
ATOM     16  C   UNL     1      18.600  -0.224  52.308  0.00  0.00    +0.000 C 
ATOM     17  C   UNL     1      19.877   0.053  52.550  0.00  0.00    +0.000 C 
ATOM     18  O   UNL     1      22.687   0.546  52.363  0.00  0.00    +0.000 OA
ATOM     19  C   UNL     1      24.102   0.783  52.102  0.00  0.00    +0.000 C 
ATOM     20  C   UNL     1      24.859  -0.030  53.148  0.00  0.00    +0.000 C 
ATOM     21  C   UNL     1      24.581   2.268  52.057  0.00  0.00    +0.000 C 
ATOM     22  C   UNL     1      24.629   2.949  53.444  0.00  0.00    +0.000 C 
ATOM     23  C   UNL     1      25.967   2.396  51.392  0.00  0.00    +0.000 C 
ATOM     24  C   UNL     1      23.596   3.033  51.202  0.00  0.00    +0.000 C 
ENDROOT
BRANCH  24  25
ATOM     25  O   UNL     1      23.615   2.582  49.841  0.00  0.00    +0.000 OA
ATOM     26  H   UNL     1      22.707   2.413  49.543  0.00  0.00    +0.000 HD
ENDBRANCH  24  25
BRANCH   1  27
ATOM     27  C   UNL     1      18.769   4.418  49.133  0.00  0.00    +0.000 C 
BRANCH  27  29
ATOM     28  C   UNL     1      20.078   2.719  47.831  0.00  0.00    +0.000 C 
ATOM     29  C   UNL     1      19.505   4.129  47.832  0.00  0.00    +0.000 C 
ENDBRANCH  27  29
ENDBRANCH   1  27
TORSDOF 3
ENDMDL
MODEL 7
REMARK VINA RESULT:    -7.370      2.066      6.476
REMARK INTER + INTRA:          -8.809
REMARK INTER:                  -8.516
REMARK INTRA:                  -0.293
REMARK UNBOUND:                -0.362
REMARK  Name = 
REMARK  9 active torsions:
REMARK  status: ('A' for Active; 'I' for Inactive)
REMARK    1  A    between atoms: C_1  and  C_2
REMARK    2  A    between atoms: C_2  and  C_3
REMARK    3  A    between atoms: C_3  and  C_4
REMARK    4  A    between atoms: C_16  and  C_17
REMARK    5  A    between atoms: C_16  and  C_18
REMARK    6  A    between atoms: C_22  and  C_23
REMARK    7  A    between atoms: C_24  and  C_25
REMARK    8  A    between atoms: C_24  and  C_26
REMARK    9  A    between atoms: C_27  and  O_28
REMARK                            x       y       z     vdW  Elec       q    Type
REMARK                         _______ _______ _______ _____ _____    ______ ____
ROOT
ATOM      1  C   UNL     1      22.451   6.809  50.047  0.00  0.00    +0.000 A 
ATOM      2  C   UNL     1      21.262   6.335  50.503  0.00  0.00    +0.000 A 
ATOM      3  C   UNL     1      20.900   4.918  50.531  0.00  0.00    +0.000 A 
ATOM      4  O   UNL     1      19.800   4.523  50.908  0.00  0.00    +0.000 OA
ATOM      5  O   UNL     1      21.895   4.068  50.154  0.00  0.00    +0.000 OA
ATOM      6  C   UNL     1      23.183   4.591  50.161  0.00  0.00    +0.000 A 
ATOM      7  C   UNL     1      24.105   3.888  50.885  0.00  0.00    +0.000 A 
ATOM      8  C   UNL     1      25.425   3.955  50.519  0.00  0.00    +0.000 A 
ATOM      9  C   UNL     1      25.798   4.954  49.620  0.00  0.00    +0.000 A 
ATOM     10  C   UNL     1      24.879   5.997  49.313  0.00  0.00    +0.000 A 
ATOM     11  C   UNL     1      23.523   5.839  49.691  0.00  0.00    +0.000 A 
ATOM     12  O   UNL     1      25.275   7.117  48.615  0.00  0.00    +0.000 OA
ATOM     13  C   UNL     1      26.693   7.292  48.316  0.00  0.00    +0.000 C 
ATOM     14  C   UNL     1      26.821   7.863  46.893  0.00  0.00    +0.000 C 
ATOM     15  C   UNL     1      27.262   8.309  49.313  0.00  0.00    +0.000 C 
ATOM     16  C   UNL     1      27.535   6.040  48.397  0.00  0.00    +0.000 C 
ATOM     17  C   UNL     1      27.130   4.949  49.040  0.00  0.00    +0.000 C 
ATOM     18  O   UNL     1      26.313   3.030  50.995  0.00  0.00    +0.000 OA
ATOM     19  C   UNL     1      25.902   2.176  52.103  0.00  0.00    +0.000 C 
ATOM     20  C   UNL     1      26.685   0.876  51.938  0.00  0.00    +0.000 C 
ATOM     21  C   UNL     1      24.372   1.918  52.278  0.00  0.00    +0.000 C 
ATOM     22  C   UNL     1      23.773   0.975  51.210  0.00  0.00    +0.000 C 
ATOM     23  C   UNL     1      24.049   1.354  53.676  0.00  0.00    +0.000 C 
ATOM     24  C   UNL     1      23.674   3.254  52.156  0.00  0.00    +0.000 C 
ENDROOT
BRANCH  24  25
ATOM     25  O   UNL     1      24.039   4.141  53.223  0.00  0.00    +0.000 OA
ATOM     26  H   UNL     1      25.004   4.233  53.252  0.00  0.00    +0.000 HD
ENDBRANCH  24  25
BRANCH   1  27
ATOM     27  C   UNL     1      22.724   8.264  50.285  0.00  0.00    +0.000 C 
BRANCH  27  29
ATOM     28  C   UNL     1      21.148   9.810  49.092  0.00  0.00    +0.000 C 
ATOM     29  C   UNL     1      22.496   9.104  49.035  0.00  0.00    +0.000 C 
ENDBRANCH  27  29
ENDBRANCH   1  27
TORSDOF 3
ENDMDL
MODEL 8
REMARK VINA RESULT:    -7.313      2.196      5.402
REMARK INTER + INTRA:          -8.744
REMARK INTER:                  -8.448
REMARK INTRA:                  -0.296
REMARK UNBOUND:                -0.362
REMARK  Name = 
REMARK  9 active torsions:
REMARK  status: ('A' for Active; 'I' for Inactive)
REMARK    1  A    between atoms: C_1  and  C_2
REMARK    2  A    between atoms: C_2  and  C_3
REMARK    3  A    between atoms: C_3  and  C_4
REMARK    4  A    between atoms: C_16  and  C_17
REMARK    5  A    between atoms: C_16  and  C_18
REMARK    6  A    between atoms: C_22  and  C_23
REMARK    7  A    between atoms: C_24  and  C_25
REMARK    8  A    between atoms: C_24  and  C_26
REMARK    9  A    between atoms: C_27  and  O_28
REMARK                            x       y       z     vdW  Elec       q    Type
REMARK                         _______ _______ _______ _____ _____    ______ ____
ROOT
ATOM      1  C   UNL     1      23.339   2.098  51.716  0.00  0.00    +0.000 A 
ATOM      2  C   UNL     1      24.680   1.970  51.895  0.00  0.00    +0.000 A 
ATOM      3  C   UNL     1      25.685   2.559  51.011  0.00  0.00    +0.000 A 
ATOM      4  O   UNL     1      26.891   2.390  51.174  0.00  0.00    +0.000 OA
ATOM      5  O   UNL     1      25.183   3.351  50.023  0.00  0.00    +0.000 OA
ATOM      6  C   UNL     1      23.877   3.794  50.199  0.00  0.00    +0.000 A 
ATOM      7  C   UNL     1      23.694   5.146  50.118  0.00  0.00    +0.000 A 
ATOM      8  C   UNL     1      22.475   5.626  49.711  0.00  0.00    +0.000 A 
ATOM      9  C   UNL     1      21.404   4.732  49.681  0.00  0.00    +0.000 A 
ATOM     10  C   UNL     1      21.543   3.453  50.292  0.00  0.00    +0.000 A 
ATOM     11  C   UNL     1      22.840   3.011  50.652  0.00  0.00    +0.000 A 
ATOM     12  O   UNL     1      20.454   2.631  50.486  0.00  0.00    +0.000 OA
ATOM     13  C   UNL     1      19.123   3.149  50.187  0.00  0.00    +0.000 C 
ATOM     14  C   UNL     1      18.306   2.027  49.523  0.00  0.00    +0.000 C 
ATOM     15  C   UNL     1      18.457   3.531  51.514  0.00  0.00    +0.000 C 
ATOM     16  C   UNL     1      19.083   4.358  49.282  0.00  0.00    +0.000 C 
ATOM     17  C   UNL     1      20.147   5.125  49.069  0.00  0.00    +0.000 C 
ATOM     18  O   UNL     1      22.354   6.926  49.306  0.00  0.00    +0.000 OA
ATOM     19  C   UNL     1      23.447   7.849  49.591  0.00  0.00    +0.000 C 
ATOM     20  C   UNL     1      23.403   8.898  48.484  0.00  0.00    +0.000 C 
ATOM     21  C   UNL     1      24.873   7.237  49.761  0.00  0.00    +0.000 C 
ATOM     22  C   UNL     1      25.505   6.754  48.436  0.00  0.00    +0.000 C 
ATOM     23  C   UNL     1      25.838   8.230  50.439  0.00  0.00    +0.000 C 
ATOM     24  C   UNL     1      24.742   6.038  50.673  0.00  0.00    +0.000 C 
ENDROOT
BRANCH  24  25
ATOM     25  O   UNL     1      24.328   6.419  51.992  0.00  0.00    +0.000 OA
ATOM     26  H   UNL     1      24.983   6.111  52.638  0.00  0.00    +0.000 HD
ENDBRANCH  24  25
BRANCH   1  27
ATOM     27  C   UNL     1      22.468   1.603  52.832  0.00  0.00    +0.000 C 
BRANCH  27  29
ATOM     28  C   UNL     1      22.645  -0.775  53.616  0.00  0.00    +0.000 C 
ATOM     29  C   UNL     1      22.006   0.170  52.607  0.00  0.00    +0.000 C 
ENDBRANCH  27  29
ENDBRANCH   1  27
TORSDOF 3
ENDMDL
MODEL 9
REMARK VINA RESULT:    -7.257      1.838      6.028
REMARK INTER + INTRA:          -8.680
REMARK INTER:                  -8.202
REMARK INTRA:                  -0.478
REMARK UNBOUND:                -0.362
REMARK  Name = 
REMARK  9 active torsions:
REMARK  status: ('A' for Active; 'I' for Inactive)
REMARK    1  A    between atoms: C_1  and  C_2
REMARK    2  A    between atoms: C_2  and  C_3
REMARK    3  A    between atoms: C_3  and  C_4
REMARK    4  A    between atoms: C_16  and  C_17
REMARK    5  A    between atoms: C_16  and  C_18
REMARK    6  A    between atoms: C_22  and  C_23
REMARK    7  A    between atoms: C_24  and  C_25
REMARK    8  A    between atoms: C_24  and  C_26
REMARK    9  A    between atoms: C_27  and  O_28
REMARK                            x       y       z     vdW  Elec       q    Type
REMARK                         _______ _______ _______ _____ _____    ______ ____
ROOT
ATOM      1  C   UNL     1      21.664   4.915  50.356  0.00  0.00    +0.000 A 
ATOM      2  C   UNL     1      22.653   5.848  50.368  0.00  0.00    +0.000 A 
ATOM      3  C   UNL     1      23.660   5.962  51.422  0.00  0.00    +0.000 A 
ATOM      4  O   UNL     1      24.516   6.843  51.428  0.00  0.00    +0.000 OA
ATOM      5  O   UNL     1      23.608   4.986  52.371  0.00  0.00    +0.000 OA
ATOM      6  C   UNL     1      22.893   3.842  52.032  0.00  0.00    +0.000 A 
ATOM      7  C   UNL     1      23.569   2.661  52.163  0.00  0.00    +0.000 A 
ATOM      8  C   UNL     1      22.857   1.516  52.415  0.00  0.00    +0.000 A 
ATOM      9  C   UNL     1      21.474   1.561  52.237  0.00  0.00    +0.000 A 
ATOM     10  C   UNL     1      20.889   2.680  51.580  0.00  0.00    +0.000 A 
ATOM     11  C   UNL     1      21.677   3.841  51.388  0.00  0.00    +0.000 A 
ATOM     12  O   UNL     1      19.570   2.667  51.181  0.00  0.00    +0.000 OA
ATOM     13  C   UNL     1      18.810   1.427  51.313  0.00  0.00    +0.000 C 
ATOM     14  C   UNL     1      17.388   1.779  51.784  0.00  0.00    +0.000 C 
ATOM     15  C   UNL     1      18.728   0.776  49.927  0.00  0.00    +0.000 C 
ATOM     16  C   UNL     1      19.384   0.410  52.271  0.00  0.00    +0.000 C 
ATOM     17  C   UNL     1      20.648   0.451  52.681  0.00  0.00    +0.000 C 
ATOM     18  O   UNL     1      23.500   0.399  52.873  0.00  0.00    +0.000 OA
ATOM     19  C   UNL     1      24.956   0.357  52.805  0.00  0.00    +0.000 C 
ATOM     20  C   UNL     1      25.399  -0.546  53.953  0.00  0.00    +0.000 C 
ATOM     21  C   UNL     1      25.711   1.723  52.810  0.00  0.00    +0.000 C 
ATOM     22  C   UNL     1      25.706   2.433  54.183  0.00  0.00    +0.000 C 
ATOM     23  C   UNL     1      27.172   1.564  52.339  0.00  0.00    +0.000 C 
ATOM     24  C   UNL     1      25.012   2.627  51.820  0.00  0.00    +0.000 C 
ENDROOT
BRANCH  24  25
ATOM     25  O   UNL     1      25.124   2.132  50.479  0.00  0.00    +0.000 OA
ATOM     26  H   UNL     1      24.549   2.650  49.894  0.00  0.00    +0.000 HD
ENDBRANCH  24  25
BRANCH   1  27
ATOM     27  C   UNL     1      20.854   4.819  49.099  0.00  0.00    +0.000 C 
BRANCH  27  29
ATOM     28  C   UNL     1      22.065   2.930  47.976  0.00  0.00    +0.000 C 
ATOM     29  C   UNL     1      21.698   4.406  47.901  0.00  0.00    +0.000 C 
ENDBRANCH  27  29
ENDBRANCH   1  27
TORSDOF 3
ENDMDL
