MODEL 1
REMARK VINA RESULT:    -8.765      0.000      0.000
REMARK INTER + INTRA:         -14.130
REMARK INTER:                 -12.608
REMARK INTRA:                  -1.522
REMARK UNBOUND:                -1.522
REMARK  Name = 
REMARK  10 active torsions:
REMARK  status: ('A' for Active; 'I' for Inactive)
REMARK    1  A    between atoms: C_2  and  C_3
REMARK    2  A    between atoms: C_3  and  N_4
REMARK    3  A    between atoms: N_4  and  C_5
REMARK    4  A    between atoms: N_4  and  C_18
REMARK    5  A    between atoms: C_5  and  C_6
REMARK    6  A    between atoms: C_11  and  C_12
REMARK    7  A    between atoms: C_14  and  O_15
REMARK    8  A    between atoms: C_21  and  C_22
REMARK    9  A    between atoms: N_24  and  C_25
REMARK   10  A    between atoms: C_25  and  C_26
REMARK                            x       y       z     vdW  Elec       q    Type
REMARK                         _______ _______ _______ _____ _____    ______ ____
ROOT
ATOM      1  N   UNL     1      23.613   3.640  51.487  0.00  0.00    +0.000 N 
ENDROOT
BRANCH   1   2
ATOM      2  C   UNL     1      24.564   4.239  50.668  0.00  0.00    +0.000 A 
ATOM      3  C   UNL     1      25.476   3.496  49.899  0.00  0.00    +0.000 A 
ATOM      4  C   UNL     1      26.509   4.102  49.164  0.00  0.00    +0.000 A 
ATOM      5  C   UNL     1      26.646   5.491  49.131  0.00  0.00    +0.000 A 
ATOM      6  C   UNL     1      25.711   6.255  49.825  0.00  0.00    +0.000 A 
ATOM      7  C   UNL     1      24.715   5.633  50.597  0.00  0.00    +0.000 A 
BRANCH   5   8
ATOM      8  C   UNL     1      27.825   6.074  48.416  0.00  0.00    +0.000 C 
ATOM      9  O   UNL     1      27.652   6.920  47.543  0.00  0.00    +0.000 OA
ATOM     10  N   UNL     1      29.076   5.593  48.745  0.00  0.00    +0.000 N 
ATOM     11  H   UNL     1      29.164   4.973  49.505  0.00  0.00    +0.000 HD
BRANCH  10  12
ATOM     12  C   UNL     1      30.263   5.969  48.006  0.00  0.00    +0.000 C 
ATOM     13  C   UNL     1      31.105   4.768  47.620  0.00  0.00    +0.000 C 
ENDBRANCH  10  12
ENDBRANCH   5   8
ENDBRANCH   1   2
BRANCH   1  14
ATOM     14  C   UNL     1      22.202   3.569  51.108  0.00  0.00    +0.000 C 
BRANCH  14  16
ATOM     15  C   UNL     1      21.731   1.147  49.735  0.00  0.00    +0.000 C 
ATOM     16  C   UNL     1      21.948   2.265  50.369  0.00  0.00    +0.000 C 
ENDBRANCH  14  16
ENDBRANCH   1  14
BRANCH   1  17
ATOM     17  C   UNL     1      23.887   3.262  52.877  0.00  0.00    +0.000 C 
BRANCH  17  18
ATOM     18  C   UNL     1      24.842   2.090  52.996  0.00  0.00    +0.000 A 
ATOM     19  C   UNL     1      24.489   0.775  52.667  0.00  0.00    +0.000 A 
ATOM     20  C   UNL     1      25.444  -0.249  52.692  0.00  0.00    +0.000 A 
ATOM     21  C   UNL     1      26.753  -0.021  53.079  0.00  0.00    +0.000 A 
ATOM     22  N   UNL     1      27.628  -1.036  53.111  0.00  0.00    +0.000 NA
ATOM     23  C   UNL     1      28.878  -0.775  53.539  0.00  0.00    +0.000 A 
ATOM     24  C   UNL     1      29.817  -1.934  53.627  0.00  0.00    +0.000 C 
ATOM     25  N   UNL     1      29.326   0.433  53.923  0.00  0.00    +0.000 NA
ATOM     26  C   UNL     1      28.419   1.414  53.853  0.00  0.00    +0.000 A 
ATOM     27  C   UNL     1      27.105   1.279  53.443  0.00  0.00    +0.000 A 
ATOM     28  C   UNL     1      26.162   2.330  53.385  0.00  0.00    +0.000 A 
BRANCH  26  29
ATOM     29  O   UNL     1      28.905   2.618  54.268  0.00  0.00    +0.000 OA
ATOM     30  H   UNL     1      29.163   3.261  53.638  0.00  0.00    +0.000 HD
ENDBRANCH  26  29
ENDBRANCH  17  18
ENDBRANCH   1  17
TORSDOF 8
ENDMDL
MODEL 2
REMARK VINA RESULT:    -8.089      1.116      1.737
REMARK INTER + INTRA:         -13.158
REMARK INTER:                 -11.810
REMARK INTRA:                  -1.348
REMARK UNBOUND:                -1.522
REMARK  Name = 
REMARK  10 active torsions:
REMARK  status: ('A' for Active; 'I' for Inactive)
REMARK    1  A    between atoms: C_2  and  C_3
REMARK    2  A    between atoms: C_3  and  N_4
REMARK    3  A    between atoms: N_4  and  C_5
REMARK    4  A    between atoms: N_4  and  C_18
REMARK    5  A    between atoms: C_5  and  C_6
REMARK    6  A    between atoms: C_11  and  C_12
REMARK    7  A    between atoms: C_14  and  O_15
REMARK    8  A    between atoms: C_21  and  C_22
REMARK    9  A    between atoms: N_24  and  C_25
REMARK   10  A    between atoms: C_25  and  C_26
REMARK                            x       y       z     vdW  Elec       q    Type
REMARK                         _______ _______ _______ _____ _____    ______ ____
ROOT
ATOM      1  N   UNL     1      23.581   3.613  51.456  0.00  0.00    +0.000 N 
ENDROOT
BRANCH   1   2
ATOM      2  C   UNL     1      24.596   4.256  50.757  0.00  0.00    +0.000 A 
ATOM      3  C   UNL     1      24.679   5.655  50.658  0.00  0.00    +0.000 A 
ATOM      4  C   UNL     1      25.637   6.298  49.855  0.00  0.00    +0.000 A 
ATOM      5  C   UNL     1      26.589   5.562  49.147  0.00  0.00    +0.000 A 
ATOM      6  C   UNL     1      26.576   4.175  49.286  0.00  0.00    +0.000 A 
ATOM      7  C   UNL     1      25.581   3.545  50.051  0.00  0.00    +0.000 A 
BRANCH   5   8
ATOM      8  C   UNL     1      27.519   6.293  48.230  0.00  0.00    +0.000 C 
ATOM      9  O   UNL     1      28.638   5.840  48.007  0.00  0.00    +0.000 OA
ATOM     10  N   UNL     1      27.084   7.492  47.700  0.00  0.00    +0.000 N 
ATOM     11  H   UNL     1      26.150   7.768  47.849  0.00  0.00    +0.000 HD
BRANCH  10  12
ATOM     12  C   UNL     1      27.958   8.355  46.934  0.00  0.00    +0.000 C 
ATOM     13  C   UNL     1      27.607   9.822  47.102  0.00  0.00    +0.000 C 
ENDBRANCH  10  12
ENDBRANCH   5   8
ENDBRANCH   1   2
BRANCH   1  14
ATOM     14  C   UNL     1      22.204   3.582  50.965  0.00  0.00    +0.000 C 
BRANCH  14  16
ATOM     15  C   UNL     1      21.806   1.224  49.464  0.00  0.00    +0.000 C 
ATOM     16  C   UNL     1      21.990   2.313  50.157  0.00  0.00    +0.000 C 
ENDBRANCH  14  16
ENDBRANCH   1  14
BRANCH   1  17
ATOM     17  C   UNL     1      23.744   3.139  52.835  0.00  0.00    +0.000 C 
BRANCH  17  18
ATOM     18  C   UNL     1      24.746   2.007  52.958  0.00  0.00    +0.000 A 
ATOM     19  C   UNL     1      24.457   0.683  52.607  0.00  0.00    +0.000 A 
ATOM     20  C   UNL     1      25.454  -0.300  52.638  0.00  0.00    +0.000 A 
ATOM     21  C   UNL     1      26.744  -0.021  53.053  0.00  0.00    +0.000 A 
ATOM     22  N   UNL     1      27.662  -0.998  53.091  0.00  0.00    +0.000 NA
ATOM     23  C   UNL     1      28.891  -0.689  53.546  0.00  0.00    +0.000 A 
ATOM     24  C   UNL     1      29.878  -1.808  53.638  0.00  0.00    +0.000 C 
ATOM     25  N   UNL     1      29.279   0.533  53.953  0.00  0.00    +0.000 NA
ATOM     26  C   UNL     1      28.333   1.474  53.877  0.00  0.00    +0.000 A 
ATOM     27  C   UNL     1      27.033   1.288  53.440  0.00  0.00    +0.000 A 
ATOM     28  C   UNL     1      26.047   2.299  53.376  0.00  0.00    +0.000 A 
BRANCH  26  29
ATOM     29  O   UNL     1      28.758   2.693  54.315  0.00  0.00    +0.000 OA
ATOM     30  H   UNL     1      28.219   3.196  54.892  0.00  0.00    +0.000 HD
ENDBRANCH  26  29
ENDBRANCH  17  18
ENDBRANCH   1  17
TORSDOF 8
ENDMDL
MODEL 3
REMARK VINA RESULT:    -7.841      3.443      6.804
REMARK INTER + INTRA:         -12.801
REMARK INTER:                 -12.102
REMARK INTRA:                  -0.699
REMARK UNBOUND:                -1.522
REMARK  Name = 
REMARK  10 active torsions:
REMARK  status: ('A' for Active; 'I' for Inactive)
REMARK    1  A    between atoms: C_2  and  C_3
REMARK    2  A    between atoms: C_3  and  N_4
REMARK    3  A    between atoms: N_4  and  C_5
REMARK    4  A    between atoms: N_4  and  C_18
REMARK    5  A    between atoms: C_5  and  C_6
REMARK    6  A    between atoms: C_11  and  C_12
REMARK    7  A    between atoms: C_14  and  O_15
REMARK    8  A    between atoms: C_21  and  C_22
REMARK    9  A    between atoms: N_24  and  C_25
REMARK   10  A    between atoms: C_25  and  C_26
REMARK                            x       y       z     vdW  Elec       q    Type
REMARK                         _______ _______ _______ _____ _____    ______ ____
ROOT
ATOM      1  N   UNL     1      23.317   3.168  51.611  0.00  0.00    +0.000 N 
ENDROOT
BRANCH   1   2
ATOM      2  C   UNL     1      22.284   2.245  51.728  0.00  0.00    +0.000 A 
ATOM      3  C   UNL     1      21.865   1.437  50.657  0.00  0.00    +0.000 A 
ATOM      4  C   UNL     1      20.747   0.591  50.745  0.00  0.00    +0.000 A 
ATOM      5  C   UNL     1      20.022   0.482  51.934  0.00  0.00    +0.000 A 
ATOM      6  C   UNL     1      20.461   1.216  53.034  0.00  0.00    +0.000 A 
ATOM      7  C   UNL     1      21.548   2.096  52.915  0.00  0.00    +0.000 A 
BRANCH   5   8
ATOM      8  C   UNL     1      18.782  -0.357  51.939  0.00  0.00    +0.000 C 
ATOM      9  O   UNL     1      18.047  -0.366  50.956  0.00  0.00    +0.000 OA
ATOM     10  N   UNL     1      18.491  -1.062  53.090  0.00  0.00    +0.000 N 
ATOM     11  H   UNL     1      19.154  -1.081  53.819  0.00  0.00    +0.000 HD
BRANCH  10  12
ATOM     12  C   UNL     1      17.241  -1.773  53.261  0.00  0.00    +0.000 C 
ATOM     13  C   UNL     1      17.455  -3.242  53.575  0.00  0.00    +0.000 C 
ENDBRANCH  10  12
ENDBRANCH   5   8
ENDBRANCH   1   2
BRANCH   1  14
ATOM     14  C   UNL     1      23.629   3.822  50.340  0.00  0.00    +0.000 C 
BRANCH  14  16
ATOM     15  C   UNL     1      26.276   3.187  49.593  0.00  0.00    +0.000 C 
ATOM     16  C   UNL     1      25.053   3.481  49.938  0.00  0.00    +0.000 C 
ENDBRANCH  14  16
ENDBRANCH   1  14
BRANCH   1  17
ATOM     17  C   UNL     1      24.320   3.374  52.662  0.00  0.00    +0.000 C 
BRANCH  17  18
ATOM     18  C   UNL     1      25.251   2.190  52.834  0.00  0.00    +0.000 A 
ATOM     19  C   UNL     1      24.901   0.879  52.486  0.00  0.00    +0.000 A 
ATOM     20  C   UNL     1      25.839  -0.158  52.565  0.00  0.00    +0.000 A 
ATOM     21  C   UNL     1      27.127   0.054  53.025  0.00  0.00    +0.000 A 
ATOM     22  N   UNL     1      27.986  -0.972  53.107  0.00  0.00    +0.000 NA
ATOM     23  C   UNL     1      29.213  -0.726  53.604  0.00  0.00    +0.000 A 
ATOM     24  C   UNL     1      30.131  -1.898  53.744  0.00  0.00    +0.000 C 
ATOM     25  N   UNL     1      29.654   0.476  54.011  0.00  0.00    +0.000 NA
ATOM     26  C   UNL     1      28.766   1.469  53.890  0.00  0.00    +0.000 A 
ATOM     27  C   UNL     1      27.475   1.350  53.407  0.00  0.00    +0.000 A 
ATOM     28  C   UNL     1      26.550   2.414  53.296  0.00  0.00    +0.000 A 
BRANCH  26  29
ATOM     29  O   UNL     1      29.243   2.667  54.331  0.00  0.00    +0.000 OA
ATOM     30  H   UNL     1      30.108   2.940  54.099  0.00  0.00    +0.000 HD
ENDBRANCH  26  29
ENDBRANCH  17  18
ENDBRANCH   1  17
TORSDOF 8
ENDMDL
MODEL 4
REMARK VINA RESULT:    -7.818      4.243      7.881
REMARK INTER + INTRA:         -12.768
REMARK INTER:                 -11.801
REMARK INTRA:                  -0.968
REMARK UNBOUND:                -1.522
REMARK  Name = 
REMARK  10 active torsions:
REMARK  status: ('A' for Active; 'I' for Inactive)
REMARK    1  A    between atoms: C_2  and  C_3
REMARK    2  A    between atoms: C_3  and  N_4
REMARK    3  A    between atoms: N_4  and  C_5
REMARK    4  A    between atoms: N_4  and  C_18
REMARK    5  A    between atoms: C_5  and  C_6
REMARK    6  A    between atoms: C_11  and  C_12
REMARK    7  A    between atoms: C_14  and  O_15
REMARK    8  A    between atoms: C_21  and  C_22
REMARK    9  A    between atoms: N_24  and  C_25
REMARK   10  A    between atoms: C_25  and  C_26
REMARK                            x       y       z     vdW  Elec       q    Type
REMARK                         _______ _______ _______ _____ _____    ______ ____
ROOT
ATOM      1  N   UNL     1      22.131   1.538  51.850  0.00  0.00    +0.000 N 
ENDROOT
BRANCH   1   2
ATOM      2  C   UNL     1      20.935   0.886  52.125  0.00  0.00    +0.000 A 
ATOM      3  C   UNL     1      20.702   0.209  53.334  0.00  0.00    +0.000 A 
ATOM      4  C   UNL     1      19.539  -0.546  53.562  0.00  0.00    +0.000 A 
ATOM      5  C   UNL     1      18.530  -0.617  52.599  0.00  0.00    +0.000 A 
ATOM      6  C   UNL     1      18.702   0.106  51.421  0.00  0.00    +0.000 A 
ATOM      7  C   UNL     1      19.892   0.813  51.186  0.00  0.00    +0.000 A 
BRANCH   5   8
ATOM      8  C   UNL     1      17.362  -1.517  52.855  0.00  0.00    +0.000 C 
ATOM      9  O   UNL     1      17.529  -2.585  53.437  0.00  0.00    +0.000 OA
ATOM     10  N   UNL     1      16.130  -1.118  52.376  0.00  0.00    +0.000 N 
ATOM     11  H   UNL     1      16.038  -0.217  51.987  0.00  0.00    +0.000 HD
BRANCH  10  12
ATOM     12  C   UNL     1      14.969  -1.982  52.427  0.00  0.00    +0.000 C 
ATOM     13  C   UNL     1      14.801  -2.793  51.155  0.00  0.00    +0.000 C 
ENDBRANCH  10  12
ENDBRANCH   5   8
ENDBRANCH   1   2
BRANCH   1  14
ATOM     14  C   UNL     1      22.721   1.538  50.511  0.00  0.00    +0.000 C 
BRANCH  14  16
ATOM     15  C   UNL     1      23.322   4.192  49.758  0.00  0.00    +0.000 C 
ATOM     16  C   UNL     1      23.044   2.966  50.106  0.00  0.00    +0.000 C 
ENDBRANCH  14  16
ENDBRANCH   1  14
BRANCH   1  17
ATOM     17  C   UNL     1      23.013   2.057  52.901  0.00  0.00    +0.000 C 
BRANCH  17  18
ATOM     18  C   UNL     1      24.269   1.228  53.085  0.00  0.00    +0.000 A 
ATOM     19  C   UNL     1      24.305  -0.162  52.918  0.00  0.00    +0.000 A 
ATOM     20  C   UNL     1      25.516  -0.861  52.993  0.00  0.00    +0.000 A 
ATOM     21  C   UNL     1      26.712  -0.225  53.274  0.00  0.00    +0.000 A 
ATOM     22  N   UNL     1      27.845  -0.937  53.360  0.00  0.00    +0.000 NA
ATOM     23  C   UNL     1      28.976  -0.281  53.682  0.00  0.00    +0.000 A 
ATOM     24  C   UNL     1      30.214  -1.106  53.834  0.00  0.00    +0.000 C 
ATOM     25  N   UNL     1      29.064   1.041  53.909  0.00  0.00    +0.000 NA
ATOM     26  C   UNL     1      27.911   1.707  53.791  0.00  0.00    +0.000 A 
ATOM     27  C   UNL     1      26.682   1.155  53.477  0.00  0.00    +0.000 A 
ATOM     28  C   UNL     1      25.473   1.879  53.366  0.00  0.00    +0.000 A 
BRANCH  26  29
ATOM     29  O   UNL     1      28.037   3.040  54.047  0.00  0.00    +0.000 OA
ATOM     30  H   UNL     1      28.886   3.434  54.067  0.00  0.00    +0.000 HD
ENDBRANCH  26  29
ENDBRANCH  17  18
ENDBRANCH   1  17
TORSDOF 8
ENDMDL
MODEL 5
REMARK VINA RESULT:    -7.760      1.770      6.928
REMARK INTER + INTRA:         -12.684
REMARK INTER:                 -11.436
REMARK INTRA:                  -1.248
REMARK UNBOUND:                -1.522
REMARK  Name = 
REMARK  10 active torsions:
REMARK  status: ('A' for Active; 'I' for Inactive)
REMARK    1  A    between atoms: C_2  and  C_3
REMARK    2  A    between atoms: C_3  and  N_4
REMARK    3  A    between atoms: N_4  and  C_5
REMARK    4  A    between atoms: N_4  and  C_18
REMARK    5  A    between atoms: C_5  and  C_6
REMARK    6  A    between atoms: C_11  and  C_12
REMARK    7  A    between atoms: C_14  and  O_15
REMARK    8  A    between atoms: C_21  and  C_22
REMARK    9  A    between atoms: N_24  and  C_25
REMARK   10  A    between atoms: C_25  and  C_26
REMARK                            x       y       z     vdW  Elec       q    Type
REMARK                         _______ _______ _______ _____ _____    ______ ____
ROOT
ATOM      1  N   UNL     1      22.864   3.839  51.005  0.00  0.00    +0.000 N 
ENDROOT
BRANCH   1   2
ATOM      2  C   UNL     1      23.592   2.991  51.831  0.00  0.00    +0.000 A 
ATOM      3  C   UNL     1      24.345   3.459  52.922  0.00  0.00    +0.000 A 
ATOM      4  C   UNL     1      25.172   2.615  53.683  0.00  0.00    +0.000 A 
ATOM      5  C   UNL     1      25.246   1.248  53.410  0.00  0.00    +0.000 A 
ATOM      6  C   UNL     1      24.454   0.745  52.381  0.00  0.00    +0.000 A 
ATOM      7  C   UNL     1      23.672   1.608  51.597  0.00  0.00    +0.000 A 
BRANCH   5   8
ATOM      8  C   UNL     1      26.220   0.417  54.187  0.00  0.00    +0.000 C 
ATOM      9  O   UNL     1      25.810  -0.380  55.025  0.00  0.00    +0.000 OA
ATOM     10  N   UNL     1      27.565   0.622  53.953  0.00  0.00    +0.000 N 
ATOM     11  H   UNL     1      27.836   1.216  53.215  0.00  0.00    +0.000 HD
BRANCH  10  12
ATOM     12  C   UNL     1      28.590  -0.008  54.759  0.00  0.00    +0.000 C 
ATOM     13  C   UNL     1      29.565  -0.814  53.921  0.00  0.00    +0.000 C 
ENDBRANCH  10  12
ENDBRANCH   5   8
ENDBRANCH   1   2
BRANCH   1  14
ATOM     14  C   UNL     1      21.595   4.429  51.430  0.00  0.00    +0.000 C 
BRANCH  14  16
ATOM     15  C   UNL     1      21.599   7.185  50.818  0.00  0.00    +0.000 C 
ATOM     16  C   UNL     1      21.596   5.912  51.100  0.00  0.00    +0.000 C 
ENDBRANCH  14  16
ENDBRANCH   1  14
BRANCH   1  17
ATOM     17  C   UNL     1      23.166   4.013  49.580  0.00  0.00    +0.000 C 
BRANCH  17  18
ATOM     18  C   UNL     1      24.585   4.486  49.329  0.00  0.00    +0.000 A 
ATOM     19  C   UNL     1      25.708   3.663  49.477  0.00  0.00    +0.000 A 
ATOM     20  C   UNL     1      26.983   4.122  49.124  0.00  0.00    +0.000 A 
ATOM     21  C   UNL     1      27.196   5.408  48.661  0.00  0.00    +0.000 A 
ATOM     22  N   UNL     1      28.438   5.814  48.358  0.00  0.00    +0.000 NA
ATOM     23  C   UNL     1      28.602   7.088  47.955  0.00  0.00    +0.000 A 
ATOM     24  C   UNL     1      30.002   7.535  47.684  0.00  0.00    +0.000 C 
ATOM     25  N   UNL     1      27.612   7.987  47.814  0.00  0.00    +0.000 NA
ATOM     26  C   UNL     1      26.392   7.526  48.110  0.00  0.00    +0.000 A 
ATOM     27  C   UNL     1      26.089   6.247  48.543  0.00  0.00    +0.000 A 
ATOM     28  C   UNL     1      24.790   5.786  48.858  0.00  0.00    +0.000 A 
BRANCH  26  29
ATOM     29  O   UNL     1      25.419   8.470  47.974  0.00  0.00    +0.000 OA
ATOM     30  H   UNL     1      24.518   8.227  48.042  0.00  0.00    +0.000 HD
ENDBRANCH  26  29
ENDBRANCH  17  18
ENDBRANCH   1  17
TORSDOF 8
ENDMDL
MODEL 6
REMARK VINA RESULT:    -7.749      3.215      6.071
REMARK INTER + INTRA:         -12.668
REMARK INTER:                 -11.771
REMARK INTRA:                  -0.897
REMARK UNBOUND:                -1.522
REMARK  Name = 
REMARK  10 active torsions:
REMARK  status: ('A' for Active; 'I' for Inactive)
REMARK    1  A    between atoms: C_2  and  C_3
REMARK    2  A    between atoms: C_3  and  N_4
REMARK    3  A    between atoms: N_4  and  C_5
REMARK    4  A    between atoms: N_4  and  C_18
REMARK    5  A    between atoms: C_5  and  C_6
REMARK    6  A    between atoms: C_11  and  C_12
REMARK    7  A    between atoms: C_14  and  O_15
REMARK    8  A    between atoms: C_21  and  C_22
REMARK    9  A    between atoms: N_24  and  C_25
REMARK   10  A    between atoms: C_25  and  C_26
REMARK                            x       y       z     vdW  Elec       q    Type
REMARK                         _______ _______ _______ _____ _____    ______ ____
ROOT
ATOM      1  N   UNL     1      25.592   0.487  53.854  0.00  0.00    +0.000 N 
ENDROOT
BRANCH   1   2
ATOM      2  C   UNL     1      25.610   1.402  52.808  0.00  0.00    +0.000 A 
ATOM      3  C   UNL     1      26.439   1.250  51.683  0.00  0.00    +0.000 A 
ATOM      4  C   UNL     1      26.540   2.233  50.684  0.00  0.00    +0.000 A 
ATOM      5  C   UNL     1      25.775   3.399  50.746  0.00  0.00    +0.000 A 
ATOM      6  C   UNL     1      24.890   3.542  51.813  0.00  0.00    +0.000 A 
ATOM      7  C   UNL     1      24.838   2.575  52.829  0.00  0.00    +0.000 A 
BRANCH   5   8
ATOM      8  C   UNL     1      25.999   4.456  49.709  0.00  0.00    +0.000 C 
ATOM      9  O   UNL     1      25.052   4.874  49.050  0.00  0.00    +0.000 OA
ATOM     10  N   UNL     1      27.294   4.888  49.506  0.00  0.00    +0.000 N 
ATOM     11  H   UNL     1      28.003   4.577  50.115  0.00  0.00    +0.000 HD
BRANCH  10  12
ATOM     12  C   UNL     1      27.644   5.784  48.423  0.00  0.00    +0.000 C 
ATOM     13  C   UNL     1      29.119   5.716  48.075  0.00  0.00    +0.000 C 
ENDBRANCH  10  12
ENDBRANCH   5   8
ENDBRANCH   1   2
BRANCH   1  14
ATOM     14  C   UNL     1      26.407   0.671  55.055  0.00  0.00    +0.000 C 
BRANCH  14  16
ATOM     15  C   UNL     1      29.075  -0.058  54.488  0.00  0.00    +0.000 C 
ATOM     16  C   UNL     1      27.843   0.279  54.750  0.00  0.00    +0.000 C 
ENDBRANCH  14  16
ENDBRANCH   1  14
BRANCH   1  17
ATOM     17  C   UNL     1      24.965  -0.835  53.743  0.00  0.00    +0.000 C 
BRANCH  17  18
ATOM     18  C   UNL     1      23.457  -0.766  53.603  0.00  0.00    +0.000 A 
ATOM     19  C   UNL     1      22.573  -1.116  54.632  0.00  0.00    +0.000 A 
ATOM     20  C   UNL     1      21.193  -0.927  54.484  0.00  0.00    +0.000 A 
ATOM     21  C   UNL     1      20.643  -0.434  53.314  0.00  0.00    +0.000 A 
ATOM     22  N   UNL     1      19.313  -0.293  53.207  0.00  0.00    +0.000 NA
ATOM     23  C   UNL     1      18.821   0.147  52.034  0.00  0.00    +0.000 A 
ATOM     24  C   UNL     1      17.333   0.236  51.918  0.00  0.00    +0.000 C 
ATOM     25  N   UNL     1      19.560   0.474  50.960  0.00  0.00    +0.000 NA
ATOM     26  C   UNL     1      20.879   0.334  51.126  0.00  0.00    +0.000 A 
ATOM     27  C   UNL     1      21.512  -0.116  52.271  0.00  0.00    +0.000 A 
ATOM     28  C   UNL     1      22.910  -0.264  52.420  0.00  0.00    +0.000 A 
BRANCH  26  29
ATOM     29  O   UNL     1      21.594   0.656  50.010  0.00  0.00    +0.000 OA
ATOM     30  H   UNL     1      22.145   1.412  50.010  0.00  0.00    +0.000 HD
ENDBRANCH  26  29
ENDBRANCH  17  18
ENDBRANCH   1  17
TORSDOF 8
ENDMDL
MODEL 7
REMARK VINA RESULT:    -7.555      2.567      3.712
REMARK INTER + INTRA:         -12.390
REMARK INTER:                 -11.243
REMARK INTRA:                  -1.147
REMARK UNBOUND:                -1.522
REMARK  Name = 
REMARK  10 active torsions:
REMARK  status: ('A' for Active; 'I' for Inactive)
REMARK    1  A    between atoms: C_2  and  C_3
REMARK    2  A    between atoms: C_3  and  N_4
REMARK    3  A    between atoms: N_4  and  C_5
REMARK    4  A    between atoms: N_4  and  C_18
REMARK    5  A    between atoms: C_5  and  C_6
REMARK    6  A    between atoms: C_11  and  C_12
REMARK    7  A    between atoms: C_14  and  O_15
REMARK    8  A    between atoms: C_21  and  C_22
REMARK    9  A    between atoms: N_24  and  C_25
REMARK   10  A    between atoms: C_25  and  C_26
REMARK                            x       y       z     vdW  Elec       q    Type
REMARK                         _______ _______ _______ _____ _____    ______ ____
ROOT
ATOM      1  N   UNL     1      24.077   5.122  49.990  0.00  0.00    +0.000 N 
ENDROOT
BRANCH   1   2
ATOM      2  C   UNL     1      25.324   5.325  49.410  0.00  0.00    +0.000 A 
ATOM      3  C   UNL     1      26.289   4.307  49.316  0.00  0.00    +0.000 A 
ATOM      4  C   UNL     1      27.589   4.545  48.836  0.00  0.00    +0.000 A 
ATOM      5  C   UNL     1      27.965   5.811  48.384  0.00  0.00    +0.000 A 
ATOM      6  C   UNL     1      27.005   6.821  48.398  0.00  0.00    +0.000 A 
ATOM      7  C   UNL     1      25.727   6.581  48.928  0.00  0.00    +0.000 A 
BRANCH   5   8
ATOM      8  C   UNL     1      29.390   6.029  47.980  0.00  0.00    +0.000 C 
ATOM      9  O   UNL     1      29.655   6.820  47.079  0.00  0.00    +0.000 OA
ATOM     10  N   UNL     1      30.359   5.282  48.620  0.00  0.00    +0.000 N 
ATOM     11  H   UNL     1      30.099   4.721  49.387  0.00  0.00    +0.000 HD
BRANCH  10  12
ATOM     12  C   UNL     1      31.744   5.296  48.198  0.00  0.00    +0.000 C 
ATOM     13  C   UNL     1      32.038   4.232  47.157  0.00  0.00    +0.000 C 
ENDBRANCH  10  12
ENDBRANCH   5   8
ENDBRANCH   1   2
BRANCH   1  14
ATOM     14  C   UNL     1      23.659   5.838  51.195  0.00  0.00    +0.000 C 
BRANCH  14  16
ATOM     15  C   UNL     1      21.421   7.450  50.592  0.00  0.00    +0.000 C 
ATOM     16  C   UNL     1      22.455   6.705  50.870  0.00  0.00    +0.000 C 
ENDBRANCH  14  16
ENDBRANCH   1  14
BRANCH   1  17
ATOM     17  C   UNL     1      23.190   4.020  49.602  0.00  0.00    +0.000 C 
BRANCH  17  18
ATOM     18  C   UNL     1      22.889   3.070  50.745  0.00  0.00    +0.000 A 
ATOM     19  C   UNL     1      21.632   2.974  51.355  0.00  0.00    +0.000 A 
ATOM     20  C   UNL     1      21.382   2.002  52.332  0.00  0.00    +0.000 A 
ATOM     21  C   UNL     1      22.366   1.132  52.766  0.00  0.00    +0.000 A 
ATOM     22  N   UNL     1      22.090   0.232  53.722  0.00  0.00    +0.000 NA
ATOM     23  C   UNL     1      23.091  -0.562  54.145  0.00  0.00    +0.000 A 
ATOM     24  C   UNL     1      22.775  -1.513  55.255  0.00  0.00    +0.000 C 
ATOM     25  N   UNL     1      24.349  -0.538  53.672  0.00  0.00    +0.000 NA
ATOM     26  C   UNL     1      24.566   0.363  52.707  0.00  0.00    +0.000 A 
ATOM     27  C   UNL     1      23.632   1.243  52.191  0.00  0.00    +0.000 A 
ATOM     28  C   UNL     1      23.888   2.193  51.176  0.00  0.00    +0.000 A 
BRANCH  26  29
ATOM     29  O   UNL     1      25.856   0.371  52.267  0.00  0.00    +0.000 OA
ATOM     30  H   UNL     1      26.475   0.965  52.642  0.00  0.00    +0.000 HD
ENDBRANCH  26  29
ENDBRANCH  17  18
ENDBRANCH   1  17
TORSDOF 8
ENDMDL
MODEL 8
REMARK VINA RESULT:    -7.397      1.916      6.590
REMARK INTER + INTRA:         -12.163
REMARK INTER:                 -10.981
REMARK INTRA:                  -1.182
REMARK UNBOUND:                -1.522
REMARK  Name = 
REMARK  10 active torsions:
REMARK  status: ('A' for Active; 'I' for Inactive)
REMARK    1  A    between atoms: C_2  and  C_3
REMARK    2  A    between atoms: C_3  and  N_4
REMARK    3  A    between atoms: N_4  and  C_5
REMARK    4  A    between atoms: N_4  and  C_18
REMARK    5  A    between atoms: C_5  and  C_6
REMARK    6  A    between atoms: C_11  and  C_12
REMARK    7  A    between atoms: C_14  and  O_15
REMARK    8  A    between atoms: C_21  and  C_22
REMARK    9  A    between atoms: N_24  and  C_25
REMARK   10  A    between atoms: C_25  and  C_26
REMARK                            x       y       z     vdW  Elec       q    Type
REMARK                         _______ _______ _______ _____ _____    ______ ____
ROOT
ATOM      1  N   UNL     1      22.278   2.700  51.558  0.00  0.00    +0.000 N 
ENDROOT
BRANCH   1   2
ATOM      2  C   UNL     1      23.352   2.172  52.267  0.00  0.00    +0.000 A 
ATOM      3  C   UNL     1      24.243   2.974  53.000  0.00  0.00    +0.000 A 
ATOM      4  C   UNL     1      25.392   2.452  53.619  0.00  0.00    +0.000 A 
ATOM      5  C   UNL     1      25.675   1.086  53.567  0.00  0.00    +0.000 A 
ATOM      6  C   UNL     1      24.768   0.256  52.909  0.00  0.00    +0.000 A 
ATOM      7  C   UNL     1      23.653   0.800  52.253  0.00  0.00    +0.000 A 
BRANCH   5   8
ATOM      8  C   UNL     1      26.963   0.601  54.156  0.00  0.00    +0.000 C 
ATOM      9  O   UNL     1      26.976   0.121  55.286  0.00  0.00    +0.000 OA
ATOM     10  N   UNL     1      28.110   0.761  53.404  0.00  0.00    +0.000 N 
ATOM     11  H   UNL     1      28.032   1.079  52.475  0.00  0.00    +0.000 HD
BRANCH  10  12
ATOM     12  C   UNL     1      29.425   0.476  53.939  0.00  0.00    +0.000 C 
ATOM     13  C   UNL     1      29.900  -0.919  53.582  0.00  0.00    +0.000 C 
ENDBRANCH  10  12
ENDBRANCH   5   8
ENDBRANCH   1   2
BRANCH   1  14
ATOM     14  C   UNL     1      20.990   2.971  52.196  0.00  0.00    +0.000 C 
BRANCH  14  16
ATOM     15  C   UNL     1      19.287   0.750  51.829  0.00  0.00    +0.000 C 
ATOM     16  C   UNL     1      20.073   1.776  51.998  0.00  0.00    +0.000 C 
ENDBRANCH  14  16
ENDBRANCH   1  14
BRANCH   1  17
ATOM     17  C   UNL     1      22.263   2.794  50.095  0.00  0.00    +0.000 C 
BRANCH  17  18
ATOM     18  C   UNL     1      23.118   3.929  49.564  0.00  0.00    +0.000 A 
ATOM     19  C   UNL     1      22.596   5.171  49.183  0.00  0.00    +0.000 A 
ATOM     20  C   UNL     1      23.446   6.219  48.804  0.00  0.00    +0.000 A 
ATOM     21  C   UNL     1      24.819   6.063  48.749  0.00  0.00    +0.000 A 
ATOM     22  N   UNL     1      25.594   7.085  48.358  0.00  0.00    +0.000 NA
ATOM     23  C   UNL     1      26.921   6.873  48.274  0.00  0.00    +0.000 A 
ATOM     24  C   UNL     1      27.756   8.008  47.775  0.00  0.00    +0.000 C 
ATOM     25  N   UNL     1      27.537   5.715  48.571  0.00  0.00    +0.000 NA
ATOM     26  C   UNL     1      26.722   4.735  48.974  0.00  0.00    +0.000 A 
ATOM     27  C   UNL     1      25.346   4.818  49.093  0.00  0.00    +0.000 A 
ATOM     28  C   UNL     1      24.504   3.764  49.514  0.00  0.00    +0.000 A 
BRANCH  26  29
ATOM     29  O   UNL     1      27.381   3.573  49.246  0.00  0.00    +0.000 OA
ATOM     30  H   UNL     1      27.297   2.841  48.669  0.00  0.00    +0.000 HD
ENDBRANCH  26  29
ENDBRANCH  17  18
ENDBRANCH   1  17
TORSDOF 8
ENDMDL
MODEL 9
REMARK VINA RESULT:    -7.348      2.121      2.576
REMARK INTER + INTRA:         -12.091
REMARK INTER:                 -10.990
REMARK INTRA:                  -1.102
REMARK UNBOUND:                -1.522
REMARK  Name = 
REMARK  10 active torsions:
REMARK  status: ('A' for Active; 'I' for Inactive)
REMARK    1  A    between atoms: C_2  and  C_3
REMARK    2  A    between atoms: C_3  and  N_4
REMARK    3  A    between atoms: N_4  and  C_5
REMARK    4  A    between atoms: N_4  and  C_18
REMARK    5  A    between atoms: C_5  and  C_6
REMARK    6  A    between atoms: C_11  and  C_12
REMARK    7  A    between atoms: C_14  and  O_15
REMARK    8  A    between atoms: C_21  and  C_22
REMARK    9  A    between atoms: N_24  and  C_25
REMARK   10  A    between atoms: C_25  and  C_26
REMARK                            x       y       z     vdW  Elec       q    Type
REMARK                         _______ _______ _______ _____ _____    ______ ____
ROOT
ATOM      1  N   UNL     1      21.902   3.404  50.961  0.00  0.00    +0.000 N 
ENDROOT
BRANCH   1   2
ATOM      2  C   UNL     1      22.710   4.425  50.472  0.00  0.00    +0.000 A 
ATOM      3  C   UNL     1      23.138   4.477  49.134  0.00  0.00    +0.000 A 
ATOM      4  C   UNL     1      24.047   5.444  48.672  0.00  0.00    +0.000 A 
ATOM      5  C   UNL     1      24.534   6.436  49.525  0.00  0.00    +0.000 A 
ATOM      6  C   UNL     1      24.069   6.452  50.839  0.00  0.00    +0.000 A 
ATOM      7  C   UNL     1      23.201   5.448  51.299  0.00  0.00    +0.000 A 
BRANCH   5   8
ATOM      8  C   UNL     1      25.577   7.376  49.005  0.00  0.00    +0.000 C 
ATOM      9  O   UNL     1      25.324   8.096  48.044  0.00  0.00    +0.000 OA
ATOM     10  N   UNL     1      26.816   7.358  49.614  0.00  0.00    +0.000 N 
ATOM     11  H   UNL     1      26.939   6.818  50.429  0.00  0.00    +0.000 HD
BRANCH  10  12
ATOM     12  C   UNL     1      27.940   8.106  49.091  0.00  0.00    +0.000 C 
ATOM     13  C   UNL     1      28.128   9.432  49.803  0.00  0.00    +0.000 C 
ENDBRANCH  10  12
ENDBRANCH   5   8
ENDBRANCH   1   2
BRANCH   1  14
ATOM     14  C   UNL     1      20.828   3.661  51.920  0.00  0.00    +0.000 C 
BRANCH  14  16
ATOM     15  C   UNL     1      18.961   1.547  51.813  0.00  0.00    +0.000 C 
ATOM     16  C   UNL     1      19.823   2.523  51.863  0.00  0.00    +0.000 C 
ENDBRANCH  14  16
ENDBRANCH   1  14
BRANCH   1  17
ATOM     17  C   UNL     1      22.208   1.984  50.758  0.00  0.00    +0.000 C 
BRANCH  17  18
ATOM     18  C   UNL     1      23.305   1.477  51.673  0.00  0.00    +0.000 A 
ATOM     19  C   UNL     1      23.110   0.462  52.619  0.00  0.00    +0.000 A 
ATOM     20  C   UNL     1      24.185  -0.042  53.360  0.00  0.00    +0.000 A 
ATOM     21  C   UNL     1      25.467   0.462  53.226  0.00  0.00    +0.000 A 
ATOM     22  N   UNL     1      26.463  -0.034  53.974  0.00  0.00    +0.000 NA
ATOM     23  C   UNL     1      27.683   0.520  53.842  0.00  0.00    +0.000 A 
ATOM     24  C   UNL     1      28.763  -0.007  54.731  0.00  0.00    +0.000 C 
ATOM     25  N   UNL     1      27.989   1.525  53.003  0.00  0.00    +0.000 NA
ATOM     26  C   UNL     1      26.965   1.970  52.267  0.00  0.00    +0.000 A 
ATOM     27  C   UNL     1      25.665   1.497  52.312  0.00  0.00    +0.000 A 
ATOM     28  C   UNL     1      24.596   1.990  51.529  0.00  0.00    +0.000 A 
BRANCH  26  29
ATOM     29  O   UNL     1      27.308   3.000  51.444  0.00  0.00    +0.000 OA
ATOM     30  H   UNL     1      26.979   3.861  51.609  0.00  0.00    +0.000 HD
ENDBRANCH  26  29
ENDBRANCH  17  18
ENDBRANCH   1  17
TORSDOF 8
ENDMDL
