MODEL 1
REMARK VINA RESULT:    -9.463      0.000      0.000
REMARK INTER + INTRA:         -15.706
REMARK INTER:                 -14.442
REMARK INTRA:                  -1.264
REMARK UNBOUND:                -1.264
REMARK  Name = 
REMARK  11 active torsions:
REMARK  status: ('A' for Active; 'I' for Inactive)
REMARK    1  A    between atoms: C_1  and  C_2
REMARK    2  A    between atoms: C_2  and  C_3
REMARK    3  A    between atoms: C_3  and  C_4
REMARK    4  A    between atoms: C_4  and  C_5
REMARK    5  A    between atoms: C_13  and  C_14
REMARK    6  A    between atoms: C_14  and  O_15
REMARK    7  A    between atoms: O_15  and  C_16
REMARK    8  A    between atoms: C_20  and  C_21
REMARK    9  A    between atoms: C_21  and  C_22
REMARK   10  A    between atoms: C_23  and  C_24
REMARK   11  A    between atoms: C_24  and  N_25
REMARK                            x       y       z     vdW  Elec       q    Type
REMARK                         _______ _______ _______ _____ _____    ______ ____
ROOT
ATOM      1  C   UNL     1      26.358   3.593  49.891  0.00  0.00    +0.000 A 
ATOM      2  C   UNL     1      25.261   4.319  50.348  0.00  0.00    +0.000 A 
ATOM      3  C   UNL     1      25.103   5.654  49.975  0.00  0.00    +0.000 A 
ATOM      4  C   UNL     1      26.068   6.282  49.180  0.00  0.00    +0.000 A 
ATOM      5  C   UNL     1      27.211   5.589  48.757  0.00  0.00    +0.000 A 
ATOM      6  C   UNL     1      27.322   4.228  49.108  0.00  0.00    +0.000 A 
ENDROOT
BRANCH   5   7
ATOM      7  C   UNL     1      28.290   6.246  47.968  0.00  0.00    +0.000 C 
ATOM      8  C   UNL     1      27.971   7.477  47.160  0.00  0.00    +0.000 C 
ATOM      9  C   UNL     1      29.542   5.738  48.017  0.00  0.00    +0.000 C 
BRANCH   9  10
ATOM     10  C   UNL     1      30.750   6.208  47.268  0.00  0.00    +0.000 C 
BRANCH  10  11
ATOM     11  N   UNL     1      31.462   7.156  48.107  0.00  0.00    +0.000 N 
ATOM     12  O   UNL     1      30.892   8.474  48.101  0.00  0.00    +0.000 OA
ATOM     13  C   UNL     1      31.000   8.966  49.375  0.00  0.00    +0.000 A 
ATOM     14  O   UNL     1      30.568  10.043  49.743  0.00  0.00    +0.000 OA
ATOM     15  N   UNL     1      31.593   8.047  50.149  0.00  0.00    +0.000 N 
ATOM     16  C   UNL     1      31.659   6.884  49.463  0.00  0.00    +0.000 A 
ATOM     17  O   UNL     1      31.788   5.779  49.971  0.00  0.00    +0.000 OA
ATOM     18  H   UNL     1      31.927   8.194  51.064  0.00  0.00    +0.000 HD
ENDBRANCH  10  11
ENDBRANCH   9  10
ENDBRANCH   5   7
BRANCH   1  19
ATOM     19  O   UNL     1      26.449   2.294  50.310  0.00  0.00    +0.000 OA
BRANCH  19  20
ATOM     20  C   UNL     1      26.661   2.094  51.717  0.00  0.00    +0.000 C 
BRANCH  20  29
ATOM     21  C   UNL     1      26.335  -0.240  52.799  0.00  0.00    +0.000 A 
ATOM     22  O   UNL     1      25.317  -0.957  53.353  0.00  0.00    +0.000 OA
ATOM     23  C   UNL     1      24.186  -0.219  53.229  0.00  0.00    +0.000 A 
ATOM     24  C   UNL     1      22.935  -0.576  53.729  0.00  0.00    +0.000 A 
ATOM     25  C   UNL     1      21.893   0.329  53.509  0.00  0.00    +0.000 A 
ATOM     26  C   UNL     1      22.109   1.517  52.804  0.00  0.00    +0.000 A 
ATOM     27  C   UNL     1      23.383   1.847  52.316  0.00  0.00    +0.000 A 
ATOM     28  C   UNL     1      24.455   0.961  52.548  0.00  0.00    +0.000 A 
ATOM     29  C   UNL     1      25.868   0.966  52.295  0.00  0.00    +0.000 A 
BRANCH  21  30
ATOM     30  C   UNL     1      27.681  -0.864  52.907  0.00  0.00    +0.000 C 
BRANCH  30  31
ATOM     31  C   UNL     1      28.490  -0.312  54.084  0.00  0.00    +0.000 C 
BRANCH  31  33
ATOM     32  C   UNL     1      29.347   2.042  54.371  0.00  0.00    +0.000 C 
ATOM     33  C   UNL     1      29.550   0.711  53.664  0.00  0.00    +0.000 C 
ENDBRANCH  31  33
ENDBRANCH  30  31
ENDBRANCH  21  30
ENDBRANCH  20  29
ENDBRANCH  19  20
ENDBRANCH   1  19
TORSDOF 9
ENDMDL
MODEL 2
REMARK VINA RESULT:    -9.332      4.778     10.411
REMARK INTER + INTRA:         -15.505
REMARK INTER:                 -13.591
REMARK INTRA:                  -1.914
REMARK UNBOUND:                -1.264
REMARK  Name = 
REMARK  11 active torsions:
REMARK  status: ('A' for Active; 'I' for Inactive)
REMARK    1  A    between atoms: C_1  and  C_2
REMARK    2  A    between atoms: C_2  and  C_3
REMARK    3  A    between atoms: C_3  and  C_4
REMARK    4  A    between atoms: C_4  and  C_5
REMARK    5  A    between atoms: C_13  and  C_14
REMARK    6  A    between atoms: C_14  and  O_15
REMARK    7  A    between atoms: O_15  and  C_16
REMARK    8  A    between atoms: C_20  and  C_21
REMARK    9  A    between atoms: C_21  and  C_22
REMARK   10  A    between atoms: C_23  and  C_24
REMARK   11  A    between atoms: C_24  and  N_25
REMARK                            x       y       z     vdW  Elec       q    Type
REMARK                         _______ _______ _______ _____ _____    ______ ____
ROOT
ATOM      1  C   UNL     1      25.969   1.508  52.072  0.00  0.00    +0.000 A 
ATOM      2  C   UNL     1      26.917   0.491  52.151  0.00  0.00    +0.000 A 
ATOM      3  C   UNL     1      26.570  -0.744  52.698  0.00  0.00    +0.000 A 
ATOM      4  C   UNL     1      25.285  -0.952  53.212  0.00  0.00    +0.000 A 
ATOM      5  C   UNL     1      24.332   0.077  53.197  0.00  0.00    +0.000 A 
ATOM      6  C   UNL     1      24.694   1.299  52.595  0.00  0.00    +0.000 A 
ENDROOT
BRANCH   5   7
ATOM      7  C   UNL     1      22.978  -0.089  53.796  0.00  0.00    +0.000 C 
ATOM      8  C   UNL     1      22.764  -1.127  54.865  0.00  0.00    +0.000 C 
ATOM      9  C   UNL     1      21.976   0.720  53.385  0.00  0.00    +0.000 C 
BRANCH   9  10
ATOM     10  C   UNL     1      20.542   0.689  53.813  0.00  0.00    +0.000 C 
BRANCH  10  11
ATOM     11  N   UNL     1      19.848  -0.297  53.002  0.00  0.00    +0.000 N 
ATOM     12  O   UNL     1      19.402  -1.443  53.743  0.00  0.00    +0.000 OA
ATOM     13  C   UNL     1      18.181  -1.803  53.236  0.00  0.00    +0.000 A 
ATOM     14  O   UNL     1      17.488  -2.706  53.666  0.00  0.00    +0.000 OA
ATOM     15  N   UNL     1      17.857  -0.962  52.244  0.00  0.00    +0.000 N 
ATOM     16  C   UNL     1      18.728   0.073  52.255  0.00  0.00    +0.000 A 
ATOM     17  O   UNL     1      18.517   1.169  51.755  0.00  0.00    +0.000 OA
ATOM     18  H   UNL     1      17.111  -1.078  51.613  0.00  0.00    +0.000 HD
ENDBRANCH  10  11
ENDBRANCH   9  10
ENDBRANCH   5   7
BRANCH   1  19
ATOM     19  O   UNL     1      26.389   2.694  51.534  0.00  0.00    +0.000 OA
BRANCH  19  20
ATOM     20  C   UNL     1      26.460   2.750  50.100  0.00  0.00    +0.000 C 
BRANCH  20  29
ATOM     21  C   UNL     1      24.729   4.611  49.588  0.00  0.00    +0.000 A 
ATOM     22  O   UNL     1      24.729   5.862  49.046  0.00  0.00    +0.000 OA
ATOM     23  C   UNL     1      25.995   6.127  48.637  0.00  0.00    +0.000 A 
ATOM     24  C   UNL     1      26.425   7.333  48.086  0.00  0.00    +0.000 A 
ATOM     25  C   UNL     1      27.777   7.414  47.739  0.00  0.00    +0.000 A 
ATOM     26  C   UNL     1      28.634   6.325  47.925  0.00  0.00    +0.000 A 
ATOM     27  C   UNL     1      28.168   5.126  48.485  0.00  0.00    +0.000 A 
ATOM     28  C   UNL     1      26.813   5.028  48.866  0.00  0.00    +0.000 A 
ATOM     29  C   UNL     1      25.995   4.047  49.520  0.00  0.00    +0.000 A 
BRANCH  21  30
ATOM     30  C   UNL     1      23.430   4.171  50.163  0.00  0.00    +0.000 C 
BRANCH  30  31
ATOM     31  C   UNL     1      22.809   3.007  49.386  0.00  0.00    +0.000 C 
BRANCH  31  33
ATOM     32  C   UNL     1      21.500   0.862  49.595  0.00  0.00    +0.000 C 
ATOM     33  C   UNL     1      21.750   2.242  50.184  0.00  0.00    +0.000 C 
ENDBRANCH  31  33
ENDBRANCH  30  31
ENDBRANCH  21  30
ENDBRANCH  20  29
ENDBRANCH  19  20
ENDBRANCH   1  19
TORSDOF 9
ENDMDL
MODEL 3
REMARK VINA RESULT:    -9.246      4.272      9.460
REMARK INTER + INTRA:         -15.375
REMARK INTER:                 -13.171
REMARK INTRA:                  -2.204
REMARK UNBOUND:                -1.264
REMARK  Name = 
REMARK  11 active torsions:
REMARK  status: ('A' for Active; 'I' for Inactive)
REMARK    1  A    between atoms: C_1  and  C_2
REMARK    2  A    between atoms: C_2  and  C_3
REMARK    3  A    between atoms: C_3  and  C_4
REMARK    4  A    between atoms: C_4  and  C_5
REMARK    5  A    between atoms: C_13  and  C_14
REMARK    6  A    between atoms: C_14  and  O_15
REMARK    7  A    between atoms: O_15  and  C_16
REMARK    8  A    between atoms: C_20  and  C_21
REMARK    9  A    between atoms: C_21  and  C_22
REMARK   10  A    between atoms: C_23  and  C_24
REMARK   11  A    between atoms: C_24  and  N_25
REMARK                            x       y       z     vdW  Elec       q    Type
REMARK                         _______ _______ _______ _____ _____    ______ ____
ROOT
ATOM      1  C   UNL     1      26.204   1.731  51.939  0.00  0.00    +0.000 A 
ATOM      2  C   UNL     1      27.256   0.909  52.334  0.00  0.00    +0.000 A 
ATOM      3  C   UNL     1      26.994  -0.297  52.983  0.00  0.00    +0.000 A 
ATOM      4  C   UNL     1      25.678  -0.665  53.282  0.00  0.00    +0.000 A 
ATOM      5  C   UNL     1      24.605   0.173  52.947  0.00  0.00    +0.000 A 
ATOM      6  C   UNL     1      24.895   1.363  52.249  0.00  0.00    +0.000 A 
ENDROOT
BRANCH   5   7
ATOM      7  C   UNL     1      23.199  -0.156  53.310  0.00  0.00    +0.000 C 
ATOM      8  C   UNL     1      22.926  -0.978  54.542  0.00  0.00    +0.000 C 
ATOM      9  C   UNL     1      22.194   0.317  52.538  0.00  0.00    +0.000 C 
BRANCH   9  10
ATOM     10  C   UNL     1      20.726   0.064  52.692  0.00  0.00    +0.000 C 
BRANCH  10  11
ATOM     11  N   UNL     1      20.053   1.348  52.777  0.00  0.00    +0.000 N 
ATOM     12  O   UNL     1      20.945   2.473  52.724  0.00  0.00    +0.000 OA
ATOM     13  C   UNL     1      20.320   3.449  51.993  0.00  0.00    +0.000 A 
ATOM     14  O   UNL     1      20.814   4.523  51.703  0.00  0.00    +0.000 OA
ATOM     15  N   UNL     1      19.118   3.001  51.604  0.00  0.00    +0.000 N 
ATOM     16  C   UNL     1      19.048   1.676  51.864  0.00  0.00    +0.000 A 
ATOM     17  O   UNL     1      18.279   0.897  51.319  0.00  0.00    +0.000 OA
ATOM     18  H   UNL     1      18.406   3.546  51.197  0.00  0.00    +0.000 HD
ENDBRANCH  10  11
ENDBRANCH   9  10
ENDBRANCH   5   7
BRANCH   1  19
ATOM     19  O   UNL     1      26.542   2.902  51.319  0.00  0.00    +0.000 OA
BRANCH  19  20
ATOM     20  C   UNL     1      26.485   2.900  49.883  0.00  0.00    +0.000 C 
BRANCH  20  29
ATOM     21  C   UNL     1      24.911   4.868  49.273  0.00  0.00    +0.000 A 
ATOM     22  O   UNL     1      25.026   6.121  48.748  0.00  0.00    +0.000 OA
ATOM     23  C   UNL     1      26.332   6.311  48.433  0.00  0.00    +0.000 A 
ATOM     24  C   UNL     1      26.873   7.492  47.929  0.00  0.00    +0.000 A 
ATOM     25  C   UNL     1      28.248   7.493  47.679  0.00  0.00    +0.000 A 
ATOM     26  C   UNL     1      29.022   6.352  47.912  0.00  0.00    +0.000 A 
ATOM     27  C   UNL     1      28.445   5.179  48.423  0.00  0.00    +0.000 A 
ATOM     28  C   UNL     1      27.064   5.162  48.706  0.00  0.00    +0.000 A 
ATOM     29  C   UNL     1      26.143   4.228  49.288  0.00  0.00    +0.000 A 
BRANCH  21  30
ATOM     30  C   UNL     1      23.550   4.504  49.749  0.00  0.00    +0.000 C 
BRANCH  30  31
ATOM     31  C   UNL     1      22.859   3.492  48.830  0.00  0.00    +0.000 C 
BRANCH  31  33
ATOM     32  C   UNL     1      21.433   1.420  49.012  0.00  0.00    +0.000 C 
ATOM     33  C   UNL     1      22.718   2.102  49.457  0.00  0.00    +0.000 C 
ENDBRANCH  31  33
ENDBRANCH  30  31
ENDBRANCH  21  30
ENDBRANCH  20  29
ENDBRANCH  19  20
ENDBRANCH   1  19
TORSDOF 9
ENDMDL
MODEL 4
REMARK VINA RESULT:    -9.121      4.434      7.275
REMARK INTER + INTRA:         -15.185
REMARK INTER:                 -12.972
REMARK INTRA:                  -2.213
REMARK UNBOUND:                -1.264
REMARK  Name = 
REMARK  11 active torsions:
REMARK  status: ('A' for Active; 'I' for Inactive)
REMARK    1  A    between atoms: C_1  and  C_2
REMARK    2  A    between atoms: C_2  and  C_3
REMARK    3  A    between atoms: C_3  and  C_4
REMARK    4  A    between atoms: C_4  and  C_5
REMARK    5  A    between atoms: C_13  and  C_14
REMARK    6  A    between atoms: C_14  and  O_15
REMARK    7  A    between atoms: O_15  and  C_16
REMARK    8  A    between atoms: C_20  and  C_21
REMARK    9  A    between atoms: C_21  and  C_22
REMARK   10  A    between atoms: C_23  and  C_24
REMARK   11  A    between atoms: C_24  and  N_25
REMARK                            x       y       z     vdW  Elec       q    Type
REMARK                         _______ _______ _______ _____ _____    ______ ____
ROOT
ATOM      1  C   UNL     1      21.949   2.992  49.477  0.00  0.00    +0.000 A 
ATOM      2  C   UNL     1      21.682   4.238  48.917  0.00  0.00    +0.000 A 
ATOM      3  C   UNL     1      22.720   5.147  48.711  0.00  0.00    +0.000 A 
ATOM      4  C   UNL     1      24.024   4.830  49.108  0.00  0.00    +0.000 A 
ATOM      5  C   UNL     1      24.307   3.605  49.728  0.00  0.00    +0.000 A 
ATOM      6  C   UNL     1      23.249   2.686  49.880  0.00  0.00    +0.000 A 
ENDROOT
BRANCH   5   7
ATOM      7  C   UNL     1      25.669   3.263  50.224  0.00  0.00    +0.000 C 
ATOM      8  C   UNL     1      26.876   3.747  49.464  0.00  0.00    +0.000 C 
ATOM      9  C   UNL     1      25.792   2.549  51.365  0.00  0.00    +0.000 C 
BRANCH   9  10
ATOM     10  C   UNL     1      27.053   2.058  52.005  0.00  0.00    +0.000 C 
BRANCH  10  11
ATOM     11  N   UNL     1      26.730   0.885  52.799  0.00  0.00    +0.000 N 
ATOM     12  O   UNL     1      26.410  -0.274  52.014  0.00  0.00    +0.000 OA
ATOM     13  C   UNL     1      26.943  -1.359  52.659  0.00  0.00    +0.000 A 
ATOM     14  O   UNL     1      26.906  -2.502  52.242  0.00  0.00    +0.000 OA
ATOM     15  N   UNL     1      27.559  -0.944  53.774  0.00  0.00    +0.000 N 
ATOM     16  C   UNL     1      27.639   0.406  53.745  0.00  0.00    +0.000 A 
ATOM     17  O   UNL     1      28.439   1.072  54.387  0.00  0.00    +0.000 OA
ATOM     18  H   UNL     1      27.895  -1.524  54.495  0.00  0.00    +0.000 HD
ENDBRANCH  10  11
ENDBRANCH   9  10
ENDBRANCH   5   7
BRANCH   1  19
ATOM     19  O   UNL     1      20.877   2.161  49.657  0.00  0.00    +0.000 OA
BRANCH  19  20
ATOM     20  C   UNL     1      21.181   0.784  49.935  0.00  0.00    +0.000 C 
BRANCH  20  29
ATOM     21  C   UNL     1      19.446   0.016  51.702  0.00  0.00    +0.000 A 
ATOM     22  O   UNL     1      19.458  -0.487  52.969  0.00  0.00    +0.000 OA
ATOM     23  C   UNL     1      20.751  -0.525  53.379  0.00  0.00    +0.000 A 
ATOM     24  C   UNL     1      21.192  -1.037  54.597  0.00  0.00    +0.000 A 
ATOM     25  C   UNL     1      22.570  -0.998  54.829  0.00  0.00    +0.000 A 
ATOM     26  C   UNL     1      23.443  -0.453  53.882  0.00  0.00    +0.000 A 
ATOM     27  C   UNL     1      22.965   0.052  52.664  0.00  0.00    +0.000 A 
ATOM     28  C   UNL     1      21.581   0.001  52.397  0.00  0.00    +0.000 A 
ATOM     29  C   UNL     1      20.733   0.325  51.286  0.00  0.00    +0.000 A 
BRANCH  21  30
ATOM     30  C   UNL     1      18.108   0.066  51.054  0.00  0.00    +0.000 C 
BRANCH  30  31
ATOM     31  C   UNL     1      17.282   1.272  51.508  0.00  0.00    +0.000 C 
BRANCH  31  33
ATOM     32  C   UNL     1      18.346   3.558  51.470  0.00  0.00    +0.000 C 
ATOM     33  C   UNL     1      17.546   2.534  50.680  0.00  0.00    +0.000 C 
ENDBRANCH  31  33
ENDBRANCH  30  31
ENDBRANCH  21  30
ENDBRANCH  20  29
ENDBRANCH  19  20
ENDBRANCH   1  19
TORSDOF 9
ENDMDL
MODEL 5
REMARK VINA RESULT:    -8.966      5.158      7.593
REMARK INTER + INTRA:         -14.947
REMARK INTER:                 -13.056
REMARK INTRA:                  -1.890
REMARK UNBOUND:                -1.264
REMARK  Name = 
REMARK  11 active torsions:
REMARK  status: ('A' for Active; 'I' for Inactive)
REMARK    1  A    between atoms: C_1  and  C_2
REMARK    2  A    between atoms: C_2  and  C_3
REMARK    3  A    between atoms: C_3  and  C_4
REMARK    4  A    between atoms: C_4  and  C_5
REMARK    5  A    between atoms: C_13  and  C_14
REMARK    6  A    between atoms: C_14  and  O_15
REMARK    7  A    between atoms: O_15  and  C_16
REMARK    8  A    between atoms: C_20  and  C_21
REMARK    9  A    between atoms: C_21  and  C_22
REMARK   10  A    between atoms: C_23  and  C_24
REMARK   11  A    between atoms: C_24  and  N_25
REMARK                            x       y       z     vdW  Elec       q    Type
REMARK                         _______ _______ _______ _____ _____    ______ ____
ROOT
ATOM      1  C   UNL     1      21.995   1.540  49.727  0.00  0.00    +0.000 A 
ATOM      2  C   UNL     1      22.314   2.317  48.615  0.00  0.00    +0.000 A 
ATOM      3  C   UNL     1      23.459   3.112  48.625  0.00  0.00    +0.000 A 
ATOM      4  C   UNL     1      24.267   3.170  49.766  0.00  0.00    +0.000 A 
ATOM      5  C   UNL     1      23.934   2.443  50.918  0.00  0.00    +0.000 A 
ATOM      6  C   UNL     1      22.798   1.611  50.864  0.00  0.00    +0.000 A 
ENDROOT
BRANCH   5   7
ATOM      7  C   UNL     1      24.734   2.535  52.171  0.00  0.00    +0.000 C 
ATOM      8  C   UNL     1      24.218   3.363  53.319  0.00  0.00    +0.000 C 
ATOM      9  C   UNL     1      25.894   1.848  52.261  0.00  0.00    +0.000 C 
BRANCH   9  10
ATOM     10  C   UNL     1      26.869   1.842  53.398  0.00  0.00    +0.000 C 
BRANCH  10  11
ATOM     11  N   UNL     1      27.080   0.464  53.806  0.00  0.00    +0.000 N 
ATOM     12  O   UNL     1      26.361  -0.490  53.009  0.00  0.00    +0.000 OA
ATOM     13  C   UNL     1      27.175  -1.581  52.853  0.00  0.00    +0.000 A 
ATOM     14  O   UNL     1      26.903  -2.562  52.185  0.00  0.00    +0.000 OA
ATOM     15  N   UNL     1      28.330  -1.360  53.497  0.00  0.00    +0.000 N 
ATOM     16  C   UNL     1      28.373  -0.059  53.866  0.00  0.00    +0.000 A 
ATOM     17  O   UNL     1      29.396   0.559  54.127  0.00  0.00    +0.000 OA
ATOM     18  H   UNL     1      29.028  -2.031  53.672  0.00  0.00    +0.000 HD
ENDBRANCH  10  11
ENDBRANCH   9  10
ENDBRANCH   5   7
BRANCH   1  19
ATOM     19  O   UNL     1      20.850   0.796  49.644  0.00  0.00    +0.000 OA
BRANCH  19  20
ATOM     20  C   UNL     1      19.691   1.340  50.297  0.00  0.00    +0.000 C 
BRANCH  20  29
ATOM     21  C   UNL     1      19.457   0.073  52.547  0.00  0.00    +0.000 A 
ATOM     22  O   UNL     1      18.535  -0.722  53.162  0.00  0.00    +0.000 OA
ATOM     23  C   UNL     1      17.511  -0.902  52.291  0.00  0.00    +0.000 A 
ATOM     24  C   UNL     1      16.338  -1.604  52.566  0.00  0.00    +0.000 A 
ATOM     25  C   UNL     1      15.393  -1.667  51.538  0.00  0.00    +0.000 A 
ATOM     26  C   UNL     1      15.636  -1.066  50.299  0.00  0.00    +0.000 A 
ATOM     27  C   UNL     1      16.827  -0.365  50.058  0.00  0.00    +0.000 A 
ATOM     28  C   UNL     1      17.785  -0.267  51.087  0.00  0.00    +0.000 A 
ATOM     29  C   UNL     1      19.043   0.401  51.263  0.00  0.00    +0.000 A 
BRANCH  21  30
ATOM     30  C   UNL     1      20.631   0.443  53.382  0.00  0.00    +0.000 C 
BRANCH  30  31
ATOM     31  C   UNL     1      21.367  -0.781  53.934  0.00  0.00    +0.000 C 
BRANCH  31  33
ATOM     32  C   UNL     1      23.544  -1.181  55.141  0.00  0.00    +0.000 C 
ATOM     33  C   UNL     1      22.891  -0.649  53.874  0.00  0.00    +0.000 C 
ENDBRANCH  31  33
ENDBRANCH  30  31
ENDBRANCH  21  30
ENDBRANCH  20  29
ENDBRANCH  19  20
ENDBRANCH   1  19
TORSDOF 9
ENDMDL
MODEL 6
REMARK VINA RESULT:    -8.875      3.228      8.486
REMARK INTER + INTRA:         -14.808
REMARK INTER:                 -13.708
REMARK INTRA:                  -1.100
REMARK UNBOUND:                -1.264
REMARK  Name = 
REMARK  11 active torsions:
REMARK  status: ('A' for Active; 'I' for Inactive)
REMARK    1  A    between atoms: C_1  and  C_2
REMARK    2  A    between atoms: C_2  and  C_3
REMARK    3  A    between atoms: C_3  and  C_4
REMARK    4  A    between atoms: C_4  and  C_5
REMARK    5  A    between atoms: C_13  and  C_14
REMARK    6  A    between atoms: C_14  and  O_15
REMARK    7  A    between atoms: O_15  and  C_16
REMARK    8  A    between atoms: C_20  and  C_21
REMARK    9  A    between atoms: C_21  and  C_22
REMARK   10  A    between atoms: C_23  and  C_24
REMARK   11  A    between atoms: C_24  and  N_25
REMARK                            x       y       z     vdW  Elec       q    Type
REMARK                         _______ _______ _______ _____ _____    ______ ____
ROOT
ATOM      1  C   UNL     1      23.079   2.236  49.921  0.00  0.00    +0.000 A 
ATOM      2  C   UNL     1      21.805   1.931  49.449  0.00  0.00    +0.000 A 
ATOM      3  C   UNL     1      20.971   1.091  50.186  0.00  0.00    +0.000 A 
ATOM      4  C   UNL     1      21.426   0.514  51.376  0.00  0.00    +0.000 A 
ATOM      5  C   UNL     1      22.726   0.759  51.842  0.00  0.00    +0.000 A 
ATOM      6  C   UNL     1      23.530   1.650  51.103  0.00  0.00    +0.000 A 
ENDROOT
BRANCH   5   7
ATOM      7  C   UNL     1      23.264   0.108  53.068  0.00  0.00    +0.000 C 
ATOM      8  C   UNL     1      22.323  -0.608  54.000  0.00  0.00    +0.000 C 
ATOM      9  C   UNL     1      24.595   0.150  53.303  0.00  0.00    +0.000 C 
BRANCH   9  10
ATOM     10  C   UNL     1      25.332  -0.388  54.489  0.00  0.00    +0.000 C 
BRANCH  10  11
ATOM     11  N   UNL     1      26.464   0.484  54.753  0.00  0.00    +0.000 N 
ATOM     12  O   UNL     1      27.737  -0.127  54.488  0.00  0.00    +0.000 OA
ATOM     13  C   UNL     1      28.543   0.840  53.946  0.00  0.00    +0.000 A 
ATOM     14  O   UNL     1      29.680   0.656  53.552  0.00  0.00    +0.000 OA
ATOM     15  N   UNL     1      27.855   1.987  53.866  0.00  0.00    +0.000 N 
ATOM     16  C   UNL     1      26.553   1.727  54.123  0.00  0.00    +0.000 A 
ATOM     17  O   UNL     1      25.618   2.437  53.781  0.00  0.00    +0.000 OA
ATOM     18  H   UNL     1      28.234   2.871  53.656  0.00  0.00    +0.000 HD
ENDBRANCH  10  11
ENDBRANCH   9  10
ENDBRANCH   5   7
BRANCH   1  19
ATOM     19  O   UNL     1      23.841   3.058  49.136  0.00  0.00    +0.000 OA
BRANCH  19  20
ATOM     20  C   UNL     1      24.932   3.727  49.789  0.00  0.00    +0.000 C 
BRANCH  20  29
ATOM     21  C   UNL     1      24.527   6.144  48.941  0.00  0.00    +0.000 A 
ATOM     22  O   UNL     1      25.271   7.173  48.444  0.00  0.00    +0.000 OA
ATOM     23  C   UNL     1      26.551   6.736  48.343  0.00  0.00    +0.000 A 
ATOM     24  C   UNL     1      27.635   7.512  47.936  0.00  0.00    +0.000 A 
ATOM     25  C   UNL     1      28.881   6.880  47.910  0.00  0.00    +0.000 A 
ATOM     26  C   UNL     1      29.012   5.532  48.260  0.00  0.00    +0.000 A 
ATOM     27  C   UNL     1      27.899   4.781  48.669  0.00  0.00    +0.000 A 
ATOM     28  C   UNL     1      26.636   5.403  48.726  0.00  0.00    +0.000 A 
ATOM     29  C   UNL     1      25.318   5.023  49.150  0.00  0.00    +0.000 A 
BRANCH  21  30
ATOM     30  C   UNL     1      23.096   6.462  49.191  0.00  0.00    +0.000 C 
BRANCH  30  31
ATOM     31  C   UNL     1      22.811   6.763  50.665  0.00  0.00    +0.000 C 
BRANCH  31  33
ATOM     32  C   UNL     1      22.336   4.880  52.274  0.00  0.00    +0.000 C 
ATOM     33  C   UNL     1      21.737   5.855  51.272  0.00  0.00    +0.000 C 
ENDBRANCH  31  33
ENDBRANCH  30  31
ENDBRANCH  21  30
ENDBRANCH  20  29
ENDBRANCH  19  20
ENDBRANCH   1  19
TORSDOF 9
ENDMDL
MODEL 7
REMARK VINA RESULT:    -8.738      1.889      2.956
REMARK INTER + INTRA:         -14.599
REMARK INTER:                 -13.309
REMARK INTRA:                  -1.291
REMARK UNBOUND:                -1.264
REMARK  Name = 
REMARK  11 active torsions:
REMARK  status: ('A' for Active; 'I' for Inactive)
REMARK    1  A    between atoms: C_1  and  C_2
REMARK    2  A    between atoms: C_2  and  C_3
REMARK    3  A    between atoms: C_3  and  C_4
REMARK    4  A    between atoms: C_4  and  C_5
REMARK    5  A    between atoms: C_13  and  C_14
REMARK    6  A    between atoms: C_14  and  O_15
REMARK    7  A    between atoms: O_15  and  C_16
REMARK    8  A    between atoms: C_20  and  C_21
REMARK    9  A    between atoms: C_21  and  C_22
REMARK   10  A    between atoms: C_23  and  C_24
REMARK   11  A    between atoms: C_24  and  N_25
REMARK                            x       y       z     vdW  Elec       q    Type
REMARK                         _______ _______ _______ _____ _____    ______ ____
ROOT
ATOM      1  C   UNL     1      24.988   4.047  50.135  0.00  0.00    +0.000 A 
ATOM      2  C   UNL     1      26.090   3.275  49.777  0.00  0.00    +0.000 A 
ATOM      3  C   UNL     1      27.158   3.859  49.096  0.00  0.00    +0.000 A 
ATOM      4  C   UNL     1      27.107   5.208  48.729  0.00  0.00    +0.000 A 
ATOM      5  C   UNL     1      25.983   5.990  49.026  0.00  0.00    +0.000 A 
ATOM      6  C   UNL     1      24.939   5.388  49.757  0.00  0.00    +0.000 A 
ENDROOT
BRANCH   5   7
ATOM      7  C   UNL     1      25.867   7.410  48.591  0.00  0.00    +0.000 C 
ATOM      8  C   UNL     1      25.220   7.727  47.269  0.00  0.00    +0.000 C 
ATOM      9  C   UNL     1      26.321   8.386  49.408  0.00  0.00    +0.000 C 
BRANCH   9  10
ATOM     10  C   UNL     1      26.350   9.860  49.146  0.00  0.00    +0.000 C 
BRANCH  10  11
ATOM     11  N   UNL     1      27.737  10.292  49.143  0.00  0.00    +0.000 N 
ATOM     12  O   UNL     1      28.618   9.406  49.851  0.00  0.00    +0.000 OA
ATOM     13  C   UNL     1      29.794   9.360  49.148  0.00  0.00    +0.000 A 
ATOM     14  O   UNL     1      30.749   8.662  49.436  0.00  0.00    +0.000 OA
ATOM     15  N   UNL     1      29.690  10.151  48.071  0.00  0.00    +0.000 N 
ATOM     16  C   UNL     1      28.397  10.523  47.934  0.00  0.00    +0.000 A 
ATOM     17  O   UNL     1      27.890  10.918  46.893  0.00  0.00    +0.000 OA
ATOM     18  H   UNL     1      30.431  10.418  47.481  0.00  0.00    +0.000 HD
ENDBRANCH  10  11
ENDBRANCH   9  10
ENDBRANCH   5   7
BRANCH   1  19
ATOM     19  O   UNL     1      23.976   3.400  50.791  0.00  0.00    +0.000 OA
BRANCH  19  20
ATOM     20  C   UNL     1      24.174   3.172  52.196  0.00  0.00    +0.000 C 
BRANCH  20  29
ATOM     21  C   UNL     1      25.157   0.825  52.691  0.00  0.00    +0.000 A 
ATOM     22  O   UNL     1      24.719  -0.361  53.204  0.00  0.00    +0.000 OA
ATOM     23  C   UNL     1      23.393  -0.229  53.456  0.00  0.00    +0.000 A 
ATOM     24  C   UNL     1      22.587  -1.200  54.046  0.00  0.00    +0.000 A 
ATOM     25  C   UNL     1      21.243  -0.868  54.234  0.00  0.00    +0.000 A 
ATOM     26  C   UNL     1      20.746   0.375  53.826  0.00  0.00    +0.000 A 
ATOM     27  C   UNL     1      21.587   1.331  53.238  0.00  0.00    +0.000 A 
ATOM     28  C   UNL     1      22.952   1.028  53.060  0.00  0.00    +0.000 A 
ATOM     29  C   UNL     1      24.111   1.731  52.591  0.00  0.00    +0.000 A 
BRANCH  21  30
ATOM     30  C   UNL     1      26.618   0.895  52.418  0.00  0.00    +0.000 C 
BRANCH  30  31
ATOM     31  C   UNL     1      27.337  -0.418  52.738  0.00  0.00    +0.000 C 
BRANCH  31  33
ATOM     32  C   UNL     1      29.634  -1.090  53.535  0.00  0.00    +0.000 C 
ATOM     33  C   UNL     1      28.384  -0.281  53.848  0.00  0.00    +0.000 C 
ENDBRANCH  31  33
ENDBRANCH  30  31
ENDBRANCH  21  30
ENDBRANCH  20  29
ENDBRANCH  19  20
ENDBRANCH   1  19
TORSDOF 9
ENDMDL
MODEL 8
REMARK VINA RESULT:    -8.736      4.198      8.949
REMARK INTER + INTRA:         -14.596
REMARK INTER:                 -12.815
REMARK INTRA:                  -1.781
REMARK UNBOUND:                -1.264
REMARK  Name = 
REMARK  11 active torsions:
REMARK  status: ('A' for Active; 'I' for Inactive)
REMARK    1  A    between atoms: C_1  and  C_2
REMARK    2  A    between atoms: C_2  and  C_3
REMARK    3  A    between atoms: C_3  and  C_4
REMARK    4  A    between atoms: C_4  and  C_5
REMARK    5  A    between atoms: C_13  and  C_14
REMARK    6  A    between atoms: C_14  and  O_15
REMARK    7  A    between atoms: O_15  and  C_16
REMARK    8  A    between atoms: C_20  and  C_21
REMARK    9  A    between atoms: C_21  and  C_22
REMARK   10  A    between atoms: C_23  and  C_24
REMARK   11  A    between atoms: C_24  and  N_25
REMARK                            x       y       z     vdW  Elec       q    Type
REMARK                         _______ _______ _______ _____ _____    ______ ____
ROOT
ATOM      1  C   UNL     1      26.531   1.364  52.788  0.00  0.00    +0.000 A 
ATOM      2  C   UNL     1      27.355   0.959  53.835  0.00  0.00    +0.000 A 
ATOM      3  C   UNL     1      26.872   0.076  54.801  0.00  0.00    +0.000 A 
ATOM      4  C   UNL     1      25.547  -0.370  54.749  0.00  0.00    +0.000 A 
ATOM      5  C   UNL     1      24.682   0.070  53.737  0.00  0.00    +0.000 A 
ATOM      6  C   UNL     1      25.209   0.924  52.747  0.00  0.00    +0.000 A 
ENDROOT
BRANCH   5   7
ATOM      7  C   UNL     1      23.248  -0.332  53.690  0.00  0.00    +0.000 C 
ATOM      8  C   UNL     1      22.695  -1.224  54.770  0.00  0.00    +0.000 C 
ATOM      9  C   UNL     1      22.467   0.139  52.693  0.00  0.00    +0.000 C 
BRANCH   9  10
ATOM     10  C   UNL     1      21.027  -0.178  52.431  0.00  0.00    +0.000 C 
BRANCH  10  11
ATOM     11  N   UNL     1      20.512   0.802  51.490  0.00  0.00    +0.000 N 
ATOM     12  O   UNL     1      21.440   1.147  50.449  0.00  0.00    +0.000 OA
ATOM     13  C   UNL     1      20.715   1.305  49.298  0.00  0.00    +0.000 A 
ATOM     14  O   UNL     1      21.191   1.549  48.205  0.00  0.00    +0.000 OA
ATOM     15  N   UNL     1      19.420   1.085  49.564  0.00  0.00    +0.000 N 
ATOM     16  C   UNL     1      19.320   0.558  50.806  0.00  0.00    +0.000 A 
ATOM     17  O   UNL     1      18.367  -0.091  51.214  0.00  0.00    +0.000 OA
ATOM     18  H   UNL     1      18.668   1.275  48.958  0.00  0.00    +0.000 HD
ENDBRANCH  10  11
ENDBRANCH   9  10
ENDBRANCH   5   7
BRANCH   1  19
ATOM     19  O   UNL     1      27.074   2.239  51.887  0.00  0.00    +0.000 OA
BRANCH  19  20
ATOM     20  C   UNL     1      26.375   2.381  50.640  0.00  0.00    +0.000 C 
BRANCH  20  29
ATOM     21  C   UNL     1      26.162   4.759  49.627  0.00  0.00    +0.000 A 
ATOM     22  O   UNL     1      25.251   5.774  49.629  0.00  0.00    +0.000 OA
ATOM     23  C   UNL     1      24.227   5.399  50.435  0.00  0.00    +0.000 A 
ATOM     24  C   UNL     1      23.064   6.136  50.652  0.00  0.00    +0.000 A 
ATOM     25  C   UNL     1      22.117   5.571  51.511  0.00  0.00    +0.000 A 
ATOM     26  C   UNL     1      22.351   4.337  52.127  0.00  0.00    +0.000 A 
ATOM     27  C   UNL     1      23.532   3.620  51.884  0.00  0.00    +0.000 A 
ATOM     28  C   UNL     1      24.491   4.159  51.002  0.00  0.00    +0.000 A 
ATOM     29  C   UNL     1      25.741   3.722  50.448  0.00  0.00    +0.000 A 
BRANCH  21  30
ATOM     30  C   UNL     1      27.332   4.961  48.732  0.00  0.00    +0.000 C 
BRANCH  30  31
ATOM     31  C   UNL     1      27.520   6.427  48.334  0.00  0.00    +0.000 C 
BRANCH  31  33
ATOM     32  C   UNL     1      29.878   5.598  48.002  0.00  0.00    +0.000 C 
ATOM     33  C   UNL     1      28.889   6.716  47.710  0.00  0.00    +0.000 C 
ENDBRANCH  31  33
ENDBRANCH  30  31
ENDBRANCH  21  30
ENDBRANCH  20  29
ENDBRANCH  19  20
ENDBRANCH   1  19
TORSDOF 9
ENDMDL
MODEL 9
REMARK VINA RESULT:    -8.695      5.171      9.031
REMARK INTER + INTRA:         -14.533
REMARK INTER:                 -13.043
REMARK INTRA:                  -1.491
REMARK UNBOUND:                -1.264
REMARK  Name = 
REMARK  11 active torsions:
REMARK  status: ('A' for Active; 'I' for Inactive)
REMARK    1  A    between atoms: C_1  and  C_2
REMARK    2  A    between atoms: C_2  and  C_3
REMARK    3  A    between atoms: C_3  and  C_4
REMARK    4  A    between atoms: C_4  and  C_5
REMARK    5  A    between atoms: C_13  and  C_14
REMARK    6  A    between atoms: C_14  and  O_15
REMARK    7  A    between atoms: O_15  and  C_16
REMARK    8  A    between atoms: C_20  and  C_21
REMARK    9  A    between atoms: C_21  and  C_22
REMARK   10  A    between atoms: C_23  and  C_24
REMARK   11  A    between atoms: C_24  and  N_25
REMARK                            x       y       z     vdW  Elec       q    Type
REMARK                         _______ _______ _______ _____ _____    ______ ____
ROOT
ATOM      1  C   UNL     1      20.470   0.181  53.152  0.00  0.00    +0.000 A 
ATOM      2  C   UNL     1      20.482  -0.996  53.897  0.00  0.00    +0.000 A 
ATOM      3  C   UNL     1      21.685  -1.495  54.395  0.00  0.00    +0.000 A 
ATOM      4  C   UNL     1      22.890  -0.843  54.108  0.00  0.00    +0.000 A 
ATOM      5  C   UNL     1      22.911   0.310  53.311  0.00  0.00    +0.000 A 
ATOM      6  C   UNL     1      21.675   0.819  52.862  0.00  0.00    +0.000 A 
ENDROOT
BRANCH   5   7
ATOM      7  C   UNL     1      24.180   0.989  52.932  0.00  0.00    +0.000 C 
ATOM      8  C   UNL     1      24.222   2.493  52.860  0.00  0.00    +0.000 C 
ATOM      9  C   UNL     1      25.278   0.239  52.689  0.00  0.00    +0.000 C 
BRANCH   9  10
ATOM     10  C   UNL     1      26.629   0.710  52.246  0.00  0.00    +0.000 C 
BRANCH  10  11
ATOM     11  N   UNL     1      27.551   0.549  53.357  0.00  0.00    +0.000 N 
ATOM     12  O   UNL     1      28.222  -0.721  53.371  0.00  0.00    +0.000 OA
ATOM     13  C   UNL     1      29.507  -0.494  53.789  0.00  0.00    +0.000 A 
ATOM     14  O   UNL     1      30.373  -1.345  53.867  0.00  0.00    +0.000 OA
ATOM     15  N   UNL     1      29.662   0.816  54.030  0.00  0.00    +0.000 N 
ATOM     16  C   UNL     1      28.580   1.472  53.554  0.00  0.00    +0.000 A 
ATOM     17  O   UNL     1      28.553   2.662  53.272  0.00  0.00    +0.000 OA
ATOM     18  H   UNL     1      30.434   1.229  54.480  0.00  0.00    +0.000 HD
ENDBRANCH  10  11
ENDBRANCH   9  10
ENDBRANCH   5   7
BRANCH   1  19
ATOM     19  O   UNL     1      19.253   0.599  52.690  0.00  0.00    +0.000 OA
BRANCH  19  20
ATOM     20  C   UNL     1      18.838   0.068  51.421  0.00  0.00    +0.000 C 
BRANCH  20  29
ATOM     21  C   UNL     1      17.823   1.954  49.959  0.00  0.00    +0.000 A 
ATOM     22  O   UNL     1      18.245   2.801  48.977  0.00  0.00    +0.000 OA
ATOM     23  C   UNL     1      19.535   2.490  48.699  0.00  0.00    +0.000 A 
ATOM     24  C   UNL     1      20.347   3.170  47.793  0.00  0.00    +0.000 A 
ATOM     25  C   UNL     1      21.658   2.702  47.656  0.00  0.00    +0.000 A 
ATOM     26  C   UNL     1      22.106   1.596  48.385  0.00  0.00    +0.000 A 
ATOM     27  C   UNL     1      21.262   0.936  49.291  0.00  0.00    +0.000 A 
ATOM     28  C   UNL     1      19.943   1.405  49.464  0.00  0.00    +0.000 A 
ATOM     29  C   UNL     1      18.836   1.074  50.315  0.00  0.00    +0.000 A 
BRANCH  21  30
ATOM     30  C   UNL     1      16.441   2.194  50.451  0.00  0.00    +0.000 C 
BRANCH  30  31
ATOM     31  C   UNL     1      16.407   3.092  51.691  0.00  0.00    +0.000 C 
BRANCH  31  33
ATOM     32  C   UNL     1      14.951   4.231  53.406  0.00  0.00    +0.000 C 
ATOM     33  C   UNL     1      15.050   3.093  52.402  0.00  0.00    +0.000 C 
ENDBRANCH  31  33
ENDBRANCH  30  31
ENDBRANCH  21  30
ENDBRANCH  20  29
ENDBRANCH  19  20
ENDBRANCH   1  19
TORSDOF 9
ENDMDL
