MODEL 1
REMARK VINA RESULT:    -6.999      0.000      0.000
REMARK INTER + INTRA:         -13.543
REMARK INTER:                 -11.295
REMARK INTRA:                  -2.248
REMARK UNBOUND:                -2.248
REMARK  Name = 
REMARK  13 active torsions:
REMARK  status: ('A' for Active; 'I' for Inactive)
REMARK    1  A    between atoms: C_1  and  C_2
REMARK    2  A    between atoms: C_2  and  C_3
REMARK    3  A    between atoms: C_3  and  C_4
REMARK    4  A    between atoms: C_4  and  N_5
REMARK    5  A    between atoms: N_5  and  C_6
REMARK    6  A    between atoms: N_5  and  C_10
REMARK    7  A    between atoms: C_6  and  C_7
REMARK    8  A    between atoms: C_7  and  C_8
REMARK    9  A    between atoms: C_8  and  C_9
REMARK   10  A    between atoms: C_10  and  C_11
REMARK   11  A    between atoms: C_11  and  N_12
REMARK   12  A    between atoms: N_12  and  C_13
REMARK   13  A    between atoms: C_23  and  O_24
REMARK                            x       y       z     vdW  Elec       q    Type
REMARK                         _______ _______ _______ _____ _____    ______ ____
ROOT
ATOM      1  C   UNL     1      22.460   0.780  53.013  0.00  0.00    +0.000 A 
ATOM      2  C   UNL     1      21.370  -0.102  52.818  0.00  0.00    +0.000 A 
ATOM      3  C   UNL     1      20.273   0.201  51.974  0.00  0.00    +0.000 A 
ATOM      4  C   UNL     1      20.337   1.378  51.231  0.00  0.00    +0.000 A 
ATOM      5  N   UNL     1      19.537   1.902  50.237  0.00  0.00    +0.000 NA
ATOM      6  C   UNL     1      20.157   2.998  49.830  0.00  0.00    +0.000 A 
ATOM      7  N   UNL     1      21.302   3.195  50.529  0.00  0.00    +0.000 N 
ATOM      8  C   UNL     1      22.323   4.167  50.458  0.00  0.00    +0.000 A 
ATOM      9  C   UNL     1      22.441   5.007  49.357  0.00  0.00    +0.000 A 
ATOM     10  C   UNL     1      23.231   6.128  49.486  0.00  0.00    +0.000 A 
ATOM     11  C   UNL     1      23.662   6.465  50.764  0.00  0.00    +0.000 A 
ATOM     12  C   UNL     1      23.811   5.522  51.771  0.00  0.00    +0.000 A 
ATOM     13  C   UNL     1      23.188   4.297  51.590  0.00  0.00    +0.000 A 
ATOM     14  C   UNL     1      23.325   3.198  52.588  0.00  0.00    +0.000 A 
ATOM     15  O   UNL     1      24.186   3.218  53.457  0.00  0.00    +0.000 OA
ATOM     16  C   UNL     1      22.381   2.047  52.429  0.00  0.00    +0.000 A 
ATOM     17  C   UNL     1      21.382   2.227  51.484  0.00  0.00    +0.000 A 
ENDROOT
BRANCH   1  18
ATOM     18  N   UNL     1      23.598   0.410  53.726  0.00  0.00    +0.000 N 
ATOM     19  H   UNL     1      23.874   0.945  54.505  0.00  0.00    +0.000 HD
BRANCH  18  20
ATOM     20  C   UNL     1      24.397  -0.764  53.341  0.00  0.00    +0.000 C 
BRANCH  20  21
ATOM     21  C   UNL     1      25.919  -0.487  53.139  0.00  0.00    +0.000 C 
BRANCH  21  22
ATOM     22  N   UNL     1      26.225   0.955  52.931  0.00  0.00    +0.000 N 
ATOM     23  H   UNL     1      25.362   1.470  53.107  0.00  0.00    +0.000 HD
BRANCH  22  24
ATOM     24  C   UNL     1      27.179   1.468  53.928  0.00  0.00    +0.000 C 
BRANCH  24  25
ATOM     25  C   UNL     1      28.208   0.487  54.533  0.00  0.00    +0.000 C 
BRANCH  25  27
ATOM     26  C   UNL     1      29.853  -1.132  53.374  0.00  0.00    +0.000 C 
ATOM     27  C   UNL     1      29.542   0.295  53.800  0.00  0.00    +0.000 C 
ENDBRANCH  25  27
ENDBRANCH  24  25
ENDBRANCH  22  24
BRANCH  22  28
ATOM     28  C   UNL     1      26.531   1.299  51.528  0.00  0.00    +0.000 C 
BRANCH  28  29
ATOM     29  C   UNL     1      26.735   2.757  51.053  0.00  0.00    +0.000 C 
BRANCH  29  30
ATOM     30  C   UNL     1      26.071   3.214  49.753  0.00  0.00    +0.000 C 
ATOM     31  C   UNL     1      26.544   4.557  49.219  0.00  0.00    +0.000 C 
ENDBRANCH  29  30
ENDBRANCH  28  29
ENDBRANCH  22  28
ENDBRANCH  21  22
ENDBRANCH  20  21
ENDBRANCH  18  20
ENDBRANCH   1  18
BRANCH  11  32
ATOM     32  O   UNL     1      23.454   7.769  51.131  0.00  0.00    +0.000 OA
ATOM     33  H   UNL     1      23.048   8.366  50.534  0.00  0.00    +0.000 HD
ENDBRANCH  11  32
TORSDOF 11
ENDMDL
MODEL 2
REMARK VINA RESULT:    -6.990      2.119      5.686
REMARK INTER + INTRA:         -13.528
REMARK INTER:                 -11.537
REMARK INTRA:                  -1.992
REMARK UNBOUND:                -2.248
REMARK  Name = 
REMARK  13 active torsions:
REMARK  status: ('A' for Active; 'I' for Inactive)
REMARK    1  A    between atoms: C_1  and  C_2
REMARK    2  A    between atoms: C_2  and  C_3
REMARK    3  A    between atoms: C_3  and  C_4
REMARK    4  A    between atoms: C_4  and  N_5
REMARK    5  A    between atoms: N_5  and  C_6
REMARK    6  A    between atoms: N_5  and  C_10
REMARK    7  A    between atoms: C_6  and  C_7
REMARK    8  A    between atoms: C_7  and  C_8
REMARK    9  A    between atoms: C_8  and  C_9
REMARK   10  A    between atoms: C_10  and  C_11
REMARK   11  A    between atoms: C_11  and  N_12
REMARK   12  A    between atoms: N_12  and  C_13
REMARK   13  A    between atoms: C_23  and  O_24
REMARK                            x       y       z     vdW  Elec       q    Type
REMARK                         _______ _______ _______ _____ _____    ______ ____
ROOT
ATOM      1  C   UNL     1      21.299   3.963  52.014  0.00  0.00    +0.000 A 
ATOM      2  C   UNL     1      19.907   3.802  51.818  0.00  0.00    +0.000 A 
ATOM      3  C   UNL     1      19.254   2.547  51.903  0.00  0.00    +0.000 A 
ATOM      4  C   UNL     1      20.016   1.450  52.302  0.00  0.00    +0.000 A 
ATOM      5  N   UNL     1      19.688   0.148  52.616  0.00  0.00    +0.000 NA
ATOM      6  C   UNL     1      20.816  -0.406  53.032  0.00  0.00    +0.000 A 
ATOM      7  N   UNL     1      21.839   0.482  52.983  0.00  0.00    +0.000 N 
ATOM      8  C   UNL     1      23.201   0.409  53.347  0.00  0.00    +0.000 A 
ATOM      9  C   UNL     1      23.677  -0.625  54.145  0.00  0.00    +0.000 A 
ATOM     10  C   UNL     1      25.039  -0.822  54.193  0.00  0.00    +0.000 A 
ATOM     11  C   UNL     1      25.820  -0.137  53.270  0.00  0.00    +0.000 A 
ATOM     12  C   UNL     1      25.422   1.067  52.708  0.00  0.00    +0.000 A 
ATOM     13  C   UNL     1      24.080   1.401  52.810  0.00  0.00    +0.000 A 
ATOM     14  C   UNL     1      23.556   2.693  52.282  0.00  0.00    +0.000 A 
ATOM     15  O   UNL     1      24.300   3.619  51.986  0.00  0.00    +0.000 OA
ATOM     16  C   UNL     1      22.067   2.807  52.188  0.00  0.00    +0.000 A 
ATOM     17  C   UNL     1      21.367   1.636  52.434  0.00  0.00    +0.000 A 
ENDROOT
BRANCH   1  18
ATOM     18  N   UNL     1      21.902   5.216  52.072  0.00  0.00    +0.000 N 
ATOM     19  H   UNL     1      22.286   5.528  52.924  0.00  0.00    +0.000 HD
BRANCH  18  20
ATOM     20  C   UNL     1      21.979   6.088  50.889  0.00  0.00    +0.000 C 
BRANCH  20  21
ATOM     21  C   UNL     1      23.426   6.438  50.423  0.00  0.00    +0.000 C 
BRANCH  21  22
ATOM     22  N   UNL     1      23.990   5.439  49.474  0.00  0.00    +0.000 N 
ATOM     23  H   UNL     1      24.535   4.780  50.028  0.00  0.00    +0.000 HD
BRANCH  22  24
ATOM     24  C   UNL     1      22.940   4.623  48.842  0.00  0.00    +0.000 C 
BRANCH  24  25
ATOM     25  C   UNL     1      23.194   3.110  48.662  0.00  0.00    +0.000 C 
BRANCH  25  27
ATOM     26  C   UNL     1      21.448   1.209  48.761  0.00  0.00    +0.000 C 
ATOM     27  C   UNL     1      22.133   2.281  47.926  0.00  0.00    +0.000 C 
ENDBRANCH  25  27
ENDBRANCH  24  25
ENDBRANCH  22  24
BRANCH  22  28
ATOM     28  C   UNL     1      24.995   6.002  48.550  0.00  0.00    +0.000 C 
BRANCH  28  29
ATOM     29  C   UNL     1      26.504   6.049  48.889  0.00  0.00    +0.000 C 
BRANCH  29  30
ATOM     30  C   UNL     1      27.334   4.771  48.754  0.00  0.00    +0.000 C 
ATOM     31  C   UNL     1      26.777   3.555  49.479  0.00  0.00    +0.000 C 
ENDBRANCH  29  30
ENDBRANCH  28  29
ENDBRANCH  22  28
ENDBRANCH  21  22
ENDBRANCH  20  21
ENDBRANCH  18  20
ENDBRANCH   1  18
BRANCH  11  32
ATOM     32  O   UNL     1      26.721  -0.903  52.576  0.00  0.00    +0.000 OA
ATOM     33  H   UNL     1      26.470  -1.746  52.254  0.00  0.00    +0.000 HD
ENDBRANCH  11  32
TORSDOF 11
ENDMDL
MODEL 3
REMARK VINA RESULT:    -6.913      2.757      5.573
REMARK INTER + INTRA:         -13.405
REMARK INTER:                 -12.637
REMARK INTRA:                  -0.767
REMARK UNBOUND:                -2.248
REMARK  Name = 
REMARK  13 active torsions:
REMARK  status: ('A' for Active; 'I' for Inactive)
REMARK    1  A    between atoms: C_1  and  C_2
REMARK    2  A    between atoms: C_2  and  C_3
REMARK    3  A    between atoms: C_3  and  C_4
REMARK    4  A    between atoms: C_4  and  N_5
REMARK    5  A    between atoms: N_5  and  C_6
REMARK    6  A    between atoms: N_5  and  C_10
REMARK    7  A    between atoms: C_6  and  C_7
REMARK    8  A    between atoms: C_7  and  C_8
REMARK    9  A    between atoms: C_8  and  C_9
REMARK   10  A    between atoms: C_10  and  C_11
REMARK   11  A    between atoms: C_11  and  N_12
REMARK   12  A    between atoms: N_12  and  C_13
REMARK   13  A    between atoms: C_23  and  O_24
REMARK                            x       y       z     vdW  Elec       q    Type
REMARK                         _______ _______ _______ _____ _____    ______ ____
ROOT
ATOM      1  C   UNL     1      23.938   3.797  50.711  0.00  0.00    +0.000 A 
ATOM      2  C   UNL     1      22.899   4.413  51.448  0.00  0.00    +0.000 A 
ATOM      3  C   UNL     1      22.830   5.811  51.665  0.00  0.00    +0.000 A 
ATOM      4  C   UNL     1      23.779   6.610  51.030  0.00  0.00    +0.000 A 
ATOM      5  N   UNL     1      23.923   7.977  50.909  0.00  0.00    +0.000 NA
ATOM      6  C   UNL     1      24.954   8.150  50.097  0.00  0.00    +0.000 A 
ATOM      7  N   UNL     1      25.471   6.958  49.710  0.00  0.00    +0.000 N 
ATOM      8  C   UNL     1      26.521   6.598  48.838  0.00  0.00    +0.000 A 
ATOM      9  C   UNL     1      27.063   7.517  47.948  0.00  0.00    +0.000 A 
ATOM     10  C   UNL     1      28.275   7.211  47.369  0.00  0.00    +0.000 A 
ATOM     11  C   UNL     1      28.979   6.130  47.887  0.00  0.00    +0.000 A 
ATOM     12  C   UNL     1      28.350   5.070  48.525  0.00  0.00    +0.000 A 
ATOM     13  C   UNL     1      27.047   5.273  48.953  0.00  0.00    +0.000 A 
ATOM     14  C   UNL     1      26.264   4.185  49.607  0.00  0.00    +0.000 A 
ATOM     15  O   UNL     1      26.618   3.014  49.556  0.00  0.00    +0.000 OA
ATOM     16  C   UNL     1      24.995   4.605  50.281  0.00  0.00    +0.000 A 
ATOM     17  C   UNL     1      24.796   5.974  50.367  0.00  0.00    +0.000 A 
ENDROOT
BRANCH   1  18
ATOM     18  N   UNL     1      23.915   2.444  50.381  0.00  0.00    +0.000 N 
ATOM     19  H   UNL     1      24.012   2.176  49.438  0.00  0.00    +0.000 HD
BRANCH  18  20
ATOM     20  C   UNL     1      23.749   1.405  51.410  0.00  0.00    +0.000 C 
BRANCH  20  21
ATOM     21  C   UNL     1      25.033   1.084  52.234  0.00  0.00    +0.000 C 
BRANCH  21  22
ATOM     22  N   UNL     1      24.782   0.143  53.360  0.00  0.00    +0.000 N 
ATOM     23  H   UNL     1      24.741   0.704  54.211  0.00  0.00    +0.000 HD
BRANCH  22  24
ATOM     24  C   UNL     1      23.457  -0.492  53.264  0.00  0.00    +0.000 C 
BRANCH  24  25
ATOM     25  C   UNL     1      22.808  -1.038  54.556  0.00  0.00    +0.000 C 
BRANCH  25  27
ATOM     26  C   UNL     1      20.717   0.452  54.277  0.00  0.00    +0.000 C 
ATOM     27  C   UNL     1      21.291  -0.884  54.724  0.00  0.00    +0.000 C 
ENDBRANCH  25  27
ENDBRANCH  24  25
ENDBRANCH  22  24
BRANCH  22  28
ATOM     28  C   UNL     1      25.907  -0.776  53.627  0.00  0.00    +0.000 C 
BRANCH  28  29
ATOM     29  C   UNL     1      27.269  -0.657  52.903  0.00  0.00    +0.000 C 
BRANCH  29  30
ATOM     30  C   UNL     1      28.489  -0.181  53.693  0.00  0.00    +0.000 C 
ATOM     31  C   UNL     1      29.748  -1.014  53.507  0.00  0.00    +0.000 C 
ENDBRANCH  29  30
ENDBRANCH  28  29
ENDBRANCH  22  28
ENDBRANCH  21  22
ENDBRANCH  20  21
ENDBRANCH  18  20
ENDBRANCH   1  18
BRANCH  11  32
ATOM     32  O   UNL     1      30.294   6.372  48.188  0.00  0.00    +0.000 OA
ATOM     33  H   UNL     1      30.841   6.821  47.575  0.00  0.00    +0.000 HD
ENDBRANCH  11  32
TORSDOF 11
ENDMDL
MODEL 4
REMARK VINA RESULT:    -6.902      0.472      2.913
REMARK INTER + INTRA:         -13.387
REMARK INTER:                 -11.518
REMARK INTRA:                  -1.868
REMARK UNBOUND:                -2.248
REMARK  Name = 
REMARK  13 active torsions:
REMARK  status: ('A' for Active; 'I' for Inactive)
REMARK    1  A    between atoms: C_1  and  C_2
REMARK    2  A    between atoms: C_2  and  C_3
REMARK    3  A    between atoms: C_3  and  C_4
REMARK    4  A    between atoms: C_4  and  N_5
REMARK    5  A    between atoms: N_5  and  C_6
REMARK    6  A    between atoms: N_5  and  C_10
REMARK    7  A    between atoms: C_6  and  C_7
REMARK    8  A    between atoms: C_7  and  C_8
REMARK    9  A    between atoms: C_8  and  C_9
REMARK   10  A    between atoms: C_10  and  C_11
REMARK   11  A    between atoms: C_11  and  N_12
REMARK   12  A    between atoms: N_12  and  C_13
REMARK   13  A    between atoms: C_23  and  O_24
REMARK                            x       y       z     vdW  Elec       q    Type
REMARK                         _______ _______ _______ _____ _____    ______ ____
ROOT
ATOM      1  C   UNL     1      22.379   0.665  53.031  0.00  0.00    +0.000 A 
ATOM      2  C   UNL     1      21.259  -0.157  52.761  0.00  0.00    +0.000 A 
ATOM      3  C   UNL     1      20.229   0.211  51.861  0.00  0.00    +0.000 A 
ATOM      4  C   UNL     1      20.394   1.393  51.142  0.00  0.00    +0.000 A 
ATOM      5  N   UNL     1      19.679   1.969  50.111  0.00  0.00    +0.000 NA
ATOM      6  C   UNL     1      20.376   3.038  49.758  0.00  0.00    +0.000 A 
ATOM      7  N   UNL     1      21.487   3.167  50.524  0.00  0.00    +0.000 N 
ATOM      8  C   UNL     1      22.557   4.088  50.526  0.00  0.00    +0.000 A 
ATOM      9  C   UNL     1      22.779   4.935  49.446  0.00  0.00    +0.000 A 
ATOM     10  C   UNL     1      23.615   6.013  49.638  0.00  0.00    +0.000 A 
ATOM     11  C   UNL     1      23.988   6.312  50.944  0.00  0.00    +0.000 A 
ATOM     12  C   UNL     1      24.033   5.350  51.943  0.00  0.00    +0.000 A 
ATOM     13  C   UNL     1      23.361   4.160  51.707  0.00  0.00    +0.000 A 
ATOM     14  C   UNL     1      23.385   3.042  52.694  0.00  0.00    +0.000 A 
ATOM     15  O   UNL     1      24.195   3.008  53.611  0.00  0.00    +0.000 OA
ATOM     16  C   UNL     1      22.396   1.943  52.464  0.00  0.00    +0.000 A 
ATOM     17  C   UNL     1      21.463   2.185  51.467  0.00  0.00    +0.000 A 
ENDROOT
BRANCH   1  18
ATOM     18  N   UNL     1      23.454   0.229  53.802  0.00  0.00    +0.000 N 
ATOM     19  H   UNL     1      23.434   0.366  54.777  0.00  0.00    +0.000 HD
BRANCH  18  20
ATOM     20  C   UNL     1      24.619  -0.431  53.191  0.00  0.00    +0.000 C 
BRANCH  20  21
ATOM     21  C   UNL     1      26.001   0.018  53.758  0.00  0.00    +0.000 C 
BRANCH  21  22
ATOM     22  N   UNL     1      26.946   0.467  52.699  0.00  0.00    +0.000 N 
ATOM     23  H   UNL     1      27.370  -0.372  52.305  0.00  0.00    +0.000 HD
BRANCH  22  24
ATOM     24  C   UNL     1      26.249   1.103  51.569  0.00  0.00    +0.000 C 
BRANCH  24  25
ATOM     25  C   UNL     1      26.732   2.492  51.095  0.00  0.00    +0.000 C 
BRANCH  25  27
ATOM     26  C   UNL     1      26.881   4.293  49.249  0.00  0.00    +0.000 C 
ATOM     27  C   UNL     1      26.231   3.008  49.740  0.00  0.00    +0.000 C 
ENDBRANCH  25  27
ENDBRANCH  24  25
ENDBRANCH  22  24
BRANCH  22  28
ATOM     28  C   UNL     1      28.112   1.209  53.222  0.00  0.00    +0.000 C 
BRANCH  28  29
ATOM     29  C   UNL     1      29.146   0.569  54.178  0.00  0.00    +0.000 C 
BRANCH  29  30
ATOM     30  C   UNL     1      30.077  -0.519  53.643  0.00  0.00    +0.000 C 
ATOM     31  C   UNL     1      29.409  -1.850  53.332  0.00  0.00    +0.000 C 
ENDBRANCH  29  30
ENDBRANCH  28  29
ENDBRANCH  22  28
ENDBRANCH  21  22
ENDBRANCH  20  21
ENDBRANCH  18  20
ENDBRANCH   1  18
BRANCH  11  32
ATOM     32  O   UNL     1      23.825   7.620  51.319  0.00  0.00    +0.000 OA
ATOM     33  H   UNL     1      23.021   7.899  51.709  0.00  0.00    +0.000 HD
ENDBRANCH  11  32
TORSDOF 11
ENDMDL
MODEL 5
REMARK VINA RESULT:    -6.847      1.994      5.946
REMARK INTER + INTRA:         -13.297
REMARK INTER:                 -11.476
REMARK INTRA:                  -1.821
REMARK UNBOUND:                -2.248
REMARK  Name = 
REMARK  13 active torsions:
REMARK  status: ('A' for Active; 'I' for Inactive)
REMARK    1  A    between atoms: C_1  and  C_2
REMARK    2  A    between atoms: C_2  and  C_3
REMARK    3  A    between atoms: C_3  and  C_4
REMARK    4  A    between atoms: C_4  and  N_5
REMARK    5  A    between atoms: N_5  and  C_6
REMARK    6  A    between atoms: N_5  and  C_10
REMARK    7  A    between atoms: C_6  and  C_7
REMARK    8  A    between atoms: C_7  and  C_8
REMARK    9  A    between atoms: C_8  and  C_9
REMARK   10  A    between atoms: C_10  and  C_11
REMARK   11  A    between atoms: C_11  and  N_12
REMARK   12  A    between atoms: N_12  and  C_13
REMARK   13  A    between atoms: C_23  and  O_24
REMARK                            x       y       z     vdW  Elec       q    Type
REMARK                         _______ _______ _______ _____ _____    ______ ____
ROOT
ATOM      1  C   UNL     1      21.199   1.048  52.129  0.00  0.00    +0.000 A 
ATOM      2  C   UNL     1      20.044   0.391  52.618  0.00  0.00    +0.000 A 
ATOM      3  C   UNL     1      20.096  -0.662  53.565  0.00  0.00    +0.000 A 
ATOM      4  C   UNL     1      21.340  -0.981  54.105  0.00  0.00    +0.000 A 
ATOM      5  N   UNL     1      21.730  -1.830  55.121  0.00  0.00    +0.000 NA
ATOM      6  C   UNL     1      23.032  -1.635  55.260  0.00  0.00    +0.000 A 
ATOM      7  N   UNL     1      23.481  -0.714  54.372  0.00  0.00    +0.000 N 
ATOM      8  C   UNL     1      24.747  -0.133  54.141  0.00  0.00    +0.000 A 
ATOM      9  C   UNL     1      25.771  -0.245  55.074  0.00  0.00    +0.000 A 
ATOM     10  C   UNL     1      27.051   0.051  54.659  0.00  0.00    +0.000 A 
ATOM     11  C   UNL     1      27.263   0.210  53.294  0.00  0.00    +0.000 A 
ATOM     12  C   UNL     1      26.257   0.616  52.428  0.00  0.00    +0.000 A 
ATOM     13  C   UNL     1      24.951   0.518  52.884  0.00  0.00    +0.000 A 
ATOM     14  C   UNL     1      23.800   0.971  52.052  0.00  0.00    +0.000 A 
ATOM     15  O   UNL     1      23.955   1.683  51.068  0.00  0.00    +0.000 OA
ATOM     16  C   UNL     1      22.444   0.548  52.523  0.00  0.00    +0.000 A 
ATOM     17  C   UNL     1      22.438  -0.359  53.571  0.00  0.00    +0.000 A 
ENDROOT
BRANCH   1  18
ATOM     18  N   UNL     1      21.125   2.174  51.314  0.00  0.00    +0.000 N 
ATOM     19  H   UNL     1      21.327   2.089  50.354  0.00  0.00    +0.000 HD
BRANCH  18  20
ATOM     20  C   UNL     1      20.754   3.491  51.856  0.00  0.00    +0.000 C 
BRANCH  20  21
ATOM     21  C   UNL     1      21.944   4.478  52.061  0.00  0.00    +0.000 C 
BRANCH  21  22
ATOM     22  N   UNL     1      22.853   4.547  50.884  0.00  0.00    +0.000 N 
ATOM     23  H   UNL     1      22.991   3.590  50.560  0.00  0.00    +0.000 HD
BRANCH  22  24
ATOM     24  C   UNL     1      22.231   5.243  49.746  0.00  0.00    +0.000 C 
BRANCH  24  25
ATOM     25  C   UNL     1      21.852   4.417  48.496  0.00  0.00    +0.000 C 
BRANCH  25  27
ATOM     26  C   UNL     1      22.286   1.943  47.896  0.00  0.00    +0.000 C 
ATOM     27  C   UNL     1      22.843   3.354  48.003  0.00  0.00    +0.000 C 
ENDBRANCH  25  27
ENDBRANCH  24  25
ENDBRANCH  22  24
BRANCH  22  28
ATOM     28  C   UNL     1      24.224   4.981  51.219  0.00  0.00    +0.000 C 
BRANCH  28  29
ATOM     29  C   UNL     1      25.253   5.396  50.141  0.00  0.00    +0.000 C 
BRANCH  29  30
ATOM     30  C   UNL     1      26.149   4.324  49.518  0.00  0.00    +0.000 C 
ATOM     31  C   UNL     1      27.356   4.849  48.755  0.00  0.00    +0.000 C 
ENDBRANCH  29  30
ENDBRANCH  28  29
ENDBRANCH  22  28
ENDBRANCH  21  22
ENDBRANCH  20  21
ENDBRANCH  18  20
ENDBRANCH   1  18
BRANCH  11  32
ATOM     32  O   UNL     1      28.310  -0.504  52.773  0.00  0.00    +0.000 OA
ATOM     33  H   UNL     1      28.190  -1.399  52.525  0.00  0.00    +0.000 HD
ENDBRANCH  11  32
TORSDOF 11
ENDMDL
MODEL 6
REMARK VINA RESULT:    -6.755      2.110      6.119
REMARK INTER + INTRA:         -13.149
REMARK INTER:                 -12.181
REMARK INTRA:                  -0.968
REMARK UNBOUND:                -2.248
REMARK  Name = 
REMARK  13 active torsions:
REMARK  status: ('A' for Active; 'I' for Inactive)
REMARK    1  A    between atoms: C_1  and  C_2
REMARK    2  A    between atoms: C_2  and  C_3
REMARK    3  A    between atoms: C_3  and  C_4
REMARK    4  A    between atoms: C_4  and  N_5
REMARK    5  A    between atoms: N_5  and  C_6
REMARK    6  A    between atoms: N_5  and  C_10
REMARK    7  A    between atoms: C_6  and  C_7
REMARK    8  A    between atoms: C_7  and  C_8
REMARK    9  A    between atoms: C_8  and  C_9
REMARK   10  A    between atoms: C_10  and  C_11
REMARK   11  A    between atoms: C_11  and  N_12
REMARK   12  A    between atoms: N_12  and  C_13
REMARK   13  A    between atoms: C_23  and  O_24
REMARK                            x       y       z     vdW  Elec       q    Type
REMARK                         _______ _______ _______ _____ _____    ______ ____
ROOT
ATOM      1  C   UNL     1      22.906   1.152  51.836  0.00  0.00    +0.000 A 
ATOM      2  C   UNL     1      21.688   0.587  52.283  0.00  0.00    +0.000 A 
ATOM      3  C   UNL     1      21.615  -0.355  53.339  0.00  0.00    +0.000 A 
ATOM      4  C   UNL     1      22.792  -0.647  54.025  0.00  0.00    +0.000 A 
ATOM      5  N   UNL     1      23.056  -1.387  55.159  0.00  0.00    +0.000 NA
ATOM      6  C   UNL     1      24.347  -1.214  55.397  0.00  0.00    +0.000 A 
ATOM      7  N   UNL     1      24.908  -0.411  54.461  0.00  0.00    +0.000 N 
ATOM      8  C   UNL     1      26.211   0.105  54.287  0.00  0.00    +0.000 A 
ATOM      9  C   UNL     1      27.142   0.070  55.318  0.00  0.00    +0.000 A 
ATOM     10  C   UNL     1      28.464   0.281  54.995  0.00  0.00    +0.000 A 
ATOM     11  C   UNL     1      28.805   0.281  53.647  0.00  0.00    +0.000 A 
ATOM     12  C   UNL     1      27.897   0.615  52.652  0.00  0.00    +0.000 A 
ATOM     13  C   UNL     1      26.553   0.606  52.991  0.00  0.00    +0.000 A 
ATOM     14  C   UNL     1      25.499   0.995  52.011  0.00  0.00    +0.000 A 
ATOM     15  O   UNL     1      25.768   1.587  50.974  0.00  0.00    +0.000 OA
ATOM     16  C   UNL     1      24.091   0.665  52.396  0.00  0.00    +0.000 A 
ATOM     17  C   UNL     1      23.956  -0.119  53.532  0.00  0.00    +0.000 A 
ENDROOT
BRANCH   1  18
ATOM     18  N   UNL     1      22.949   2.182  50.900  0.00  0.00    +0.000 N 
ATOM     19  H   UNL     1      23.237   1.985  49.979  0.00  0.00    +0.000 HD
BRANCH  18  20
ATOM     20  C   UNL     1      22.574   3.560  51.255  0.00  0.00    +0.000 C 
BRANCH  20  21
ATOM     21  C   UNL     1      23.637   4.335  52.094  0.00  0.00    +0.000 C 
BRANCH  21  22
ATOM     22  N   UNL     1      24.509   5.209  51.263  0.00  0.00    +0.000 N 
ATOM     23  H   UNL     1      25.443   5.168  51.670  0.00  0.00    +0.000 HD
BRANCH  22  24
ATOM     24  C   UNL     1      24.672   4.688  49.896  0.00  0.00    +0.000 C 
BRANCH  24  25
ATOM     25  C   UNL     1      25.816   5.253  49.025  0.00  0.00    +0.000 C 
BRANCH  25  27
ATOM     26  C   UNL     1      28.316   5.264  48.377  0.00  0.00    +0.000 C 
ATOM     27  C   UNL     1      27.167   4.524  49.044  0.00  0.00    +0.000 C 
ENDBRANCH  25  27
ENDBRANCH  24  25
ENDBRANCH  22  24
BRANCH  22  28
ATOM     28  C   UNL     1      24.172   6.644  51.357  0.00  0.00    +0.000 C 
BRANCH  28  29
ATOM     29  C   UNL     1      22.789   7.203  50.948  0.00  0.00    +0.000 C 
BRANCH  29  30
ATOM     30  C   UNL     1      22.686   8.090  49.707  0.00  0.00    +0.000 C 
ATOM     31  C   UNL     1      24.008   8.636  49.186  0.00  0.00    +0.000 C 
ENDBRANCH  29  30
ENDBRANCH  28  29
ENDBRANCH  22  28
ENDBRANCH  21  22
ENDBRANCH  20  21
ENDBRANCH  18  20
ENDBRANCH   1  18
BRANCH  11  32
ATOM     32  O   UNL     1      29.866  -0.516  53.307  0.00  0.00    +0.000 OA
ATOM     33  H   UNL     1      29.718  -1.342  52.891  0.00  0.00    +0.000 HD
ENDBRANCH  11  32
TORSDOF 11
ENDMDL
MODEL 7
REMARK VINA RESULT:    -6.739      2.075      6.000
REMARK INTER + INTRA:         -13.123
REMARK INTER:                 -10.480
REMARK INTRA:                  -2.643
REMARK UNBOUND:                -2.248
REMARK  Name = 
REMARK  13 active torsions:
REMARK  status: ('A' for Active; 'I' for Inactive)
REMARK    1  A    between atoms: C_1  and  C_2
REMARK    2  A    between atoms: C_2  and  C_3
REMARK    3  A    between atoms: C_3  and  C_4
REMARK    4  A    between atoms: C_4  and  N_5
REMARK    5  A    between atoms: N_5  and  C_6
REMARK    6  A    between atoms: N_5  and  C_10
REMARK    7  A    between atoms: C_6  and  C_7
REMARK    8  A    between atoms: C_7  and  C_8
REMARK    9  A    between atoms: C_8  and  C_9
REMARK   10  A    between atoms: C_10  and  C_11
REMARK   11  A    between atoms: C_11  and  N_12
REMARK   12  A    between atoms: N_12  and  C_13
REMARK   13  A    between atoms: C_23  and  O_24
REMARK                            x       y       z     vdW  Elec       q    Type
REMARK                         _______ _______ _______ _____ _____    ______ ____
ROOT
ATOM      1  C   UNL     1      22.889   5.769  50.479  0.00  0.00    +0.000 A 
ATOM      2  C   UNL     1      23.220   6.576  49.364  0.00  0.00    +0.000 A 
ATOM      3  C   UNL     1      24.471   6.504  48.703  0.00  0.00    +0.000 A 
ATOM      4  C   UNL     1      25.363   5.518  49.117  0.00  0.00    +0.000 A 
ATOM      5  N   UNL     1      26.575   5.083  48.621  0.00  0.00    +0.000 NA
ATOM      6  C   UNL     1      26.906   4.041  49.367  0.00  0.00    +0.000 A 
ATOM      7  N   UNL     1      25.965   3.807  50.315  0.00  0.00    +0.000 N 
ATOM      8  C   UNL     1      25.823   2.815  51.310  0.00  0.00    +0.000 A 
ATOM      9  C   UNL     1      26.583   1.652  51.280  0.00  0.00    +0.000 A 
ATOM     10  C   UNL     1      26.637   0.892  52.428  0.00  0.00    +0.000 A 
ATOM     11  C   UNL     1      26.127   1.452  53.594  0.00  0.00    +0.000 A 
ATOM     12  C   UNL     1      25.137   2.424  53.580  0.00  0.00    +0.000 A 
ATOM     13  C   UNL     1      24.914   3.084  52.381  0.00  0.00    +0.000 A 
ATOM     14  C   UNL     1      23.842   4.112  52.245  0.00  0.00    +0.000 A 
ATOM     15  O   UNL     1      22.951   4.230  53.077  0.00  0.00    +0.000 OA
ATOM     16  C   UNL     1      23.892   4.952  51.008  0.00  0.00    +0.000 A 
ATOM     17  C   UNL     1      25.028   4.791  50.229  0.00  0.00    +0.000 A 
ENDROOT
BRANCH   1  18
ATOM     18  N   UNL     1      21.608   5.745  51.026  0.00  0.00    +0.000 N 
ATOM     19  H   UNL     1      21.388   6.359  51.763  0.00  0.00    +0.000 HD
BRANCH  18  20
ATOM     20  C   UNL     1      20.577   4.823  50.526  0.00  0.00    +0.000 C 
BRANCH  20  21
ATOM     21  C   UNL     1      20.002   3.840  51.592  0.00  0.00    +0.000 C 
BRANCH  21  22
ATOM     22  N   UNL     1      20.691   2.520  51.599  0.00  0.00    +0.000 N 
ATOM     23  H   UNL     1      21.628   2.678  51.970  0.00  0.00    +0.000 HD
BRANCH  22  24
ATOM     24  C   UNL     1      20.068   1.575  52.540  0.00  0.00    +0.000 C 
BRANCH  24  25
ATOM     25  C   UNL     1      20.821   0.270  52.879  0.00  0.00    +0.000 C 
BRANCH  25  27
ATOM     26  C   UNL     1      23.172  -0.756  53.183  0.00  0.00    +0.000 C 
ATOM     27  C   UNL     1      22.217   0.383  53.507  0.00  0.00    +0.000 C 
ENDBRANCH  25  27
ENDBRANCH  24  25
ENDBRANCH  22  24
BRANCH  22  28
ATOM     28  C   UNL     1      20.959   1.985  50.249  0.00  0.00    +0.000 C 
BRANCH  28  29
ATOM     29  C   UNL     1      22.388   1.867  49.667  0.00  0.00    +0.000 C 
BRANCH  29  30
ATOM     30  C   UNL     1      22.593   2.044  48.162  0.00  0.00    +0.000 C 
ATOM     31  C   UNL     1      22.341   3.448  47.633  0.00  0.00    +0.000 C 
ENDBRANCH  29  30
ENDBRANCH  28  29
ENDBRANCH  22  28
ENDBRANCH  21  22
ENDBRANCH  20  21
ENDBRANCH  18  20
ENDBRANCH   1  18
BRANCH  11  32
ATOM     32  O   UNL     1      26.952   1.390  54.687  0.00  0.00    +0.000 OA
ATOM     33  H   UNL     1      27.264   2.179  55.084  0.00  0.00    +0.000 HD
ENDBRANCH  11  32
TORSDOF 11
ENDMDL
MODEL 8
REMARK VINA RESULT:    -6.665      2.242      6.565
REMARK INTER + INTRA:         -13.004
REMARK INTER:                 -11.715
REMARK INTRA:                  -1.289
REMARK UNBOUND:                -2.248
REMARK  Name = 
REMARK  13 active torsions:
REMARK  status: ('A' for Active; 'I' for Inactive)
REMARK    1  A    between atoms: C_1  and  C_2
REMARK    2  A    between atoms: C_2  and  C_3
REMARK    3  A    between atoms: C_3  and  C_4
REMARK    4  A    between atoms: C_4  and  N_5
REMARK    5  A    between atoms: N_5  and  C_6
REMARK    6  A    between atoms: N_5  and  C_10
REMARK    7  A    between atoms: C_6  and  C_7
REMARK    8  A    between atoms: C_7  and  C_8
REMARK    9  A    between atoms: C_8  and  C_9
REMARK   10  A    between atoms: C_10  and  C_11
REMARK   11  A    between atoms: C_11  and  N_12
REMARK   12  A    between atoms: N_12  and  C_13
REMARK   13  A    between atoms: C_23  and  O_24
REMARK                            x       y       z     vdW  Elec       q    Type
REMARK                         _______ _______ _______ _____ _____    ______ ____
ROOT
ATOM      1  C   UNL     1      23.816   2.635  51.236  0.00  0.00    +0.000 A 
ATOM      2  C   UNL     1      22.481   2.165  51.263  0.00  0.00    +0.000 A 
ATOM      3  C   UNL     1      22.080   1.018  51.993  0.00  0.00    +0.000 A 
ATOM      4  C   UNL     1      23.036   0.399  52.796  0.00  0.00    +0.000 A 
ATOM      5  N   UNL     1      22.962  -0.623  53.719  0.00  0.00    +0.000 NA
ATOM      6  C   UNL     1      24.174  -0.706  54.247  0.00  0.00    +0.000 A 
ATOM      7  N   UNL     1      25.007   0.207  53.691  0.00  0.00    +0.000 N 
ATOM      8  C   UNL     1      26.356   0.552  53.924  0.00  0.00    +0.000 A 
ATOM      9  C   UNL     1      27.018   0.131  55.072  0.00  0.00    +0.000 A 
ATOM     10  C   UNL     1      28.392   0.217  55.088  0.00  0.00    +0.000 A 
ATOM     11  C   UNL     1      29.032   0.491  53.884  0.00  0.00    +0.000 A 
ATOM     12  C   UNL     1      28.413   1.186  52.855  0.00  0.00    +0.000 A 
ATOM     13  C   UNL     1      27.032   1.293  52.905  0.00  0.00    +0.000 A 
ATOM     14  C   UNL     1      26.272   2.059  51.875  0.00  0.00    +0.000 A 
ATOM     15  O   UNL     1      26.827   2.837  51.109  0.00  0.00    +0.000 OA
ATOM     16  C   UNL     1      24.790   1.857  51.869  0.00  0.00    +0.000 A 
ATOM     17  C   UNL     1      24.326   0.852  52.704  0.00  0.00    +0.000 A 
ENDROOT
BRANCH   1  18
ATOM     18  N   UNL     1      24.167   3.842  50.637  0.00  0.00    +0.000 N 
ATOM     19  H   UNL     1      24.686   3.832  49.800  0.00  0.00    +0.000 HD
BRANCH  18  20
ATOM     20  C   UNL     1      23.780   5.133  51.228  0.00  0.00    +0.000 C 
BRANCH  20  21
ATOM     21  C   UNL     1      23.226   6.181  50.213  0.00  0.00    +0.000 C 
BRANCH  21  22
ATOM     22  N   UNL     1      23.797   6.027  48.847  0.00  0.00    +0.000 N 
ATOM     23  H   UNL     1      24.382   5.192  48.863  0.00  0.00    +0.000 HD
BRANCH  22  24
ATOM     24  C   UNL     1      22.759   5.740  47.843  0.00  0.00    +0.000 C 
BRANCH  24  25
ATOM     25  C   UNL     1      21.724   4.635  48.151  0.00  0.00    +0.000 C 
BRANCH  25  27
ATOM     26  C   UNL     1      22.497   2.224  47.638  0.00  0.00    +0.000 C 
ATOM     27  C   UNL     1      21.661   3.422  47.213  0.00  0.00    +0.000 C 
ENDBRANCH  25  27
ENDBRANCH  24  25
ENDBRANCH  22  24
BRANCH  22  28
ATOM     28  C   UNL     1      24.753   7.091  48.481  0.00  0.00    +0.000 C 
BRANCH  28  29
ATOM     29  C   UNL     1      26.268   6.827  48.311  0.00  0.00    +0.000 C 
BRANCH  29  30
ATOM     30  C   UNL     1      26.839   5.477  48.749  0.00  0.00    +0.000 C 
ATOM     31  C   UNL     1      28.306   5.252  48.412  0.00  0.00    +0.000 C 
ENDBRANCH  29  30
ENDBRANCH  28  29
ENDBRANCH  22  28
ENDBRANCH  21  22
ENDBRANCH  20  21
ENDBRANCH  18  20
ENDBRANCH   1  18
BRANCH  11  32
ATOM     32  O   UNL     1      30.067  -0.348  53.562  0.00  0.00    +0.000 OA
ATOM     33  H   UNL     1      30.450  -0.314  52.708  0.00  0.00    +0.000 HD
ENDBRANCH  11  32
TORSDOF 11
ENDMDL
MODEL 9
REMARK VINA RESULT:    -6.622      2.377      6.687
REMARK INTER + INTRA:         -12.934
REMARK INTER:                 -11.892
REMARK INTRA:                  -1.043
REMARK UNBOUND:                -2.248
REMARK  Name = 
REMARK  13 active torsions:
REMARK  status: ('A' for Active; 'I' for Inactive)
REMARK    1  A    between atoms: C_1  and  C_2
REMARK    2  A    between atoms: C_2  and  C_3
REMARK    3  A    between atoms: C_3  and  C_4
REMARK    4  A    between atoms: C_4  and  N_5
REMARK    5  A    between atoms: N_5  and  C_6
REMARK    6  A    between atoms: N_5  and  C_10
REMARK    7  A    between atoms: C_6  and  C_7
REMARK    8  A    between atoms: C_7  and  C_8
REMARK    9  A    between atoms: C_8  and  C_9
REMARK   10  A    between atoms: C_10  and  C_11
REMARK   11  A    between atoms: C_11  and  N_12
REMARK   12  A    between atoms: N_12  and  C_13
REMARK   13  A    between atoms: C_23  and  O_24
REMARK                            x       y       z     vdW  Elec       q    Type
REMARK                         _______ _______ _______ _____ _____    ______ ____
ROOT
ATOM      1  C   UNL     1      26.023   2.243  51.603  0.00  0.00    +0.000 A 
ATOM      2  C   UNL     1      27.328   2.315  52.148  0.00  0.00    +0.000 A 
ATOM      3  C   UNL     1      27.691   1.694  53.369  0.00  0.00    +0.000 A 
ATOM      4  C   UNL     1      26.736   0.895  53.994  0.00  0.00    +0.000 A 
ATOM      5  N   UNL     1      26.788   0.056  55.088  0.00  0.00    +0.000 NA
ATOM      6  C   UNL     1      25.599  -0.522  55.144  0.00  0.00    +0.000 A 
ATOM      7  N   UNL     1      24.797  -0.077  54.145  0.00  0.00    +0.000 N 
ATOM      8  C   UNL     1      23.483  -0.400  53.744  0.00  0.00    +0.000 A 
ATOM      9  C   UNL     1      22.848  -1.544  54.215  0.00  0.00    +0.000 A 
ATOM     10  C   UNL     1      21.483  -1.632  54.054  0.00  0.00    +0.000 A 
ATOM     11  C   UNL     1      20.809  -0.485  53.651  0.00  0.00    +0.000 A 
ATOM     12  C   UNL     1      21.423   0.518  52.914  0.00  0.00    +0.000 A 
ATOM     13  C   UNL     1      22.809   0.527  52.888  0.00  0.00    +0.000 A 
ATOM     14  C   UNL     1      23.567   1.532  52.089  0.00  0.00    +0.000 A 
ATOM     15  O   UNL     1      23.027   2.209  51.224  0.00  0.00    +0.000 OA
ATOM     16  C   UNL     1      25.033   1.623  52.372  0.00  0.00    +0.000 A 
ATOM     17  C   UNL     1      25.472   0.891  53.464  0.00  0.00    +0.000 A 
ENDROOT
BRANCH   1  18
ATOM     18  N   UNL     1      25.719   2.731  50.335  0.00  0.00    +0.000 N 
ATOM     19  H   UNL     1      25.012   2.293  49.807  0.00  0.00    +0.000 HD
BRANCH  18  20
ATOM     20  C   UNL     1      26.430   3.887  49.766  0.00  0.00    +0.000 C 
BRANCH  20  21
ATOM     21  C   UNL     1      25.521   5.094  49.380  0.00  0.00    +0.000 C 
BRANCH  21  22
ATOM     22  N   UNL     1      25.745   6.289  50.240  0.00  0.00    +0.000 N 
ATOM     23  H   UNL     1      26.428   6.021  50.947  0.00  0.00    +0.000 HD
BRANCH  22  24
ATOM     24  C   UNL     1      26.382   7.391  49.499  0.00  0.00    +0.000 C 
BRANCH  24  25
ATOM     25  C   UNL     1      26.762   7.159  48.020  0.00  0.00    +0.000 C 
BRANCH  25  27
ATOM     26  C   UNL     1      29.011   5.890  48.043  0.00  0.00    +0.000 C 
ATOM     27  C   UNL     1      28.251   7.147  47.649  0.00  0.00    +0.000 C 
ENDBRANCH  25  27
ENDBRANCH  24  25
ENDBRANCH  22  24
BRANCH  22  28
ATOM     28  C   UNL     1      24.567   6.667  51.047  0.00  0.00    +0.000 C 
BRANCH  28  29
ATOM     29  C   UNL     1      23.405   5.687  51.335  0.00  0.00    +0.000 C 
BRANCH  29  30
ATOM     30  C   UNL     1      21.969   6.144  51.072  0.00  0.00    +0.000 C 
ATOM     31  C   UNL     1      20.950   5.024  50.916  0.00  0.00    +0.000 C 
ENDBRANCH  29  30
ENDBRANCH  28  29
ENDBRANCH  22  28
ENDBRANCH  21  22
ENDBRANCH  20  21
ENDBRANCH  18  20
ENDBRANCH   1  18
BRANCH  11  32
ATOM     32  O   UNL     1      19.713  -0.150  54.403  0.00  0.00    +0.000 OA
ATOM     33  H   UNL     1      18.910  -0.621  54.297  0.00  0.00    +0.000 HD
ENDBRANCH  11  32
TORSDOF 11
ENDMDL
