MODEL 1
REMARK VINA RESULT:    -8.806      0.000      0.000
REMARK INTER + INTRA:         -12.785
REMARK INTER:                 -11.895
REMARK INTRA:                  -0.890
REMARK UNBOUND:                -0.890
REMARK  Name = 
REMARK  8 active torsions:
REMARK  status: ('A' for Active; 'I' for Inactive)
REMARK    1  A    between atoms: C_1  and  O_2
REMARK    2  A    between atoms: O_2  and  C_3
REMARK    3  A    between atoms: C_6  and  C_7
REMARK    4  A    between atoms: C_10  and  N_11
REMARK    5  A    between atoms: C_13  and  C_14
REMARK    6  A    between atoms: C_14  and  N_15
REMARK    7  A    between atoms: C_16  and  C_17
REMARK    8  A    between atoms: C_23  and  C_24
REMARK                            x       y       z     vdW  Elec       q    Type
REMARK                         _______ _______ _______ _____ _____    ______ ____
ROOT
ATOM      1  C   UNL     1      23.209   0.394  53.091  0.00  0.00    +0.000 A 
ATOM      2  C   UNL     1      22.505  -0.441  53.972  0.00  0.00    +0.000 A 
ATOM      3  C   UNL     1      21.137  -0.672  53.810  0.00  0.00    +0.000 A 
ATOM      4  C   UNL     1      20.436  -0.096  52.752  0.00  0.00    +0.000 A 
ATOM      5  C   UNL     1      21.144   0.735  51.869  0.00  0.00    +0.000 A 
ATOM      6  C   UNL     1      22.528   0.991  52.018  0.00  0.00    +0.000 A 
ENDROOT
BRANCH   1  10
ATOM      7  C   UNL     1      27.840   0.169  53.386  0.00  0.00    +0.000 A 
ATOM      8  C   UNL     1      26.833  -0.699  53.237  0.00  0.00    +0.000 A 
ATOM      9  C   UNL     1      25.413  -0.515  53.091  0.00  0.00    +0.000 A 
ATOM     10  C   UNL     1      24.661   0.568  53.335  0.00  0.00    +0.000 A 
ATOM     11  C   UNL     1      25.152   1.842  53.809  0.00  0.00    +0.000 A 
ATOM     12  C   UNL     1      26.405   2.297  53.867  0.00  0.00    +0.000 A 
ATOM     13  C   UNL     1      27.687   1.659  53.497  0.00  0.00    +0.000 A 
ATOM     14  O   UNL     1      28.646   2.416  53.336  0.00  0.00    +0.000 OA
BRANCH   7  16
ATOM     15  C   UNL     1      29.176  -1.824  53.304  0.00  0.00    +0.000 C 
ATOM     16  O   UNL     1      29.119  -0.401  53.335  0.00  0.00    +0.000 OA
ENDBRANCH   7  16
ENDBRANCH   1  10
BRANCH   4  17
ATOM     17  N   UNL     1      19.065  -0.368  52.540  0.00  0.00    +0.000 N 
ATOM     18  C   UNL     1      18.211   0.467  51.753  0.00  0.00    +0.000 C 
ATOM     19  C   UNL     1      16.987  -0.398  51.548  0.00  0.00    +0.000 C 
ATOM     20  O   UNL     1      17.035  -1.341  52.630  0.00  0.00    +0.000 OA
ATOM     21  C   UNL     1      18.326  -1.403  53.089  0.00  0.00    +0.000 C 
ATOM     22  O   UNL     1      18.680  -2.247  53.896  0.00  0.00    +0.000 OA
BRANCH  19  23
ATOM     23  C   UNL     1      15.698   0.417  51.618  0.00  0.00    +0.000 C 
BRANCH  23  24
ATOM     24  N   UNL     1      15.948   1.838  51.769  0.00  0.00    +0.000 N 
ATOM     25  C   UNL     1      15.134   2.633  52.538  0.00  0.00    +0.000 C 
ATOM     26  C   UNL     1      15.555   4.077  52.604  0.00  0.00    +0.000 C 
ATOM     27  O   UNL     1      14.138   2.211  53.119  0.00  0.00    +0.000 OA
ATOM     28  H   UNL     1      16.719   2.242  51.309  0.00  0.00    +0.000 HD
ENDBRANCH  23  24
ENDBRANCH  19  23
ENDBRANCH   4  17
BRANCH   6  29
ATOM     29  C   UNL     1      23.178   1.886  50.988  0.00  0.00    +0.000 C 
ATOM     30  F   UNL     1      24.471   1.610  50.675  0.00  0.00    +0.000 F 
ATOM     31  F   UNL     1      22.504   1.849  49.801  0.00  0.00    +0.000 F 
ATOM     32  F   UNL     1      23.164   3.195  51.371  0.00  0.00    +0.000 F 
ENDBRANCH   6  29
TORSDOF 6
ENDMDL
MODEL 2
REMARK VINA RESULT:    -8.593      2.124      2.555
REMARK INTER + INTRA:         -12.497
REMARK INTER:                 -11.998
REMARK INTRA:                  -0.499
REMARK UNBOUND:                -0.890
REMARK  Name = 
REMARK  8 active torsions:
REMARK  status: ('A' for Active; 'I' for Inactive)
REMARK    1  A    between atoms: C_1  and  O_2
REMARK    2  A    between atoms: O_2  and  C_3
REMARK    3  A    between atoms: C_6  and  C_7
REMARK    4  A    between atoms: C_10  and  N_11
REMARK    5  A    between atoms: C_13  and  C_14
REMARK    6  A    between atoms: C_14  and  N_15
REMARK    7  A    between atoms: C_16  and  C_17
REMARK    8  A    between atoms: C_23  and  C_24
REMARK                            x       y       z     vdW  Elec       q    Type
REMARK                         _______ _______ _______ _____ _____    ______ ____
ROOT
ATOM      1  C   UNL     1      23.280   0.479  52.553  0.00  0.00    +0.000 A 
ATOM      2  C   UNL     1      22.916   1.132  51.365  0.00  0.00    +0.000 A 
ATOM      3  C   UNL     1      21.597   1.113  50.905  0.00  0.00    +0.000 A 
ATOM      4  C   UNL     1      20.598   0.460  51.626  0.00  0.00    +0.000 A 
ATOM      5  C   UNL     1      20.965  -0.189  52.816  0.00  0.00    +0.000 A 
ATOM      6  C   UNL     1      22.295  -0.190  53.297  0.00  0.00    +0.000 A 
ENDROOT
BRANCH   1  10
ATOM      7  C   UNL     1      27.845   0.050  53.296  0.00  0.00    +0.000 A 
ATOM      8  C   UNL     1      26.841  -0.754  52.927  0.00  0.00    +0.000 A 
ATOM      9  C   UNL     1      25.450  -0.501  52.660  0.00  0.00    +0.000 A 
ATOM     10  C   UNL     1      24.700   0.567  52.968  0.00  0.00    +0.000 A 
ATOM     11  C   UNL     1      25.164   1.749  53.658  0.00  0.00    +0.000 A 
ATOM     12  C   UNL     1      26.414   2.147  53.906  0.00  0.00    +0.000 A 
ATOM     13  C   UNL     1      27.713   1.517  53.589  0.00  0.00    +0.000 A 
ATOM     14  O   UNL     1      28.701   2.254  53.632  0.00  0.00    +0.000 OA
BRANCH   7  16
ATOM     15  C   UNL     1      29.129  -1.978  53.273  0.00  0.00    +0.000 C 
ATOM     16  O   UNL     1      29.109  -0.554  53.302  0.00  0.00    +0.000 OA
ENDBRANCH   7  16
ENDBRANCH   1  10
BRANCH   4  17
ATOM     17  N   UNL     1      19.249   0.482  51.205  0.00  0.00    +0.000 N 
ATOM     18  C   UNL     1      18.746   1.396  50.227  0.00  0.00    +0.000 C 
ATOM     19  C   UNL     1      17.395   0.812  49.880  0.00  0.00    +0.000 C 
ATOM     20  O   UNL     1      17.054   0.007  51.020  0.00  0.00    +0.000 OA
ATOM     21  C   UNL     1      18.211  -0.294  51.694  0.00  0.00    +0.000 C 
ATOM     22  O   UNL     1      18.228  -1.102  52.607  0.00  0.00    +0.000 OA
BRANCH  19  23
ATOM     23  C   UNL     1      16.343   1.900  49.673  0.00  0.00    +0.000 C 
BRANCH  23  24
ATOM     24  N   UNL     1      15.704   2.296  50.913  0.00  0.00    +0.000 N 
ATOM     25  C   UNL     1      15.978   3.502  51.510  0.00  0.00    +0.000 C 
ATOM     26  C   UNL     1      15.205   3.761  52.775  0.00  0.00    +0.000 C 
ATOM     27  O   UNL     1      16.791   4.304  51.059  0.00  0.00    +0.000 OA
ATOM     28  H   UNL     1      15.058   1.686  51.337  0.00  0.00    +0.000 HD
ENDBRANCH  23  24
ENDBRANCH  19  23
ENDBRANCH   4  17
BRANCH   6  29
ATOM     29  C   UNL     1      22.555  -0.907  54.602  0.00  0.00    +0.000 C 
ATOM     30  F   UNL     1      23.854  -1.017  54.985  0.00  0.00    +0.000 F 
ATOM     31  F   UNL     1      21.924  -0.289  55.644  0.00  0.00    +0.000 F 
ATOM     32  F   UNL     1      22.067  -2.181  54.588  0.00  0.00    +0.000 F 
ENDBRANCH   6  29
TORSDOF 6
ENDMDL
MODEL 3
REMARK VINA RESULT:    -8.388      1.582      2.003
REMARK INTER + INTRA:         -12.220
REMARK INTER:                 -11.160
REMARK INTRA:                  -1.061
REMARK UNBOUND:                -0.890
REMARK  Name = 
REMARK  8 active torsions:
REMARK  status: ('A' for Active; 'I' for Inactive)
REMARK    1  A    between atoms: C_1  and  O_2
REMARK    2  A    between atoms: O_2  and  C_3
REMARK    3  A    between atoms: C_6  and  C_7
REMARK    4  A    between atoms: C_10  and  N_11
REMARK    5  A    between atoms: C_13  and  C_14
REMARK    6  A    between atoms: C_14  and  N_15
REMARK    7  A    between atoms: C_16  and  C_17
REMARK    8  A    between atoms: C_23  and  C_24
REMARK                            x       y       z     vdW  Elec       q    Type
REMARK                         _______ _______ _______ _____ _____    ______ ____
ROOT
ATOM      1  C   UNL     1      23.836   1.142  52.781  0.00  0.00    +0.000 A 
ATOM      2  C   UNL     1      22.817   0.508  53.509  0.00  0.00    +0.000 A 
ATOM      3  C   UNL     1      21.471   0.759  53.236  0.00  0.00    +0.000 A 
ATOM      4  C   UNL     1      21.101   1.631  52.213  0.00  0.00    +0.000 A 
ATOM      5  C   UNL     1      22.122   2.260  51.483  0.00  0.00    +0.000 A 
ATOM      6  C   UNL     1      23.492   2.028  51.748  0.00  0.00    +0.000 A 
ENDROOT
BRANCH   1  10
ATOM      7  C   UNL     1      28.103  -0.615  53.314  0.00  0.00    +0.000 A 
ATOM      8  C   UNL     1      26.897  -1.082  52.976  0.00  0.00    +0.000 A 
ATOM      9  C   UNL     1      25.630  -0.428  52.775  0.00  0.00    +0.000 A 
ATOM     10  C   UNL     1      25.235   0.802  53.134  0.00  0.00    +0.000 A 
ATOM     11  C   UNL     1      26.049   1.778  53.824  0.00  0.00    +0.000 A 
ATOM     12  C   UNL     1      27.369   1.789  54.023  0.00  0.00    +0.000 A 
ATOM     13  C   UNL     1      28.416   0.818  53.639  0.00  0.00    +0.000 A 
ATOM     14  O   UNL     1      29.576   1.236  53.650  0.00  0.00    +0.000 OA
BRANCH   7  16
ATOM     15  C   UNL     1      28.741  -2.924  53.157  0.00  0.00    +0.000 C 
ATOM     16  O   UNL     1      29.137  -1.559  53.254  0.00  0.00    +0.000 OA
ENDBRANCH   7  16
ENDBRANCH   1  10
BRANCH   4  17
ATOM     17  N   UNL     1      19.743   1.849  51.884  0.00  0.00    +0.000 N 
ATOM     18  C   UNL     1      19.157   3.150  51.787  0.00  0.00    +0.000 C 
ATOM     19  C   UNL     1      17.840   2.878  51.097  0.00  0.00    +0.000 C 
ATOM     20  O   UNL     1      17.580   1.491  51.363  0.00  0.00    +0.000 OA
ATOM     21  C   UNL     1      18.770   0.884  51.679  0.00  0.00    +0.000 C 
ATOM     22  O   UNL     1      18.863  -0.327  51.789  0.00  0.00    +0.000 OA
BRANCH  19  23
ATOM     23  C   UNL     1      16.714   3.740  51.663  0.00  0.00    +0.000 C 
BRANCH  23  24
ATOM     24  N   UNL     1      15.554   2.957  52.044  0.00  0.00    +0.000 N 
ATOM     25  C   UNL     1      14.673   3.397  53.002  0.00  0.00    +0.000 C 
ATOM     26  C   UNL     1      13.513   2.471  53.253  0.00  0.00    +0.000 C 
ATOM     27  O   UNL     1      14.818   4.451  53.613  0.00  0.00    +0.000 OA
ATOM     28  H   UNL     1      15.394   2.089  51.606  0.00  0.00    +0.000 HD
ENDBRANCH  23  24
ENDBRANCH  19  23
ENDBRANCH   4  17
BRANCH   6  29
ATOM     29  C   UNL     1      24.494   2.750  50.876  0.00  0.00    +0.000 C 
ATOM     30  F   UNL     1      25.038   3.884  51.391  0.00  0.00    +0.000 F 
ATOM     31  F   UNL     1      25.556   1.948  50.569  0.00  0.00    +0.000 F 
ATOM     32  F   UNL     1      23.956   3.112  49.677  0.00  0.00    +0.000 F 
ENDBRANCH   6  29
TORSDOF 6
ENDMDL
MODEL 4
REMARK VINA RESULT:    -8.324      1.734      2.143
REMARK INTER + INTRA:         -12.134
REMARK INTER:                 -11.361
REMARK INTRA:                  -0.773
REMARK UNBOUND:                -0.890
REMARK  Name = 
REMARK  8 active torsions:
REMARK  status: ('A' for Active; 'I' for Inactive)
REMARK    1  A    between atoms: C_1  and  O_2
REMARK    2  A    between atoms: O_2  and  C_3
REMARK    3  A    between atoms: C_6  and  C_7
REMARK    4  A    between atoms: C_10  and  N_11
REMARK    5  A    between atoms: C_13  and  C_14
REMARK    6  A    between atoms: C_14  and  N_15
REMARK    7  A    between atoms: C_16  and  C_17
REMARK    8  A    between atoms: C_23  and  C_24
REMARK                            x       y       z     vdW  Elec       q    Type
REMARK                         _______ _______ _______ _____ _____    ______ ____
ROOT
ATOM      1  C   UNL     1      23.337   0.391  52.966  0.00  0.00    +0.000 A 
ATOM      2  C   UNL     1      22.587  -0.488  53.762  0.00  0.00    +0.000 A 
ATOM      3  C   UNL     1      21.219  -0.673  53.544  0.00  0.00    +0.000 A 
ATOM      4  C   UNL     1      20.565  -0.004  52.510  0.00  0.00    +0.000 A 
ATOM      5  C   UNL     1      21.319   0.871  51.713  0.00  0.00    +0.000 A 
ATOM      6  C   UNL     1      22.703   1.081  51.921  0.00  0.00    +0.000 A 
ENDROOT
BRANCH   1  10
ATOM      7  C   UNL     1      27.948   0.022  53.387  0.00  0.00    +0.000 A 
ATOM      8  C   UNL     1      26.925  -0.807  53.154  0.00  0.00    +0.000 A 
ATOM      9  C   UNL     1      25.516  -0.576  52.977  0.00  0.00    +0.000 A 
ATOM     10  C   UNL     1      24.784   0.510  53.264  0.00  0.00    +0.000 A 
ATOM     11  C   UNL     1      25.291   1.739  53.832  0.00  0.00    +0.000 A 
ATOM     12  C   UNL     1      26.553   2.156  53.955  0.00  0.00    +0.000 A 
ATOM     13  C   UNL     1      27.829   1.506  53.586  0.00  0.00    +0.000 A 
ATOM     14  O   UNL     1      28.812   2.246  53.502  0.00  0.00    +0.000 OA
BRANCH   7  16
ATOM     15  C   UNL     1      29.238  -2.002  53.328  0.00  0.00    +0.000 C 
ATOM     16  O   UNL     1      29.214  -0.578  53.340  0.00  0.00    +0.000 OA
ENDBRANCH   7  16
ENDBRANCH   1  10
BRANCH   4  17
ATOM     17  N   UNL     1      19.195  -0.225  52.239  0.00  0.00    +0.000 N 
ATOM     18  C   UNL     1      18.357  -1.053  53.050  0.00  0.00    +0.000 C 
ATOM     19  C   UNL     1      16.967  -0.701  52.571  0.00  0.00    +0.000 C 
ATOM     20  O   UNL     1      17.171  -0.173  51.251  0.00  0.00    +0.000 OA
ATOM     21  C   UNL     1      18.476   0.241  51.150  0.00  0.00    +0.000 C 
ATOM     22  O   UNL     1      18.874   0.879  50.190  0.00  0.00    +0.000 OA
BRANCH  19  23
ATOM     23  C   UNL     1      16.060  -1.927  52.510  0.00  0.00    +0.000 C 
BRANCH  23  24
ATOM     24  N   UNL     1      14.720  -1.651  52.992  0.00  0.00    +0.000 N 
ATOM     25  C   UNL     1      13.726  -1.221  52.146  0.00  0.00    +0.000 C 
ATOM     26  C   UNL     1      12.393  -1.008  52.810  0.00  0.00    +0.000 C 
ATOM     27  O   UNL     1      13.907  -1.017  50.949  0.00  0.00    +0.000 OA
ATOM     28  H   UNL     1      14.518  -1.773  53.948  0.00  0.00    +0.000 HD
ENDBRANCH  23  24
ENDBRANCH  19  23
ENDBRANCH   4  17
BRANCH   6  29
ATOM     29  C   UNL     1      23.404   2.033  50.979  0.00  0.00    +0.000 C 
ATOM     30  F   UNL     1      23.606   3.297  51.434  0.00  0.00    +0.000 F 
ATOM     31  F   UNL     1      24.643   1.571  50.637  0.00  0.00    +0.000 F 
ATOM     32  F   UNL     1      22.732   2.169  49.800  0.00  0.00    +0.000 F 
ENDBRANCH   6  29
TORSDOF 6
ENDMDL
MODEL 5
REMARK VINA RESULT:    -8.318      6.804     10.537
REMARK INTER + INTRA:         -12.125
REMARK INTER:                 -10.902
REMARK INTRA:                  -1.223
REMARK UNBOUND:                -0.890
REMARK  Name = 
REMARK  8 active torsions:
REMARK  status: ('A' for Active; 'I' for Inactive)
REMARK    1  A    between atoms: C_1  and  O_2
REMARK    2  A    between atoms: O_2  and  C_3
REMARK    3  A    between atoms: C_6  and  C_7
REMARK    4  A    between atoms: C_10  and  N_11
REMARK    5  A    between atoms: C_13  and  C_14
REMARK    6  A    between atoms: C_14  and  N_15
REMARK    7  A    between atoms: C_16  and  C_17
REMARK    8  A    between atoms: C_23  and  C_24
REMARK                            x       y       z     vdW  Elec       q    Type
REMARK                         _______ _______ _______ _____ _____    ______ ____
ROOT
ATOM      1  C   UNL     1      25.443   3.936  50.182  0.00  0.00    +0.000 A 
ATOM      2  C   UNL     1      26.579   3.618  49.423  0.00  0.00    +0.000 A 
ATOM      3  C   UNL     1      27.306   4.611  48.761  0.00  0.00    +0.000 A 
ATOM      4  C   UNL     1      26.933   5.951  48.854  0.00  0.00    +0.000 A 
ATOM      5  C   UNL     1      25.798   6.266  49.619  0.00  0.00    +0.000 A 
ATOM      6  C   UNL     1      25.042   5.277  50.291  0.00  0.00    +0.000 A 
ENDROOT
BRANCH   1  10
ATOM      7  C   UNL     1      23.807   0.625  53.000  0.00  0.00    +0.000 A 
ATOM      8  C   UNL     1      24.957   1.290  52.849  0.00  0.00    +0.000 A 
ATOM      9  C   UNL     1      25.345   2.361  51.969  0.00  0.00    +0.000 A 
ATOM     10  C   UNL     1      24.745   2.817  50.860  0.00  0.00    +0.000 A 
ATOM     11  C   UNL     1      23.516   2.305  50.298  0.00  0.00    +0.000 A 
ATOM     12  C   UNL     1      22.610   1.491  50.846  0.00  0.00    +0.000 A 
ATOM     13  C   UNL     1      22.572   0.834  52.170  0.00  0.00    +0.000 A 
ATOM     14  O   UNL     1      21.473   0.416  52.539  0.00  0.00    +0.000 OA
BRANCH   7  16
ATOM     15  C   UNL     1      25.029  -0.798  54.499  0.00  0.00    +0.000 C 
ATOM     16  O   UNL     1      23.777  -0.258  54.088  0.00  0.00    +0.000 OA
ENDBRANCH   7  16
ENDBRANCH   1  10
BRANCH   4  17
ATOM     17  N   UNL     1      27.692   6.973  48.240  0.00  0.00    +0.000 N 
ATOM     18  C   UNL     1      29.121   6.964  48.181  0.00  0.00    +0.000 C 
ATOM     19  C   UNL     1      29.426   8.038  47.162  0.00  0.00    +0.000 C 
ATOM     20  O   UNL     1      28.257   8.872  47.167  0.00  0.00    +0.000 OA
ATOM     21  C   UNL     1      27.211   8.144  47.676  0.00  0.00    +0.000 C 
ATOM     22  O   UNL     1      26.064   8.557  47.639  0.00  0.00    +0.000 OA
BRANCH  19  23
ATOM     23  C   UNL     1      30.655   8.856  47.550  0.00  0.00    +0.000 C 
BRANCH  23  24
ATOM     24  N   UNL     1      30.347  10.259  47.749  0.00  0.00    +0.000 N 
ATOM     25  C   UNL     1      30.475  10.856  48.980  0.00  0.00    +0.000 C 
ATOM     26  C   UNL     1      30.139  12.323  48.998  0.00  0.00    +0.000 C 
ATOM     27  O   UNL     1      30.824  10.247  49.987  0.00  0.00    +0.000 OA
ATOM     28  H   UNL     1      30.040  10.797  46.984  0.00  0.00    +0.000 HD
ENDBRANCH  23  24
ENDBRANCH  19  23
ENDBRANCH   4  17
BRANCH   6  29
ATOM     29  C   UNL     1      23.854   5.748  51.098  0.00  0.00    +0.000 C 
ATOM     30  F   UNL     1      23.767   5.288  52.373  0.00  0.00    +0.000 F 
ATOM     31  F   UNL     1      23.833   7.109  51.204  0.00  0.00    +0.000 F 
ATOM     32  F   UNL     1      22.672   5.414  50.505  0.00  0.00    +0.000 F 
ENDBRANCH   6  29
TORSDOF 6
ENDMDL
MODEL 6
REMARK VINA RESULT:    -8.291      2.523      3.227
REMARK INTER + INTRA:         -12.089
REMARK INTER:                 -11.279
REMARK INTRA:                  -0.810
REMARK UNBOUND:                -0.890
REMARK  Name = 
REMARK  8 active torsions:
REMARK  status: ('A' for Active; 'I' for Inactive)
REMARK    1  A    between atoms: C_1  and  O_2
REMARK    2  A    between atoms: O_2  and  C_3
REMARK    3  A    between atoms: C_6  and  C_7
REMARK    4  A    between atoms: C_10  and  N_11
REMARK    5  A    between atoms: C_13  and  C_14
REMARK    6  A    between atoms: C_14  and  N_15
REMARK    7  A    between atoms: C_16  and  C_17
REMARK    8  A    between atoms: C_23  and  C_24
REMARK                            x       y       z     vdW  Elec       q    Type
REMARK                         _______ _______ _______ _____ _____    ______ ____
ROOT
ATOM      1  C   UNL     1      23.854   0.794  52.474  0.00  0.00    +0.000 A 
ATOM      2  C   UNL     1      23.755   1.705  51.411  0.00  0.00    +0.000 A 
ATOM      3  C   UNL     1      22.516   2.036  50.856  0.00  0.00    +0.000 A 
ATOM      4  C   UNL     1      21.339   1.486  51.360  0.00  0.00    +0.000 A 
ATOM      5  C   UNL     1      21.441   0.579  52.427  0.00  0.00    +0.000 A 
ATOM      6  C   UNL     1      22.685   0.222  52.999  0.00  0.00    +0.000 A 
ENDROOT
BRANCH   1  10
ATOM      7  C   UNL     1      28.168  -0.637  53.430  0.00  0.00    +0.000 A 
ATOM      8  C   UNL     1      27.101  -1.130  52.793  0.00  0.00    +0.000 A 
ATOM      9  C   UNL     1      25.810  -0.568  52.494  0.00  0.00    +0.000 A 
ATOM     10  C   UNL     1      25.210   0.517  53.006  0.00  0.00    +0.000 A 
ATOM     11  C   UNL     1      25.771   1.394  54.008  0.00  0.00    +0.000 A 
ATOM     12  C   UNL     1      27.030   1.483  54.444  0.00  0.00    +0.000 A 
ATOM     13  C   UNL     1      28.240   0.717  54.078  0.00  0.00    +0.000 A 
ATOM     14  O   UNL     1      29.320   1.226  54.382  0.00  0.00    +0.000 OA
BRANCH   7  16
ATOM     15  C   UNL     1      29.083  -2.851  53.268  0.00  0.00    +0.000 C 
ATOM     16  O   UNL     1      29.310  -1.449  53.380  0.00  0.00    +0.000 OA
ENDBRANCH   7  16
ENDBRANCH   1  10
BRANCH   4  17
ATOM     17  N   UNL     1      20.074   1.856  50.850  0.00  0.00    +0.000 N 
ATOM     18  C   UNL     1      18.916   2.032  51.670  0.00  0.00    +0.000 C 
ATOM     19  C   UNL     1      17.949   2.738  50.746  0.00  0.00    +0.000 C 
ATOM     20  O   UNL     1      18.415   2.408  49.428  0.00  0.00    +0.000 OA
ATOM     21  C   UNL     1      19.732   2.035  49.519  0.00  0.00    +0.000 C 
ATOM     22  O   UNL     1      20.419   1.862  48.526  0.00  0.00    +0.000 OA
BRANCH  19  23
ATOM     23  C   UNL     1      16.518   2.243  50.936  0.00  0.00    +0.000 C 
BRANCH  23  24
ATOM     24  N   UNL     1      16.460   0.839  51.299  0.00  0.00    +0.000 N 
ATOM     25  C   UNL     1      15.600   0.382  52.267  0.00  0.00    +0.000 C 
ATOM     26  C   UNL     1      15.655  -1.105  52.496  0.00  0.00    +0.000 C 
ATOM     27  O   UNL     1      14.853   1.119  52.903  0.00  0.00    +0.000 OA
ATOM     28  H   UNL     1      17.052   0.199  50.840  0.00  0.00    +0.000 HD
ENDBRANCH  23  24
ENDBRANCH  19  23
ENDBRANCH   4  17
BRANCH   6  29
ATOM     29  C   UNL     1      22.657  -0.749  54.157  0.00  0.00    +0.000 C 
ATOM     30  F   UNL     1      23.854  -1.042  54.730  0.00  0.00    +0.000 F 
ATOM     31  F   UNL     1      21.873  -0.288  55.175  0.00  0.00    +0.000 F 
ATOM     32  F   UNL     1      22.117  -1.950  53.800  0.00  0.00    +0.000 F 
ENDBRANCH   6  29
TORSDOF 6
ENDMDL
MODEL 7
REMARK VINA RESULT:    -8.228      3.873      5.745
REMARK INTER + INTRA:         -12.004
REMARK INTER:                 -10.945
REMARK INTRA:                  -1.059
REMARK UNBOUND:                -0.890
REMARK  Name = 
REMARK  8 active torsions:
REMARK  status: ('A' for Active; 'I' for Inactive)
REMARK    1  A    between atoms: C_1  and  O_2
REMARK    2  A    between atoms: O_2  and  C_3
REMARK    3  A    between atoms: C_6  and  C_7
REMARK    4  A    between atoms: C_10  and  N_11
REMARK    5  A    between atoms: C_13  and  C_14
REMARK    6  A    between atoms: C_14  and  N_15
REMARK    7  A    between atoms: C_16  and  C_17
REMARK    8  A    between atoms: C_23  and  C_24
REMARK                            x       y       z     vdW  Elec       q    Type
REMARK                         _______ _______ _______ _____ _____    ______ ____
ROOT
ATOM      1  C   UNL     1      24.827   3.236  50.820  0.00  0.00    +0.000 A 
ATOM      2  C   UNL     1      25.389   2.802  52.031  0.00  0.00    +0.000 A 
ATOM      3  C   UNL     1      24.783   1.796  52.788  0.00  0.00    +0.000 A 
ATOM      4  C   UNL     1      23.613   1.178  52.350  0.00  0.00    +0.000 A 
ATOM      5  C   UNL     1      23.056   1.612  51.136  0.00  0.00    +0.000 A 
ATOM      6  C   UNL     1      23.647   2.634  50.356  0.00  0.00    +0.000 A 
ENDROOT
BRANCH   1  10
ATOM      7  C   UNL     1      26.683   7.125  49.085  0.00  0.00    +0.000 A 
ATOM      8  C   UNL     1      25.575   6.793  49.758  0.00  0.00    +0.000 A 
ATOM      9  C   UNL     1      25.119   5.546  50.313  0.00  0.00    +0.000 A 
ATOM     10  C   UNL     1      25.549   4.298  50.079  0.00  0.00    +0.000 A 
ATOM     11  C   UNL     1      26.622   3.932  49.183  0.00  0.00    +0.000 A 
ATOM     12  C   UNL     1      27.547   4.707  48.612  0.00  0.00    +0.000 A 
ATOM     13  C   UNL     1      27.767   6.167  48.681  0.00  0.00    +0.000 A 
ATOM     14  O   UNL     1      28.880   6.567  48.335  0.00  0.00    +0.000 OA
BRANCH   7  16
ATOM     15  C   UNL     1      27.230   9.291  49.962  0.00  0.00    +0.000 C 
ATOM     16  O   UNL     1      26.837   8.497  48.847  0.00  0.00    +0.000 OA
ENDBRANCH   7  16
ENDBRANCH   1  10
BRANCH   4  17
ATOM     17  N   UNL     1      23.021   0.119  53.075  0.00  0.00    +0.000 N 
ATOM     18  C   UNL     1      21.654  -0.272  52.921  0.00  0.00    +0.000 C 
ATOM     19  C   UNL     1      21.604  -1.613  53.618  0.00  0.00    +0.000 C 
ATOM     20  O   UNL     1      22.723  -1.586  54.518  0.00  0.00    +0.000 OA
ATOM     21  C   UNL     1      23.615  -0.645  54.067  0.00  0.00    +0.000 C 
ATOM     22  O   UNL     1      24.728  -0.533  54.551  0.00  0.00    +0.000 OA
BRANCH  19  23
ATOM     23  C   UNL     1      20.306  -1.797  54.401  0.00  0.00    +0.000 C 
BRANCH  23  24
ATOM     24  N   UNL     1      19.177  -1.147  53.764  0.00  0.00    +0.000 N 
ATOM     25  C   UNL     1      18.016  -1.829  53.489  0.00  0.00    +0.000 C 
ATOM     26  C   UNL     1      16.940  -0.993  52.850  0.00  0.00    +0.000 C 
ATOM     27  O   UNL     1      17.866  -3.022  53.734  0.00  0.00    +0.000 OA
ATOM     28  H   UNL     1      19.244  -0.195  53.522  0.00  0.00    +0.000 HD
ENDBRANCH  23  24
ENDBRANCH  19  23
ENDBRANCH   4  17
BRANCH   6  29
ATOM     29  C   UNL     1      22.960   2.993  49.058  0.00  0.00    +0.000 C 
ATOM     30  F   UNL     1      23.728   2.958  47.937  0.00  0.00    +0.000 F 
ATOM     31  F   UNL     1      21.910   2.159  48.803  0.00  0.00    +0.000 F 
ATOM     32  F   UNL     1      22.425   4.247  49.097  0.00  0.00    +0.000 F 
ENDBRANCH   6  29
TORSDOF 6
ENDMDL
MODEL 8
REMARK VINA RESULT:    -8.037      2.511      3.190
REMARK INTER + INTRA:         -11.746
REMARK INTER:                 -10.313
REMARK INTRA:                  -1.433
REMARK UNBOUND:                -0.890
REMARK  Name = 
REMARK  8 active torsions:
REMARK  status: ('A' for Active; 'I' for Inactive)
REMARK    1  A    between atoms: C_1  and  O_2
REMARK    2  A    between atoms: O_2  and  C_3
REMARK    3  A    between atoms: C_6  and  C_7
REMARK    4  A    between atoms: C_10  and  N_11
REMARK    5  A    between atoms: C_13  and  C_14
REMARK    6  A    between atoms: C_14  and  N_15
REMARK    7  A    between atoms: C_16  and  C_17
REMARK    8  A    between atoms: C_23  and  C_24
REMARK                            x       y       z     vdW  Elec       q    Type
REMARK                         _______ _______ _______ _____ _____    ______ ____
ROOT
ATOM      1  C   UNL     1      24.278   1.578  52.024  0.00  0.00    +0.000 A 
ATOM      2  C   UNL     1      23.105   0.999  52.531  0.00  0.00    +0.000 A 
ATOM      3  C   UNL     1      21.857   1.289  51.973  0.00  0.00    +0.000 A 
ATOM      4  C   UNL     1      21.746   2.148  50.880  0.00  0.00    +0.000 A 
ATOM      5  C   UNL     1      22.922   2.721  50.373  0.00  0.00    +0.000 A 
ATOM      6  C   UNL     1      24.195   2.449  50.926  0.00  0.00    +0.000 A 
ENDROOT
BRANCH   1  10
ATOM      7  C   UNL     1      28.328  -0.234  53.399  0.00  0.00    +0.000 A 
ATOM      8  C   UNL     1      27.252  -0.660  52.728  0.00  0.00    +0.000 A 
ATOM      9  C   UNL     1      26.057   0.014  52.293  0.00  0.00    +0.000 A 
ATOM     10  C   UNL     1      25.557   1.199  52.672  0.00  0.00    +0.000 A 
ATOM     11  C   UNL     1      26.153   2.094  53.638  0.00  0.00    +0.000 A 
ATOM     12  C   UNL     1      27.384   2.080  54.155  0.00  0.00    +0.000 A 
ATOM     13  C   UNL     1      28.517   1.155  53.939  0.00  0.00    +0.000 A 
ATOM     14  O   UNL     1      29.628   1.566  54.279  0.00  0.00    +0.000 OA
BRANCH   7  16
ATOM     15  C   UNL     1      29.020  -2.528  53.248  0.00  0.00    +0.000 C 
ATOM     16  O   UNL     1      29.368  -1.169  53.496  0.00  0.00    +0.000 OA
ENDBRANCH   7  16
ENDBRANCH   1  10
BRANCH   4  17
ATOM     17  N   UNL     1      20.498   2.404  50.267  0.00  0.00    +0.000 N 
ATOM     18  C   UNL     1      19.327   2.781  50.997  0.00  0.00    +0.000 C 
ATOM     19  C   UNL     1      18.392   3.264  49.911  0.00  0.00    +0.000 C 
ATOM     20  O   UNL     1      18.878   2.629  48.718  0.00  0.00    +0.000 OA
ATOM     21  C   UNL     1      20.187   2.272  48.924  0.00  0.00    +0.000 C 
ATOM     22  O   UNL     1      20.890   1.864  48.015  0.00  0.00    +0.000 OA
BRANCH  19  23
ATOM     23  C   UNL     1      16.948   2.843  50.177  0.00  0.00    +0.000 C 
BRANCH  23  24
ATOM     24  N   UNL     1      16.655   1.515  49.672  0.00  0.00    +0.000 N 
ATOM     25  C   UNL     1      16.424   0.459  50.520  0.00  0.00    +0.000 C 
ATOM     26  C   UNL     1      16.110  -0.839  49.826  0.00  0.00    +0.000 C 
ATOM     27  O   UNL     1      16.476   0.556  51.742  0.00  0.00    +0.000 OA
ATOM     28  H   UNL     1      16.622   1.367  48.699  0.00  0.00    +0.000 HD
ENDBRANCH  23  24
ENDBRANCH  19  23
ENDBRANCH   4  17
BRANCH   6  29
ATOM     29  C   UNL     1      25.386   3.114  50.274  0.00  0.00    +0.000 C 
ATOM     30  F   UNL     1      26.464   2.323  50.031  0.00  0.00    +0.000 F 
ATOM     31  F   UNL     1      25.055   3.653  49.064  0.00  0.00    +0.000 F 
ATOM     32  F   UNL     1      25.856   4.157  51.017  0.00  0.00    +0.000 F 
ENDBRANCH   6  29
TORSDOF 6
ENDMDL
MODEL 9
REMARK VINA RESULT:    -8.002      2.865      9.673
REMARK INTER + INTRA:         -11.699
REMARK INTER:                 -10.709
REMARK INTRA:                  -0.989
REMARK UNBOUND:                -0.890
REMARK  Name = 
REMARK  8 active torsions:
REMARK  status: ('A' for Active; 'I' for Inactive)
REMARK    1  A    between atoms: C_1  and  O_2
REMARK    2  A    between atoms: O_2  and  C_3
REMARK    3  A    between atoms: C_6  and  C_7
REMARK    4  A    between atoms: C_10  and  N_11
REMARK    5  A    between atoms: C_13  and  C_14
REMARK    6  A    between atoms: C_14  and  N_15
REMARK    7  A    between atoms: C_16  and  C_17
REMARK    8  A    between atoms: C_23  and  C_24
REMARK                            x       y       z     vdW  Elec       q    Type
REMARK                         _______ _______ _______ _____ _____    ______ ____
ROOT
ATOM      1  C   UNL     1      19.846   1.140  51.562  0.00  0.00    +0.000 A 
ATOM      2  C   UNL     1      20.122   0.882  52.914  0.00  0.00    +0.000 A 
ATOM      3  C   UNL     1      21.430   0.910  53.403  0.00  0.00    +0.000 A 
ATOM      4  C   UNL     1      22.500   1.216  52.563  0.00  0.00    +0.000 A 
ATOM      5  C   UNL     1      22.220   1.478  51.212  0.00  0.00    +0.000 A 
ATOM      6  C   UNL     1      20.905   1.447  50.693  0.00  0.00    +0.000 A 
ENDROOT
BRANCH   1  10
ATOM      7  C   UNL     1      15.432   1.920  50.345  0.00  0.00    +0.000 A 
ATOM      8  C   UNL     1      16.350   2.523  51.109  0.00  0.00    +0.000 A 
ATOM      9  C   UNL     1      17.733   2.225  51.372  0.00  0.00    +0.000 A 
ATOM     10  C   UNL     1      18.426   1.102  51.140  0.00  0.00    +0.000 A 
ATOM     11  C   UNL     1      17.899  -0.101  50.535  0.00  0.00    +0.000 A 
ATOM     12  C   UNL     1      16.754  -0.283  49.874  0.00  0.00    +0.000 A 
ATOM     13  C   UNL     1      15.653   0.654  49.566  0.00  0.00    +0.000 A 
ATOM     14  O   UNL     1      14.885   0.314  48.663  0.00  0.00    +0.000 OA
BRANCH   7  16
ATOM     15  C   UNL     1      14.246   3.995  50.570  0.00  0.00    +0.000 C 
ATOM     16  O   UNL     1      14.220   2.613  50.224  0.00  0.00    +0.000 OA
ENDBRANCH   7  16
ENDBRANCH   1  10
BRANCH   4  17
ATOM     17  N   UNL     1      23.822   1.307  53.055  0.00  0.00    +0.000 N 
ATOM     18  C   UNL     1      24.589   0.170  53.460  0.00  0.00    +0.000 C 
ATOM     19  C   UNL     1      25.991   0.728  53.567  0.00  0.00    +0.000 C 
ATOM     20  O   UNL     1      25.797   2.139  53.750  0.00  0.00    +0.000 OA
ATOM     21  C   UNL     1      24.547   2.465  53.288  0.00  0.00    +0.000 C 
ATOM     22  O   UNL     1      24.188   3.625  53.173  0.00  0.00    +0.000 OA
BRANCH  19  23
ATOM     23  C   UNL     1      26.745   0.143  54.759  0.00  0.00    +0.000 C 
BRANCH  23  24
ATOM     24  N   UNL     1      27.893  -0.647  54.356  0.00  0.00    +0.000 N 
ATOM     25  C   UNL     1      29.125  -0.074  54.157  0.00  0.00    +0.000 C 
ATOM     26  C   UNL     1      30.208  -1.045  53.768  0.00  0.00    +0.000 C 
ATOM     27  O   UNL     1      29.332   1.130  54.277  0.00  0.00    +0.000 OA
ATOM     28  H   UNL     1      27.786  -1.617  54.221  0.00  0.00    +0.000 HD
ENDBRANCH  23  24
ENDBRANCH  19  23
ENDBRANCH   4  17
BRANCH   6  29
ATOM     29  C   UNL     1      20.736   1.768  49.225  0.00  0.00    +0.000 C 
ATOM     30  F   UNL     1      19.466   1.987  48.796  0.00  0.00    +0.000 F 
ATOM     31  F   UNL     1      21.433   2.890  48.878  0.00  0.00    +0.000 F 
ATOM     32  F   UNL     1      21.228   0.776  48.429  0.00  0.00    +0.000 F 
ENDBRANCH   6  29
TORSDOF 6
ENDMDL
