MODEL 1
REMARK VINA RESULT:    -9.767      0.000      0.000
REMARK INTER + INTRA:         -12.409
REMARK INTER:                 -11.480
REMARK INTRA:                  -0.929
REMARK UNBOUND:                -0.929
REMARK  Name = 
REMARK  5 active torsions:
REMARK  status: ('A' for Active; 'I' for Inactive)
REMARK    1  A    between atoms: C_1  and  N_2
REMARK    2  A    between atoms: C_5  and  C_6
REMARK    3  A    between atoms: C_7  and  O_8
REMARK    4  A    between atoms: C_10  and  O_11
REMARK    5  A    between atoms: C_16  and  C_17
REMARK                            x       y       z     vdW  Elec       q    Type
REMARK                         _______ _______ _______ _____ _____    ______ ____
ROOT
ATOM      1  C   UNL     1      24.577  -0.366  53.970  0.00  0.00    +0.000 A 
ATOM      2  C   UNL     1      24.030  -1.070  55.053  0.00  0.00    +0.000 A 
ATOM      3  C   UNL     1      22.654  -1.079  55.282  0.00  0.00    +0.000 A 
ATOM      4  C   UNL     1      21.805  -0.374  54.425  0.00  0.00    +0.000 A 
ATOM      5  C   UNL     1      22.322   0.348  53.343  0.00  0.00    +0.000 A 
ATOM      6  C   UNL     1      21.470   1.128  52.414  0.00  0.00    +0.000 A 
ATOM      7  O   UNL     1      20.245   1.169  52.460  0.00  0.00    +0.000 OA
ATOM      8  C   UNL     1      22.164   1.907  51.378  0.00  0.00    +0.000 A 
ATOM      9  C   UNL     1      23.497   1.833  51.270  0.00  0.00    +0.000 A 
ATOM     10  O   UNL     1      24.283   1.039  52.080  0.00  0.00    +0.000 OA
ATOM     11  C   UNL     1      23.705   0.348  53.121  0.00  0.00    +0.000 A 
ENDROOT
BRANCH   1  16
ATOM     12  C   UNL     1      30.110  -1.035  54.053  0.00  0.00    +0.000 C 
ATOM     13  N   UNL     1      28.932  -0.460  53.429  0.00  0.00    +0.000 N 
ATOM     14  C   UNL     1      28.071  -1.409  52.748  0.00  0.00    +0.000 C 
ATOM     15  C   UNL     1      26.602  -1.297  52.974  0.00  0.00    +0.000 C 
ATOM     16  C   UNL     1      26.031  -0.347  53.724  0.00  0.00    +0.000 C 
ATOM     17  C   UNL     1      26.831   0.726  54.389  0.00  0.00    +0.000 C 
ATOM     18  C   UNL     1      28.354   0.662  54.161  0.00  0.00    +0.000 C 
ATOM     19  H   UNL     1      29.251   0.044  52.602  0.00  0.00    +0.000 HD
ENDBRANCH   1  16
BRANCH   9  20
ATOM     20  C   UNL     1      24.268   2.636  50.247  0.00  0.00    +0.000 C 
ATOM     21  C   UNL     1      25.754   2.750  50.627  0.00  0.00    +0.000 C 
ATOM     22  C   UNL     1      26.522   3.617  49.631  0.00  0.00    +0.000 C 
ATOM     23  C   UNL     1      25.884   4.995  49.486  0.00  0.00    +0.000 C 
ATOM     24  C   UNL     1      24.416   4.886  49.083  0.00  0.00    +0.000 C 
ATOM     25  C   UNL     1      23.629   4.024  50.065  0.00  0.00    +0.000 C 
ENDBRANCH   9  20
BRANCH   2  26
ATOM     26  O   UNL     1      24.862  -1.758  55.896  0.00  0.00    +0.000 OA
ATOM     27  H   UNL     1      25.735  -1.966  55.626  0.00  0.00    +0.000 HD
ENDBRANCH   2  26
BRANCH   4  28
ATOM     28  O   UNL     1      20.462  -0.395  54.671  0.00  0.00    +0.000 OA
ATOM     29  H   UNL     1      20.147  -0.374  55.555  0.00  0.00    +0.000 HD
ENDBRANCH   4  28
TORSDOF 4
ENDMDL
MODEL 2
REMARK VINA RESULT:    -9.313      1.153      1.347
REMARK INTER + INTRA:         -11.876
REMARK INTER:                 -11.006
REMARK INTRA:                  -0.869
REMARK UNBOUND:                -0.929
REMARK  Name = 
REMARK  5 active torsions:
REMARK  status: ('A' for Active; 'I' for Inactive)
REMARK    1  A    between atoms: C_1  and  N_2
REMARK    2  A    between atoms: C_5  and  C_6
REMARK    3  A    between atoms: C_7  and  O_8
REMARK    4  A    between atoms: C_10  and  O_11
REMARK    5  A    between atoms: C_16  and  C_17
REMARK                            x       y       z     vdW  Elec       q    Type
REMARK                         _______ _______ _______ _____ _____    ______ ____
ROOT
ATOM      1  C   UNL     1      23.724  -0.282  53.624  0.00  0.00    +0.000 A 
ATOM      2  C   UNL     1      23.263  -1.031  54.716  0.00  0.00    +0.000 A 
ATOM      3  C   UNL     1      21.908  -1.327  54.863  0.00  0.00    +0.000 A 
ATOM      4  C   UNL     1      20.992  -0.867  53.913  0.00  0.00    +0.000 A 
ATOM      5  C   UNL     1      21.420  -0.106  52.819  0.00  0.00    +0.000 A 
ATOM      6  C   UNL     1      20.491   0.422  51.793  0.00  0.00    +0.000 A 
ATOM      7  O   UNL     1      19.286   0.199  51.763  0.00  0.00    +0.000 OA
ATOM      8  C   UNL     1      21.076   1.279  50.750  0.00  0.00    +0.000 A 
ATOM      9  C   UNL     1      22.398   1.490  50.726  0.00  0.00    +0.000 A 
ATOM     10  O   UNL     1      23.275   0.928  51.632  0.00  0.00    +0.000 OA
ATOM     11  C   UNL     1      22.783   0.182  52.680  0.00  0.00    +0.000 A 
ENDROOT
BRANCH   1  16
ATOM     12  C   UNL     1      29.227   0.425  54.163  0.00  0.00    +0.000 C 
ATOM     13  N   UNL     1      28.022   0.572  53.367  0.00  0.00    +0.000 N 
ATOM     14  C   UNL     1      27.471  -0.667  52.849  0.00  0.00    +0.000 C 
ATOM     15  C   UNL     1      25.999  -0.870  52.962  0.00  0.00    +0.000 C 
ATOM     16  C   UNL     1      25.155   0.039  53.463  0.00  0.00    +0.000 C 
ATOM     17  C   UNL     1      25.620   1.378  53.936  0.00  0.00    +0.000 C 
ATOM     18  C   UNL     1      27.134   1.640  53.814  0.00  0.00    +0.000 C 
ATOM     19  H   UNL     1      28.305   0.972  52.472  0.00  0.00    +0.000 HD
ENDBRANCH   1  16
BRANCH   9  20
ATOM     20  C   UNL     1      23.052   2.387  49.700  0.00  0.00    +0.000 C 
ATOM     21  C   UNL     1      24.346   3.015  50.247  0.00  0.00    +0.000 C 
ATOM     22  C   UNL     1      24.973   3.975  49.237  0.00  0.00    +0.000 C 
ATOM     23  C   UNL     1      23.982   5.049  48.802  0.00  0.00    +0.000 C 
ATOM     24  C   UNL     1      22.707   4.430  48.234  0.00  0.00    +0.000 C 
ATOM     25  C   UNL     1      22.064   3.467  49.227  0.00  0.00    +0.000 C 
ENDBRANCH   9  20
BRANCH   2  26
ATOM     26  O   UNL     1      24.159  -1.480  55.650  0.00  0.00    +0.000 OA
ATOM     27  H   UNL     1      24.436  -0.913  56.343  0.00  0.00    +0.000 HD
ENDBRANCH   2  26
BRANCH   4  28
ATOM     28  O   UNL     1      19.671  -1.166  54.080  0.00  0.00    +0.000 OA
ATOM     29  H   UNL     1      19.421  -1.970  54.495  0.00  0.00    +0.000 HD
ENDBRANCH   4  28
TORSDOF 4
ENDMDL
MODEL 3
REMARK VINA RESULT:    -9.104      2.545      5.215
REMARK INTER + INTRA:         -11.630
REMARK INTER:                 -10.721
REMARK INTRA:                  -0.909
REMARK UNBOUND:                -0.929
REMARK  Name = 
REMARK  5 active torsions:
REMARK  status: ('A' for Active; 'I' for Inactive)
REMARK    1  A    between atoms: C_1  and  N_2
REMARK    2  A    between atoms: C_5  and  C_6
REMARK    3  A    between atoms: C_7  and  O_8
REMARK    4  A    between atoms: C_10  and  O_11
REMARK    5  A    between atoms: C_16  and  C_17
REMARK                            x       y       z     vdW  Elec       q    Type
REMARK                         _______ _______ _______ _____ _____    ______ ____
ROOT
ATOM      1  C   UNL     1      22.077   0.150  53.317  0.00  0.00    +0.000 A 
ATOM      2  C   UNL     1      21.713  -0.727  54.349  0.00  0.00    +0.000 A 
ATOM      3  C   UNL     1      22.679  -1.311  55.168  0.00  0.00    +0.000 A 
ATOM      4  C   UNL     1      24.031  -1.025  54.957  0.00  0.00    +0.000 A 
ATOM      5  C   UNL     1      24.426  -0.163  53.927  0.00  0.00    +0.000 A 
ATOM      6  C   UNL     1      25.845   0.161  53.647  0.00  0.00    +0.000 A 
ATOM      7  O   UNL     1      26.794  -0.235  54.315  0.00  0.00    +0.000 OA
ATOM      8  C   UNL     1      26.110   1.012  52.478  0.00  0.00    +0.000 A 
ATOM      9  C   UNL     1      25.087   1.505  51.767  0.00  0.00    +0.000 A 
ATOM     10  O   UNL     1      23.762   1.273  52.079  0.00  0.00    +0.000 OA
ATOM     11  C   UNL     1      23.447   0.420  53.113  0.00  0.00    +0.000 A 
ENDROOT
BRANCH   1  16
ATOM     12  C   UNL     1      19.237   3.043  49.491  0.00  0.00    +0.000 C 
ATOM     13  N   UNL     1      19.238   2.104  50.597  0.00  0.00    +0.000 N 
ATOM     14  C   UNL     1      19.789   0.796  50.294  0.00  0.00    +0.000 C 
ATOM     15  C   UNL     1      20.733   0.196  51.279  0.00  0.00    +0.000 C 
ATOM     16  C   UNL     1      21.062   0.769  52.443  0.00  0.00    +0.000 C 
ATOM     17  C   UNL     1      20.474   2.071  52.881  0.00  0.00    +0.000 C 
ATOM     18  C   UNL     1      19.472   2.714  51.902  0.00  0.00    +0.000 C 
ATOM     19  H   UNL     1      18.272   1.809  50.737  0.00  0.00    +0.000 HD
ENDBRANCH   1  16
BRANCH   9  20
ATOM     20  C   UNL     1      25.297   2.356  50.536  0.00  0.00    +0.000 C 
ATOM     21  C   UNL     1      26.643   3.101  50.592  0.00  0.00    +0.000 C 
ATOM     22  C   UNL     1      26.827   4.015  49.382  0.00  0.00    +0.000 C 
ATOM     23  C   UNL     1      25.663   4.990  49.239  0.00  0.00    +0.000 C 
ATOM     24  C   UNL     1      24.329   4.254  49.156  0.00  0.00    +0.000 C 
ATOM     25  C   UNL     1      24.124   3.335  50.356  0.00  0.00    +0.000 C 
ENDBRANCH   9  20
BRANCH   2  26
ATOM     26  O   UNL     1      20.389  -1.011  54.554  0.00  0.00    +0.000 OA
ATOM     27  H   UNL     1      20.143  -1.788  55.018  0.00  0.00    +0.000 HD
ENDBRANCH   2  26
BRANCH   4  28
ATOM     28  O   UNL     1      24.958  -1.611  55.770  0.00  0.00    +0.000 OA
ATOM     29  H   UNL     1      25.705  -2.039  55.396  0.00  0.00    +0.000 HD
ENDBRANCH   4  28
TORSDOF 4
ENDMDL
MODEL 4
REMARK VINA RESULT:    -9.097      1.982      5.281
REMARK INTER + INTRA:         -11.621
REMARK INTER:                 -10.753
REMARK INTRA:                  -0.869
REMARK UNBOUND:                -0.929
REMARK  Name = 
REMARK  5 active torsions:
REMARK  status: ('A' for Active; 'I' for Inactive)
REMARK    1  A    between atoms: C_1  and  N_2
REMARK    2  A    between atoms: C_5  and  C_6
REMARK    3  A    between atoms: C_7  and  O_8
REMARK    4  A    between atoms: C_10  and  O_11
REMARK    5  A    between atoms: C_16  and  C_17
REMARK                            x       y       z     vdW  Elec       q    Type
REMARK                         _______ _______ _______ _____ _____    ______ ____
ROOT
ATOM      1  C   UNL     1      22.165   1.564  52.370  0.00  0.00    +0.000 A 
ATOM      2  C   UNL     1      20.786   1.314  52.406  0.00  0.00    +0.000 A 
ATOM      3  C   UNL     1      20.259   0.308  53.216  0.00  0.00    +0.000 A 
ATOM      4  C   UNL     1      21.116  -0.469  54.001  0.00  0.00    +0.000 A 
ATOM      5  C   UNL     1      22.498  -0.251  53.977  0.00  0.00    +0.000 A 
ATOM      6  C   UNL     1      23.454  -1.056  54.775  0.00  0.00    +0.000 A 
ATOM      7  O   UNL     1      23.132  -1.934  55.568  0.00  0.00    +0.000 OA
ATOM      8  C   UNL     1      24.882  -0.769  54.579  0.00  0.00    +0.000 A 
ATOM      9  C   UNL     1      25.257   0.224  53.763  0.00  0.00    +0.000 A 
ATOM     10  O   UNL     1      24.364   1.030  53.086  0.00  0.00    +0.000 OA
ATOM     11  C   UNL     1      23.016   0.764  53.163  0.00  0.00    +0.000 A 
ENDROOT
BRANCH   1  16
ATOM     12  C   UNL     1      25.399   5.132  49.562  0.00  0.00    +0.000 C 
ATOM     13  N   UNL     1      24.072   4.641  49.887  0.00  0.00    +0.000 N 
ATOM     14  C   UNL     1      23.749   3.334  49.346  0.00  0.00    +0.000 C 
ATOM     15  C   UNL     1      23.088   2.353  50.252  0.00  0.00    +0.000 C 
ATOM     16  C   UNL     1      22.731   2.623  51.513  0.00  0.00    +0.000 C 
ATOM     17  C   UNL     1      22.940   3.970  52.126  0.00  0.00    +0.000 C 
ATOM     18  C   UNL     1      23.600   5.023  51.214  0.00  0.00    +0.000 C 
ATOM     19  H   UNL     1      23.411   5.180  49.328  0.00  0.00    +0.000 HD
ENDBRANCH   1  16
BRANCH   9  20
ATOM     20  C   UNL     1      26.711   0.544  53.496  0.00  0.00    +0.000 C 
ATOM     21  C   UNL     1      27.641  -0.264  54.418  0.00  0.00    +0.000 C 
ATOM     22  C   UNL     1      29.106   0.107  54.198  0.00  0.00    +0.000 C 
ATOM     23  C   UNL     1      29.332   1.606  54.365  0.00  0.00    +0.000 C 
ATOM     24  C   UNL     1      28.430   2.410  53.433  0.00  0.00    +0.000 C 
ATOM     25  C   UNL     1      26.960   2.055  53.636  0.00  0.00    +0.000 C 
ENDBRANCH   9  20
BRANCH   2  26
ATOM     26  O   UNL     1      19.945   2.072  51.634  0.00  0.00    +0.000 OA
ATOM     27  H   UNL     1      19.076   1.771  51.453  0.00  0.00    +0.000 HD
ENDBRANCH   2  26
BRANCH   4  28
ATOM     28  O   UNL     1      20.577  -1.449  54.783  0.00  0.00    +0.000 OA
ATOM     29  H   UNL     1      19.648  -1.573  54.805  0.00  0.00    +0.000 HD
ENDBRANCH   4  28
TORSDOF 4
ENDMDL
MODEL 5
REMARK VINA RESULT:    -9.054      2.258      5.850
REMARK INTER + INTRA:         -11.572
REMARK INTER:                 -10.733
REMARK INTRA:                  -0.839
REMARK UNBOUND:                -0.929
REMARK  Name = 
REMARK  5 active torsions:
REMARK  status: ('A' for Active; 'I' for Inactive)
REMARK    1  A    between atoms: C_1  and  N_2
REMARK    2  A    between atoms: C_5  and  C_6
REMARK    3  A    between atoms: C_7  and  O_8
REMARK    4  A    between atoms: C_10  and  O_11
REMARK    5  A    between atoms: C_16  and  C_17
REMARK                            x       y       z     vdW  Elec       q    Type
REMARK                         _______ _______ _______ _____ _____    ______ ____
ROOT
ATOM      1  C   UNL     1      23.663   2.919  50.420  0.00  0.00    +0.000 A 
ATOM      2  C   UNL     1      22.519   2.846  49.612  0.00  0.00    +0.000 A 
ATOM      3  C   UNL     1      21.528   1.895  49.856  0.00  0.00    +0.000 A 
ATOM      4  C   UNL     1      21.676   0.996  50.916  0.00  0.00    +0.000 A 
ATOM      5  C   UNL     1      22.813   1.037  51.733  0.00  0.00    +0.000 A 
ATOM      6  C   UNL     1      23.030   0.097  52.858  0.00  0.00    +0.000 A 
ATOM      7  O   UNL     1      22.224  -0.752  53.221  0.00  0.00    +0.000 OA
ATOM      8  C   UNL     1      24.312   0.205  53.570  0.00  0.00    +0.000 A 
ATOM      9  C   UNL     1      25.184   1.163  53.230  0.00  0.00    +0.000 A 
ATOM     10  O   UNL     1      24.945   2.092  52.238  0.00  0.00    +0.000 OA
ATOM     11  C   UNL     1      23.800   1.998  51.480  0.00  0.00    +0.000 A 
ENDROOT
BRANCH   1  16
ATOM     12  C   UNL     1      27.013   6.887  48.395  0.00  0.00    +0.000 C 
ATOM     13  N   UNL     1      26.688   5.950  49.454  0.00  0.00    +0.000 N 
ATOM     14  C   UNL     1      25.512   6.286  50.235  0.00  0.00    +0.000 C 
ATOM     15  C   UNL     1      24.542   5.194  50.532  0.00  0.00    +0.000 C 
ATOM     16  C   UNL     1      24.718   3.919  50.166  0.00  0.00    +0.000 C 
ATOM     17  C   UNL     1      25.942   3.463  49.439  0.00  0.00    +0.000 C 
ATOM     18  C   UNL     1      26.983   4.557  49.134  0.00  0.00    +0.000 C 
ATOM     19  H   UNL     1      27.378   6.087  50.193  0.00  0.00    +0.000 HD
ENDBRANCH   1  16
BRANCH   9  20
ATOM     20  C   UNL     1      26.531   1.302  53.902  0.00  0.00    +0.000 C 
ATOM     21  C   UNL     1      27.472   2.211  53.093  0.00  0.00    +0.000 C 
ATOM     22  C   UNL     1      28.855   2.299  53.735  0.00  0.00    +0.000 C 
ATOM     23  C   UNL     1      29.465   0.914  53.933  0.00  0.00    +0.000 C 
ATOM     24  C   UNL     1      28.546   0.017  54.758  0.00  0.00    +0.000 C 
ATOM     25  C   UNL     1      27.158  -0.085  54.135  0.00  0.00    +0.000 C 
ENDBRANCH   9  20
BRANCH   2  26
ATOM     26  O   UNL     1      22.374   3.723  48.570  0.00  0.00    +0.000 OA
ATOM     27  H   UNL     1      22.909   4.491  48.527  0.00  0.00    +0.000 HD
ENDBRANCH   2  26
BRANCH   4  28
ATOM     28  O   UNL     1      20.695   0.073  51.133  0.00  0.00    +0.000 OA
ATOM     29  H   UNL     1      20.021  -0.054  50.493  0.00  0.00    +0.000 HD
ENDBRANCH   4  28
TORSDOF 4
ENDMDL
MODEL 6
REMARK VINA RESULT:    -8.582      1.215      2.035
REMARK INTER + INTRA:         -11.016
REMARK INTER:                 -10.216
REMARK INTRA:                  -0.801
REMARK UNBOUND:                -0.929
REMARK  Name = 
REMARK  5 active torsions:
REMARK  status: ('A' for Active; 'I' for Inactive)
REMARK    1  A    between atoms: C_1  and  N_2
REMARK    2  A    between atoms: C_5  and  C_6
REMARK    3  A    between atoms: C_7  and  O_8
REMARK    4  A    between atoms: C_10  and  O_11
REMARK    5  A    between atoms: C_16  and  C_17
REMARK                            x       y       z     vdW  Elec       q    Type
REMARK                         _______ _______ _______ _____ _____    ______ ____
ROOT
ATOM      1  C   UNL     1      23.855   0.217  53.305  0.00  0.00    +0.000 A 
ATOM      2  C   UNL     1      22.884  -0.600  53.899  0.00  0.00    +0.000 A 
ATOM      3  C   UNL     1      21.526  -0.391  53.661  0.00  0.00    +0.000 A 
ATOM      4  C   UNL     1      21.122   0.653  52.823  0.00  0.00    +0.000 A 
ATOM      5  C   UNL     1      22.069   1.493  52.224  0.00  0.00    +0.000 A 
ATOM      6  C   UNL     1      21.697   2.624  51.342  0.00  0.00    +0.000 A 
ATOM      7  O   UNL     1      20.550   2.895  51.003  0.00  0.00    +0.000 OA
ATOM      8  C   UNL     1      22.796   3.473  50.858  0.00  0.00    +0.000 A 
ATOM      9  C   UNL     1      24.062   3.164  51.166  0.00  0.00    +0.000 A 
ATOM     10  O   UNL     1      24.414   2.060  51.917  0.00  0.00    +0.000 OA
ATOM     11  C   UNL     1      23.430   1.271  52.468  0.00  0.00    +0.000 A 
ENDROOT
BRANCH   1  16
ATOM     12  C   UNL     1      29.416   0.483  53.603  0.00  0.00    +0.000 C 
ATOM     13  N   UNL     1      28.180  -0.204  53.930  0.00  0.00    +0.000 N 
ATOM     14  C   UNL     1      27.342   0.465  54.908  0.00  0.00    +0.000 C 
ATOM     15  C   UNL     1      25.881   0.551  54.626  0.00  0.00    +0.000 C 
ATOM     16  C   UNL     1      25.294   0.005  53.555  0.00  0.00    +0.000 C 
ATOM     17  C   UNL     1      26.062  -0.781  52.542  0.00  0.00    +0.000 C 
ATOM     18  C   UNL     1      27.574  -0.916  52.809  0.00  0.00    +0.000 C 
ATOM     19  H   UNL     1      28.432  -1.009  54.504  0.00  0.00    +0.000 HD
ENDBRANCH   1  16
BRANCH   9  20
ATOM     20  C   UNL     1      25.230   4.016  50.726  0.00  0.00    +0.000 C 
ATOM     21  C   UNL     1      24.767   5.413  50.277  0.00  0.00    +0.000 C 
ATOM     22  C   UNL     1      25.937   6.253  49.767  0.00  0.00    +0.000 C 
ATOM     23  C   UNL     1      26.691   5.538  48.651  0.00  0.00    +0.000 C 
ATOM     24  C   UNL     1      27.175   4.162  49.102  0.00  0.00    +0.000 C 
ATOM     25  C   UNL     1      26.021   3.305  49.615  0.00  0.00    +0.000 C 
ENDBRANCH   9  20
BRANCH   2  26
ATOM     26  O   UNL     1      23.277  -1.620  54.725  0.00  0.00    +0.000 OA
ATOM     27  H   UNL     1      24.048  -2.114  54.525  0.00  0.00    +0.000 HD
ENDBRANCH   2  26
BRANCH   4  28
ATOM     28  O   UNL     1      19.788   0.840  52.608  0.00  0.00    +0.000 OA
ATOM     29  H   UNL     1      19.490   1.195  51.792  0.00  0.00    +0.000 HD
ENDBRANCH   4  28
TORSDOF 4
ENDMDL
MODEL 7
REMARK VINA RESULT:    -8.567      2.535      6.269
REMARK INTER + INTRA:         -10.999
REMARK INTER:                 -10.100
REMARK INTRA:                  -0.899
REMARK UNBOUND:                -0.929
REMARK  Name = 
REMARK  5 active torsions:
REMARK  status: ('A' for Active; 'I' for Inactive)
REMARK    1  A    between atoms: C_1  and  N_2
REMARK    2  A    between atoms: C_5  and  C_6
REMARK    3  A    between atoms: C_7  and  O_8
REMARK    4  A    between atoms: C_10  and  O_11
REMARK    5  A    between atoms: C_16  and  C_17
REMARK                            x       y       z     vdW  Elec       q    Type
REMARK                         _______ _______ _______ _____ _____    ______ ____
ROOT
ATOM      1  C   UNL     1      25.124   2.106  51.995  0.00  0.00    +0.000 A 
ATOM      2  C   UNL     1      26.516   2.206  52.130  0.00  0.00    +0.000 A 
ATOM      3  C   UNL     1      27.214   1.371  53.003  0.00  0.00    +0.000 A 
ATOM      4  C   UNL     1      26.518   0.424  53.760  0.00  0.00    +0.000 A 
ATOM      5  C   UNL     1      25.127   0.309  53.655  0.00  0.00    +0.000 A 
ATOM      6  C   UNL     1      24.337  -0.664  54.446  0.00  0.00    +0.000 A 
ATOM      7  O   UNL     1      24.818  -1.493  55.211  0.00  0.00    +0.000 OA
ATOM      8  C   UNL     1      22.876  -0.608  54.294  0.00  0.00    +0.000 A 
ATOM      9  C   UNL     1      22.329   0.250  53.422  0.00  0.00    +0.000 A 
ATOM     10  O   UNL     1      23.070   1.097  52.623  0.00  0.00    +0.000 OA
ATOM     11  C   UNL     1      24.437   1.150  52.773  0.00  0.00    +0.000 A 
ENDROOT
BRANCH   1  16
ATOM     12  C   UNL     1      23.446   5.899  48.270  0.00  0.00    +0.000 C 
ATOM     13  N   UNL     1      23.119   4.829  49.195  0.00  0.00    +0.000 N 
ATOM     14  C   UNL     1      23.543   3.505  48.780  0.00  0.00    +0.000 C 
ATOM     15  C   UNL     1      24.202   2.638  49.797  0.00  0.00    +0.000 C 
ATOM     16  C   UNL     1      24.378   2.988  51.076  0.00  0.00    +0.000 C 
ATOM     17  C   UNL     1      23.892   4.294  51.616  0.00  0.00    +0.000 C 
ATOM     18  C   UNL     1      23.182   5.213  50.602  0.00  0.00    +0.000 C 
ATOM     19  H   UNL     1      22.114   4.672  49.124  0.00  0.00    +0.000 HD
ENDBRANCH   1  16
BRANCH   9  20
ATOM     20  C   UNL     1      20.833   0.376  53.247  0.00  0.00    +0.000 C 
ATOM     21  C   UNL     1      20.117  -0.948  53.563  0.00  0.00    +0.000 C 
ATOM     22  C   UNL     1      18.612  -0.842  53.321  0.00  0.00    +0.000 C 
ATOM     23  C   UNL     1      18.309  -0.376  51.900  0.00  0.00    +0.000 C 
ATOM     24  C   UNL     1      18.996   0.951  51.592  0.00  0.00    +0.000 C 
ATOM     25  C   UNL     1      20.502   0.867  51.827  0.00  0.00    +0.000 C 
ENDBRANCH   9  20
BRANCH   2  26
ATOM     26  O   UNL     1      27.199   3.136  51.392  0.00  0.00    +0.000 OA
ATOM     27  H   UNL     1      27.722   3.783  51.823  0.00  0.00    +0.000 HD
ENDBRANCH   2  26
BRANCH   4  28
ATOM     28  O   UNL     1      27.222  -0.379  54.610  0.00  0.00    +0.000 OA
ATOM     29  H   UNL     1      27.794  -1.038  54.266  0.00  0.00    +0.000 HD
ENDBRANCH   4  28
TORSDOF 4
ENDMDL
MODEL 8
REMARK VINA RESULT:    -8.482      2.640      5.340
REMARK INTER + INTRA:         -10.899
REMARK INTER:                  -9.974
REMARK INTRA:                  -0.925
REMARK UNBOUND:                -0.929
REMARK  Name = 
REMARK  5 active torsions:
REMARK  status: ('A' for Active; 'I' for Inactive)
REMARK    1  A    between atoms: C_1  and  N_2
REMARK    2  A    between atoms: C_5  and  C_6
REMARK    3  A    between atoms: C_7  and  O_8
REMARK    4  A    between atoms: C_10  and  O_11
REMARK    5  A    between atoms: C_16  and  C_17
REMARK                            x       y       z     vdW  Elec       q    Type
REMARK                         _______ _______ _______ _____ _____    ______ ____
ROOT
ATOM      1  C   UNL     1      23.425   0.505  52.953  0.00  0.00    +0.000 A 
ATOM      2  C   UNL     1      23.527  -0.463  53.962  0.00  0.00    +0.000 A 
ATOM      3  C   UNL     1      24.765  -0.812  54.500  0.00  0.00    +0.000 A 
ATOM      4  C   UNL     1      25.926  -0.194  54.025  0.00  0.00    +0.000 A 
ATOM      5  C   UNL     1      25.857   0.768  53.009  0.00  0.00    +0.000 A 
ATOM      6  C   UNL     1      27.055   1.441  52.456  0.00  0.00    +0.000 A 
ATOM      7  O   UNL     1      28.199   1.275  52.865  0.00  0.00    +0.000 OA
ATOM      8  C   UNL     1      26.835   2.362  51.332  0.00  0.00    +0.000 A 
ATOM      9  C   UNL     1      25.589   2.606  50.904  0.00  0.00    +0.000 A 
ATOM     10  O   UNL     1      24.465   2.044  51.476  0.00  0.00    +0.000 OA
ATOM     11  C   UNL     1      24.607   1.112  52.479  0.00  0.00    +0.000 A 
ENDROOT
BRANCH   1  16
ATOM     12  C   UNL     1      18.044   1.095  51.619  0.00  0.00    +0.000 C 
ATOM     13  N   UNL     1      19.432   1.459  51.398  0.00  0.00    +0.000 N 
ATOM     14  C   UNL     1      20.036   2.253  52.452  0.00  0.00    +0.000 C 
ATOM     15  C   UNL     1      21.401   1.870  52.911  0.00  0.00    +0.000 C 
ATOM     16  C   UNL     1      22.119   0.876  52.375  0.00  0.00    +0.000 C 
ATOM     17  C   UNL     1      21.615   0.064  51.226  0.00  0.00    +0.000 C 
ATOM     18  C   UNL     1      20.216   0.443  50.704  0.00  0.00    +0.000 C 
ATOM     19  H   UNL     1      19.438   2.178  50.674  0.00  0.00    +0.000 HD
ENDBRANCH   1  16
BRANCH   9  20
ATOM     20  C   UNL     1      25.302   3.517  49.732  0.00  0.00    +0.000 C 
ATOM     21  C   UNL     1      26.088   4.835  49.841  0.00  0.00    +0.000 C 
ATOM     22  C   UNL     1      25.748   5.785  48.694  0.00  0.00    +0.000 C 
ATOM     23  C   UNL     1      24.247   6.044  48.612  0.00  0.00    +0.000 C 
ATOM     24  C   UNL     1      23.466   4.740  48.477  0.00  0.00    +0.000 C 
ATOM     25  C   UNL     1      23.790   3.775  49.614  0.00  0.00    +0.000 C 
ENDBRANCH   9  20
BRANCH   2  26
ATOM     26  O   UNL     1      22.391  -1.073  54.426  0.00  0.00    +0.000 OA
ATOM     27  H   UNL     1      22.457  -1.804  55.009  0.00  0.00    +0.000 HD
ENDBRANCH   2  26
BRANCH   4  28
ATOM     28  O   UNL     1      27.126  -0.554  54.564  0.00  0.00    +0.000 OA
ATOM     29  H   UNL     1      27.916  -0.434  54.072  0.00  0.00    +0.000 HD
ENDBRANCH   4  28
TORSDOF 4
ENDMDL
MODEL 9
REMARK VINA RESULT:    -8.122      2.655      5.988
REMARK INTER + INTRA:         -10.475
REMARK INTER:                  -9.625
REMARK INTRA:                  -0.850
REMARK UNBOUND:                -0.929
REMARK  Name = 
REMARK  5 active torsions:
REMARK  status: ('A' for Active; 'I' for Inactive)
REMARK    1  A    between atoms: C_1  and  N_2
REMARK    2  A    between atoms: C_5  and  C_6
REMARK    3  A    between atoms: C_7  and  O_8
REMARK    4  A    between atoms: C_10  and  O_11
REMARK    5  A    between atoms: C_16  and  C_17
REMARK                            x       y       z     vdW  Elec       q    Type
REMARK                         _______ _______ _______ _____ _____    ______ ____
ROOT
ATOM      1  C   UNL     1      20.909   1.298  51.390  0.00  0.00    +0.000 A 
ATOM      2  C   UNL     1      19.557   0.999  51.169  0.00  0.00    +0.000 A 
ATOM      3  C   UNL     1      18.895   0.050  51.947  0.00  0.00    +0.000 A 
ATOM      4  C   UNL     1      19.588  -0.620  52.960  0.00  0.00    +0.000 A 
ATOM      5  C   UNL     1      20.941  -0.352  53.197  0.00  0.00    +0.000 A 
ATOM      6  C   UNL     1      21.728  -1.044  54.244  0.00  0.00    +0.000 A 
ATOM      7  O   UNL     1      21.268  -1.861  55.035  0.00  0.00    +0.000 OA
ATOM      8  C   UNL     1      23.160  -0.721  54.316  0.00  0.00    +0.000 A 
ATOM      9  C   UNL     1      23.675   0.210  53.503  0.00  0.00    +0.000 A 
ATOM     10  O   UNL     1      22.924   0.917  52.585  0.00  0.00    +0.000 OA
ATOM     11  C   UNL     1      21.594   0.606  52.411  0.00  0.00    +0.000 A 
ENDROOT
BRANCH   1  16
ATOM     12  C   UNL     1      22.466   5.205  47.731  0.00  0.00    +0.000 C 
ATOM     13  N   UNL     1      22.805   4.318  48.830  0.00  0.00    +0.000 N 
ATOM     14  C   UNL     1      22.228   4.677  50.112  0.00  0.00    +0.000 C 
ATOM     15  C   UNL     1      21.619   3.588  50.926  0.00  0.00    +0.000 C 
ATOM     16  C   UNL     1      21.617   2.299  50.569  0.00  0.00    +0.000 C 
ATOM     17  C   UNL     1      22.268   1.823  49.310  0.00  0.00    +0.000 C 
ATOM     18  C   UNL     1      22.933   2.915  48.449  0.00  0.00    +0.000 C 
ATOM     19  H   UNL     1      23.780   4.502  49.069  0.00  0.00    +0.000 HD
ENDBRANCH   1  16
BRANCH   9  20
ATOM     20  C   UNL     1      25.145   0.561  53.507  0.00  0.00    +0.000 C 
ATOM     21  C   UNL     1      25.786   0.314  52.131  0.00  0.00    +0.000 C 
ATOM     22  C   UNL     1      27.286   0.603  52.151  0.00  0.00    +0.000 C 
ATOM     23  C   UNL     1      27.992  -0.199  53.239  0.00  0.00    +0.000 C 
ATOM     24  C   UNL     1      27.376   0.064  54.611  0.00  0.00    +0.000 C 
ATOM     25  C   UNL     1      25.877  -0.219  54.613  0.00  0.00    +0.000 C 
ENDBRANCH   9  20
BRANCH   2  26
ATOM     26  O   UNL     1      18.878   1.652  50.174  0.00  0.00    +0.000 OA
ATOM     27  H   UNL     1      18.068   1.306  49.855  0.00  0.00    +0.000 HD
ENDBRANCH   2  26
BRANCH   4  28
ATOM     28  O   UNL     1      18.919  -1.548  53.706  0.00  0.00    +0.000 OA
ATOM     29  H   UNL     1      18.653  -2.359  53.316  0.00  0.00    +0.000 HD
ENDBRANCH   4  28
TORSDOF 4
ENDMDL
