MODEL 1
REMARK VINA RESULT:    -8.263      0.000      0.000
REMARK INTER + INTRA:         -15.193
REMARK INTER:                 -13.577
REMARK INTRA:                  -1.616
REMARK UNBOUND:                -1.616
REMARK  Name = 
REMARK  15 active torsions:
REMARK  status: ('A' for Active; 'I' for Inactive)
REMARK    1  A    between atoms: C_1  and  C_2
REMARK    2  A    between atoms: C_2  and  C_3
REMARK    3  A    between atoms: C_3  and  C_4
REMARK    4  A    between atoms: C_4  and  C_5
REMARK    5  A    between atoms: C_5  and  C_6
REMARK    6  A    between atoms: C_6  and  C_7
REMARK    7  A    between atoms: C_7  and  O_9
REMARK    8  A    between atoms: O_9  and  C_10
REMARK    9  A    between atoms: C_10  and  C_11
REMARK   10  A    between atoms: C_10  and  C_16
REMARK   11  A    between atoms: C_11  and  C_12
REMARK   12  A    between atoms: C_13  and  C_14
REMARK   13  A    between atoms: C_13  and  C_15
REMARK   14  A    between atoms: C_21  and  O_22
REMARK   15  A    between atoms: C_25  and  O_26
REMARK                            x       y       z     vdW  Elec       q    Type
REMARK                         _______ _______ _______ _____ _____    ______ ____
ROOT
ATOM      1  C   UNL     1      24.961   0.337  53.034  0.00  0.00    +0.000 C 
ATOM      2  C   UNL     1      25.257  -0.936  52.729  0.00  0.00    +0.000 C 
ATOM      3  C   UNL     1      26.622  -1.478  52.739  0.00  0.00    +0.000 C 
ATOM      4  O   UNL     1      26.836  -2.640  52.404  0.00  0.00    +0.000 OA
ATOM      5  C   UNL     1      27.723  -0.617  53.187  0.00  0.00    +0.000 A 
ATOM      6  C   UNL     1      29.024  -1.136  53.293  0.00  0.00    +0.000 A 
ATOM      7  C   UNL     1      30.079  -0.337  53.722  0.00  0.00    +0.000 A 
ATOM      8  C   UNL     1      29.845   0.994  54.043  0.00  0.00    +0.000 A 
ATOM      9  C   UNL     1      28.552   1.516  53.938  0.00  0.00    +0.000 A 
ATOM     10  C   UNL     1      27.472   0.717  53.514  0.00  0.00    +0.000 A 
ATOM     11  C   UNL     1      26.081   1.252  53.416  0.00  0.00    +0.000 C 
ATOM     12  O   UNL     1      25.855   2.433  53.654  0.00  0.00    +0.000 OA
ENDROOT
BRANCH   6  13
ATOM     13  O   UNL     1      29.345  -2.434  52.996  0.00  0.00    +0.000 OA
ATOM     14  H   UNL     1      29.087  -3.125  53.574  0.00  0.00    +0.000 HD
ENDBRANCH   6  13
BRANCH   9  15
ATOM     15  O   UNL     1      28.370   2.831  54.271  0.00  0.00    +0.000 OA
ATOM     16  H   UNL     1      27.521   3.137  54.524  0.00  0.00    +0.000 HD
ENDBRANCH   9  15
BRANCH   1  17
ATOM     17  C   UNL     1      23.516   0.839  53.112  0.00  0.00    +0.000 C 
BRANCH  17  18
ATOM     18  O   UNL     1      22.552  -0.254  53.044  0.00  0.00    +0.000 OA
BRANCH  18  19
ATOM     19  C   UNL     1      21.882  -0.545  54.184  0.00  0.00    +0.000 C 
ATOM     20  O   UNL     1      22.389  -1.097  55.155  0.00  0.00    +0.000 OA
BRANCH  19  21
ATOM     21  C   UNL     1      20.476   0.018  54.211  0.00  0.00    +0.000 C 
BRANCH  21  22
ATOM     22  C   UNL     1      19.401  -0.688  53.385  0.00  0.00    +0.000 C 
BRANCH  22  23
ATOM     23  C   UNL     1      19.091  -0.092  52.011  0.00  0.00    +0.000 C 
BRANCH  23  24
ATOM     24  C   UNL     1      17.719  -0.466  51.437  0.00  0.00    +0.000 C 
BRANCH  24  26
ATOM     25  C   UNL     1      18.360   1.493  49.961  0.00  0.00    +0.000 C 
ATOM     26  C   UNL     1      17.481   0.262  50.112  0.00  0.00    +0.000 C 
ENDBRANCH  24  26
ENDBRANCH  23  24
ENDBRANCH  22  23
ENDBRANCH  21  22
ENDBRANCH  19  21
ENDBRANCH  18  19
ENDBRANCH  17  18
BRANCH  17  27
ATOM     27  C   UNL     1      22.977   1.882  52.092  0.00  0.00    +0.000 C 
BRANCH  27  28
ATOM     28  C   UNL     1      22.278   1.331  50.869  0.00  0.00    +0.000 C 
ATOM     29  C   UNL     1      22.354   1.841  49.622  0.00  0.00    +0.000 C 
ATOM     30  C   UNL     1      21.651   1.192  48.462  0.00  0.00    +0.000 C 
ATOM     31  C   UNL     1      23.178   3.047  49.268  0.00  0.00    +0.000 C 
ENDBRANCH  27  28
ENDBRANCH  17  27
ENDBRANCH   1  17
TORSDOF 12
ENDMDL
MODEL 2
REMARK VINA RESULT:    -8.085      2.476      5.856
REMARK INTER + INTRA:         -14.899
REMARK INTER:                 -13.158
REMARK INTRA:                  -1.741
REMARK UNBOUND:                -1.616
REMARK  Name = 
REMARK  15 active torsions:
REMARK  status: ('A' for Active; 'I' for Inactive)
REMARK    1  A    between atoms: C_1  and  C_2
REMARK    2  A    between atoms: C_2  and  C_3
REMARK    3  A    between atoms: C_3  and  C_4
REMARK    4  A    between atoms: C_4  and  C_5
REMARK    5  A    between atoms: C_5  and  C_6
REMARK    6  A    between atoms: C_6  and  C_7
REMARK    7  A    between atoms: C_7  and  O_9
REMARK    8  A    between atoms: O_9  and  C_10
REMARK    9  A    between atoms: C_10  and  C_11
REMARK   10  A    between atoms: C_10  and  C_16
REMARK   11  A    between atoms: C_11  and  C_12
REMARK   12  A    between atoms: C_13  and  C_14
REMARK   13  A    between atoms: C_13  and  C_15
REMARK   14  A    between atoms: C_21  and  O_22
REMARK   15  A    between atoms: C_25  and  O_26
REMARK                            x       y       z     vdW  Elec       q    Type
REMARK                         _______ _______ _______ _____ _____    ______ ____
ROOT
ATOM      1  C   UNL     1      25.466   1.023  52.785  0.00  0.00    +0.000 C 
ATOM      2  C   UNL     1      26.318   1.991  53.157  0.00  0.00    +0.000 C 
ATOM      3  C   UNL     1      27.715   1.744  53.537  0.00  0.00    +0.000 C 
ATOM      4  O   UNL     1      28.432   2.666  53.915  0.00  0.00    +0.000 OA
ATOM      5  C   UNL     1      28.249   0.382  53.425  0.00  0.00    +0.000 A 
ATOM      6  C   UNL     1      29.605   0.134  53.693  0.00  0.00    +0.000 A 
ATOM      7  C   UNL     1      30.131  -1.150  53.586  0.00  0.00    +0.000 A 
ATOM      8  C   UNL     1      29.303  -2.202  53.216  0.00  0.00    +0.000 A 
ATOM      9  C   UNL     1      27.952  -1.960  52.949  0.00  0.00    +0.000 A 
ATOM     10  C   UNL     1      27.407  -0.665  53.044  0.00  0.00    +0.000 A 
ATOM     11  C   UNL     1      25.971  -0.385  52.742  0.00  0.00    +0.000 C 
ATOM     12  O   UNL     1      25.211  -1.301  52.454  0.00  0.00    +0.000 OA
ENDROOT
BRANCH   6  13
ATOM     13  O   UNL     1      30.492   1.110  54.066  0.00  0.00    +0.000 OA
ATOM     14  H   UNL     1      30.381   1.557  54.881  0.00  0.00    +0.000 HD
ENDBRANCH   6  13
BRANCH   9  15
ATOM     15  O   UNL     1      27.177  -3.028  52.583  0.00  0.00    +0.000 OA
ATOM     16  H   UNL     1      26.325  -3.138  52.958  0.00  0.00    +0.000 HD
ENDBRANCH   9  15
BRANCH   1  17
ATOM     17  C   UNL     1      24.047   1.330  52.299  0.00  0.00    +0.000 C 
BRANCH  17  18
ATOM     18  O   UNL     1      23.966   2.625  51.631  0.00  0.00    +0.000 OA
BRANCH  18  19
ATOM     19  C   UNL     1      23.734   2.606  50.296  0.00  0.00    +0.000 C 
ATOM     20  O   UNL     1      22.757   2.073  49.779  0.00  0.00    +0.000 OA
BRANCH  19  21
ATOM     21  C   UNL     1      24.717   3.443  49.506  0.00  0.00    +0.000 C 
BRANCH  21  22
ATOM     22  C   UNL     1      26.206   3.120  49.634  0.00  0.00    +0.000 C 
BRANCH  22  23
ATOM     23  C   UNL     1      27.184   4.174  49.113  0.00  0.00    +0.000 C 
BRANCH  23  24
ATOM     24  C   UNL     1      26.572   5.557  48.860  0.00  0.00    +0.000 C 
BRANCH  24  26
ATOM     25  C   UNL     1      28.990   5.876  48.168  0.00  0.00    +0.000 C 
ATOM     26  C   UNL     1      27.592   6.473  48.179  0.00  0.00    +0.000 C 
ENDBRANCH  24  26
ENDBRANCH  23  24
ENDBRANCH  22  23
ENDBRANCH  21  22
ENDBRANCH  19  21
ENDBRANCH  18  19
ENDBRANCH  17  18
BRANCH  17  27
ATOM     27  C   UNL     1      22.849   1.342  53.290  0.00  0.00    +0.000 C 
BRANCH  27  28
ATOM     28  C   UNL     1      21.992   0.096  53.329  0.00  0.00    +0.000 C 
ATOM     29  C   UNL     1      22.123  -0.923  54.203  0.00  0.00    +0.000 C 
ATOM     30  C   UNL     1      21.189  -2.102  54.183  0.00  0.00    +0.000 C 
ATOM     31  C   UNL     1      23.156  -0.953  55.295  0.00  0.00    +0.000 C 
ENDBRANCH  27  28
ENDBRANCH  17  27
ENDBRANCH   1  17
TORSDOF 12
ENDMDL
MODEL 3
REMARK VINA RESULT:    -7.775      1.876      3.190
REMARK INTER + INTRA:         -14.390
REMARK INTER:                 -13.527
REMARK INTRA:                  -0.863
REMARK UNBOUND:                -1.616
REMARK  Name = 
REMARK  15 active torsions:
REMARK  status: ('A' for Active; 'I' for Inactive)
REMARK    1  A    between atoms: C_1  and  C_2
REMARK    2  A    between atoms: C_2  and  C_3
REMARK    3  A    between atoms: C_3  and  C_4
REMARK    4  A    between atoms: C_4  and  C_5
REMARK    5  A    between atoms: C_5  and  C_6
REMARK    6  A    between atoms: C_6  and  C_7
REMARK    7  A    between atoms: C_7  and  O_9
REMARK    8  A    between atoms: O_9  and  C_10
REMARK    9  A    between atoms: C_10  and  C_11
REMARK   10  A    between atoms: C_10  and  C_16
REMARK   11  A    between atoms: C_11  and  C_12
REMARK   12  A    between atoms: C_13  and  C_14
REMARK   13  A    between atoms: C_13  and  C_15
REMARK   14  A    between atoms: C_21  and  O_22
REMARK   15  A    between atoms: C_25  and  O_26
REMARK                            x       y       z     vdW  Elec       q    Type
REMARK                         _______ _______ _______ _____ _____    ______ ____
ROOT
ATOM      1  C   UNL     1      25.955   1.247  52.549  0.00  0.00    +0.000 C 
ATOM      2  C   UNL     1      25.621  -0.015  52.236  0.00  0.00    +0.000 C 
ATOM      3  C   UNL     1      26.536  -1.156  52.370  0.00  0.00    +0.000 C 
ATOM      4  O   UNL     1      26.189  -2.281  52.022  0.00  0.00    +0.000 OA
ATOM      5  C   UNL     1      27.863  -0.934  52.958  0.00  0.00    +0.000 A 
ATOM      6  C   UNL     1      28.723  -2.021  53.181  0.00  0.00    +0.000 A 
ATOM      7  C   UNL     1      29.982  -1.832  53.743  0.00  0.00    +0.000 A 
ATOM      8  C   UNL     1      30.397  -0.550  54.081  0.00  0.00    +0.000 A 
ATOM      9  C   UNL     1      29.544   0.536  53.858  0.00  0.00    +0.000 A 
ATOM     10  C   UNL     1      28.263   0.359  53.300  0.00  0.00    +0.000 A 
ATOM     11  C   UNL     1      27.332   1.505  53.075  0.00  0.00    +0.000 C 
ATOM     12  O   UNL     1      27.688   2.650  53.325  0.00  0.00    +0.000 OA
ENDROOT
BRANCH   6  13
ATOM     13  O   UNL     1      28.398  -3.317  52.877  0.00  0.00    +0.000 OA
ATOM     14  H   UNL     1      27.504  -3.552  52.724  0.00  0.00    +0.000 HD
ENDBRANCH   6  13
BRANCH   9  15
ATOM     15  O   UNL     1      29.995   1.779  54.212  0.00  0.00    +0.000 OA
ATOM     16  H   UNL     1      30.563   2.253  53.636  0.00  0.00    +0.000 HD
ENDBRANCH   9  15
BRANCH   1  17
ATOM     17  C   UNL     1      24.942   2.393  52.493  0.00  0.00    +0.000 C 
BRANCH  17  18
ATOM     18  O   UNL     1      23.610   1.968  52.912  0.00  0.00    +0.000 OA
BRANCH  18  19
ATOM     19  C   UNL     1      22.588   2.255  52.070  0.00  0.00    +0.000 C 
ATOM     20  O   UNL     1      22.085   3.368  51.958  0.00  0.00    +0.000 OA
BRANCH  19  21
ATOM     21  C   UNL     1      22.223   1.102  51.159  0.00  0.00    +0.000 C 
BRANCH  21  22
ATOM     22  C   UNL     1      20.875   0.413  51.373  0.00  0.00    +0.000 C 
BRANCH  22  23
ATOM     23  C   UNL     1      20.224   0.591  52.746  0.00  0.00    +0.000 C 
BRANCH  23  24
ATOM     24  C   UNL     1      20.338  -0.621  53.678  0.00  0.00    +0.000 C 
BRANCH  24  26
ATOM     25  C   UNL     1      22.741  -1.051  54.362  0.00  0.00    +0.000 C 
ATOM     26  C   UNL     1      21.425  -0.383  54.729  0.00  0.00    +0.000 C 
ENDBRANCH  24  26
ENDBRANCH  23  24
ENDBRANCH  22  23
ENDBRANCH  21  22
ENDBRANCH  19  21
ENDBRANCH  18  19
ENDBRANCH  17  18
BRANCH  17  27
ATOM     27  C   UNL     1      24.691   3.173  51.171  0.00  0.00    +0.000 C 
BRANCH  27  28
ATOM     28  C   UNL     1      25.904   3.461  50.316  0.00  0.00    +0.000 C 
ATOM     29  C   UNL     1      26.073   4.542  49.527  0.00  0.00    +0.000 C 
ATOM     30  C   UNL     1      27.340   4.757  48.745  0.00  0.00    +0.000 C 
ATOM     31  C   UNL     1      25.056   5.643  49.399  0.00  0.00    +0.000 C 
ENDBRANCH  27  28
ENDBRANCH  17  27
ENDBRANCH   1  17
TORSDOF 12
ENDMDL
MODEL 4
REMARK VINA RESULT:    -7.742      3.314      7.403
REMARK INTER + INTRA:         -14.336
REMARK INTER:                 -12.693
REMARK INTRA:                  -1.643
REMARK UNBOUND:                -1.616
REMARK  Name = 
REMARK  15 active torsions:
REMARK  status: ('A' for Active; 'I' for Inactive)
REMARK    1  A    between atoms: C_1  and  C_2
REMARK    2  A    between atoms: C_2  and  C_3
REMARK    3  A    between atoms: C_3  and  C_4
REMARK    4  A    between atoms: C_4  and  C_5
REMARK    5  A    between atoms: C_5  and  C_6
REMARK    6  A    between atoms: C_6  and  C_7
REMARK    7  A    between atoms: C_7  and  O_9
REMARK    8  A    between atoms: O_9  and  C_10
REMARK    9  A    between atoms: C_10  and  C_11
REMARK   10  A    between atoms: C_10  and  C_16
REMARK   11  A    between atoms: C_11  and  C_12
REMARK   12  A    between atoms: C_13  and  C_14
REMARK   13  A    between atoms: C_13  and  C_15
REMARK   14  A    between atoms: C_21  and  O_22
REMARK   15  A    between atoms: C_25  and  O_26
REMARK                            x       y       z     vdW  Elec       q    Type
REMARK                         _______ _______ _______ _____ _____    ______ ____
ROOT
ATOM      1  C   UNL     1      24.898   3.211  50.978  0.00  0.00    +0.000 C 
ATOM      2  C   UNL     1      25.970   3.190  50.171  0.00  0.00    +0.000 C 
ATOM      3  C   UNL     1      26.473   4.370  49.455  0.00  0.00    +0.000 C 
ATOM      4  O   UNL     1      27.430   4.278  48.691  0.00  0.00    +0.000 OA
ATOM      5  C   UNL     1      25.831   5.669  49.692  0.00  0.00    +0.000 A 
ATOM      6  C   UNL     1      26.348   6.829  49.092  0.00  0.00    +0.000 A 
ATOM      7  C   UNL     1      25.758   8.070  49.310  0.00  0.00    +0.000 A 
ATOM      8  C   UNL     1      24.638   8.163  50.126  0.00  0.00    +0.000 A 
ATOM      9  C   UNL     1      24.119   7.010  50.725  0.00  0.00    +0.000 A 
ATOM     10  C   UNL     1      24.711   5.749  50.522  0.00  0.00    +0.000 A 
ATOM     11  C   UNL     1      24.182   4.511  51.170  0.00  0.00    +0.000 C 
ATOM     12  O   UNL     1      23.172   4.559  51.861  0.00  0.00    +0.000 OA
ENDROOT
BRANCH   6  13
ATOM     13  O   UNL     1      27.446   6.830  48.272  0.00  0.00    +0.000 OA
ATOM     14  H   UNL     1      28.219   6.364  48.524  0.00  0.00    +0.000 HD
ENDBRANCH   6  13
BRANCH   9  15
ATOM     15  O   UNL     1      23.017   7.153  51.525  0.00  0.00    +0.000 OA
ATOM     16  H   UNL     1      22.538   6.396  51.802  0.00  0.00    +0.000 HD
ENDBRANCH   9  15
BRANCH   1  17
ATOM     17  C   UNL     1      24.465   1.986  51.787  0.00  0.00    +0.000 C 
BRANCH  17  18
ATOM     18  O   UNL     1      25.453   0.913  51.726  0.00  0.00    +0.000 OA
BRANCH  18  19
ATOM     19  C   UNL     1      25.788   0.328  52.901  0.00  0.00    +0.000 C 
ATOM     20  O   UNL     1      25.819  -0.886  53.076  0.00  0.00    +0.000 OA
BRANCH  19  21
ATOM     21  C   UNL     1      26.274   1.314  53.942  0.00  0.00    +0.000 C 
BRANCH  21  22
ATOM     22  C   UNL     1      27.542   2.113  53.641  0.00  0.00    +0.000 C 
BRANCH  22  23
ATOM     23  C   UNL     1      28.811   1.307  53.360  0.00  0.00    +0.000 C 
BRANCH  23  24
ATOM     24  C   UNL     1      29.072   0.151  54.332  0.00  0.00    +0.000 C 
BRANCH  24  26
ATOM     25  C   UNL     1      29.130  -2.136  53.239  0.00  0.00    +0.000 C 
ATOM     26  C   UNL     1      29.938  -0.920  53.664  0.00  0.00    +0.000 C 
ENDBRANCH  24  26
ENDBRANCH  23  24
ENDBRANCH  22  23
ENDBRANCH  21  22
ENDBRANCH  19  21
ENDBRANCH  18  19
ENDBRANCH  17  18
BRANCH  17  27
ATOM     27  C   UNL     1      23.115   1.272  51.494  0.00  0.00    +0.000 C 
BRANCH  27  28
ATOM     28  C   UNL     1      22.103   1.254  52.618  0.00  0.00    +0.000 C 
ATOM     29  C   UNL     1      21.789   0.185  53.378  0.00  0.00    +0.000 C 
ATOM     30  C   UNL     1      20.796   0.282  54.502  0.00  0.00    +0.000 C 
ATOM     31  C   UNL     1      22.432  -1.165  53.216  0.00  0.00    +0.000 C 
ENDBRANCH  27  28
ENDBRANCH  17  27
ENDBRANCH   1  17
TORSDOF 12
ENDMDL
MODEL 5
REMARK VINA RESULT:    -7.691      1.594      3.528
REMARK INTER + INTRA:         -14.253
REMARK INTER:                 -12.665
REMARK INTRA:                  -1.588
REMARK UNBOUND:                -1.616
REMARK  Name = 
REMARK  15 active torsions:
REMARK  status: ('A' for Active; 'I' for Inactive)
REMARK    1  A    between atoms: C_1  and  C_2
REMARK    2  A    between atoms: C_2  and  C_3
REMARK    3  A    between atoms: C_3  and  C_4
REMARK    4  A    between atoms: C_4  and  C_5
REMARK    5  A    between atoms: C_5  and  C_6
REMARK    6  A    between atoms: C_6  and  C_7
REMARK    7  A    between atoms: C_7  and  O_9
REMARK    8  A    between atoms: O_9  and  C_10
REMARK    9  A    between atoms: C_10  and  C_11
REMARK   10  A    between atoms: C_10  and  C_16
REMARK   11  A    between atoms: C_11  and  C_12
REMARK   12  A    between atoms: C_13  and  C_14
REMARK   13  A    between atoms: C_13  and  C_15
REMARK   14  A    between atoms: C_21  and  O_22
REMARK   15  A    between atoms: C_25  and  O_26
REMARK                            x       y       z     vdW  Elec       q    Type
REMARK                         _______ _______ _______ _____ _____    ______ ____
ROOT
ATOM      1  C   UNL     1      25.452   0.649  52.295  0.00  0.00    +0.000 C 
ATOM      2  C   UNL     1      25.482  -0.686  52.160  0.00  0.00    +0.000 C 
ATOM      3  C   UNL     1      26.672  -1.505  52.431  0.00  0.00    +0.000 C 
ATOM      4  O   UNL     1      26.652  -2.718  52.243  0.00  0.00    +0.000 OA
ATOM      5  C   UNL     1      27.875  -0.852  52.962  0.00  0.00    +0.000 A 
ATOM      6  C   UNL     1      28.994  -1.622  53.316  0.00  0.00    +0.000 A 
ATOM      7  C   UNL     1      30.141  -1.022  53.827  0.00  0.00    +0.000 A 
ATOM      8  C   UNL     1      30.183   0.357  53.982  0.00  0.00    +0.000 A 
ATOM      9  C   UNL     1      29.071   1.129  53.629  0.00  0.00    +0.000 A 
ATOM     10  C   UNL     1      27.899   0.535  53.121  0.00  0.00    +0.000 A 
ATOM     11  C   UNL     1      26.695   1.341  52.759  0.00  0.00    +0.000 C 
ATOM     12  O   UNL     1      26.720   2.563  52.847  0.00  0.00    +0.000 OA
ENDROOT
BRANCH   6  13
ATOM     13  O   UNL     1      29.041  -2.986  53.195  0.00  0.00    +0.000 OA
ATOM     14  H   UNL     1      29.073  -3.380  52.346  0.00  0.00    +0.000 HD
ENDBRANCH   6  13
BRANCH   9  15
ATOM     15  O   UNL     1      29.157   2.483  53.806  0.00  0.00    +0.000 OA
ATOM     16  H   UNL     1      29.129   2.846  54.670  0.00  0.00    +0.000 HD
ENDBRANCH   9  15
BRANCH   1  17
ATOM     17  C   UNL     1      24.166   1.456  52.101  0.00  0.00    +0.000 C 
BRANCH  17  18
ATOM     18  O   UNL     1      24.438   2.826  51.676  0.00  0.00    +0.000 OA
BRANCH  18  19
ATOM     19  C   UNL     1      24.309   3.088  50.353  0.00  0.00    +0.000 C 
ATOM     20  O   UNL     1      25.247   3.096  49.563  0.00  0.00    +0.000 OA
BRANCH  19  21
ATOM     21  C   UNL     1      22.868   3.219  49.907  0.00  0.00    +0.000 C 
BRANCH  21  22
ATOM     22  C   UNL     1      22.497   2.716  48.513  0.00  0.00    +0.000 C 
BRANCH  22  23
ATOM     23  C   UNL     1      21.821   1.346  48.435  0.00  0.00    +0.000 C 
BRANCH  23  24
ATOM     24  C   UNL     1      21.269   0.819  49.765  0.00  0.00    +0.000 C 
BRANCH  24  26
ATOM     25  C   UNL     1      19.130   0.457  51.076  0.00  0.00    +0.000 C 
ATOM     26  C   UNL     1      19.783   1.158  49.895  0.00  0.00    +0.000 C 
ENDBRANCH  24  26
ENDBRANCH  23  24
ENDBRANCH  22  23
ENDBRANCH  21  22
ENDBRANCH  19  21
ENDBRANCH  18  19
ENDBRANCH  17  18
BRANCH  17  27
ATOM     27  C   UNL     1      23.143   1.618  53.261  0.00  0.00    +0.000 C 
BRANCH  27  28
ATOM     28  C   UNL     1      21.993   0.635  53.289  0.00  0.00    +0.000 C 
ATOM     29  C   UNL     1      21.961  -0.520  53.984  0.00  0.00    +0.000 C 
ATOM     30  C   UNL     1      20.749  -1.410  53.978  0.00  0.00    +0.000 C 
ATOM     31  C   UNL     1      23.088  -0.993  54.860  0.00  0.00    +0.000 C 
ENDBRANCH  27  28
ENDBRANCH  17  27
ENDBRANCH   1  17
TORSDOF 12
ENDMDL
MODEL 6
REMARK VINA RESULT:    -7.492      2.515      5.382
REMARK INTER + INTRA:         -13.926
REMARK INTER:                 -12.290
REMARK INTRA:                  -1.636
REMARK UNBOUND:                -1.616
REMARK  Name = 
REMARK  15 active torsions:
REMARK  status: ('A' for Active; 'I' for Inactive)
REMARK    1  A    between atoms: C_1  and  C_2
REMARK    2  A    between atoms: C_2  and  C_3
REMARK    3  A    between atoms: C_3  and  C_4
REMARK    4  A    between atoms: C_4  and  C_5
REMARK    5  A    between atoms: C_5  and  C_6
REMARK    6  A    between atoms: C_6  and  C_7
REMARK    7  A    between atoms: C_7  and  O_9
REMARK    8  A    between atoms: O_9  and  C_10
REMARK    9  A    between atoms: C_10  and  C_11
REMARK   10  A    between atoms: C_10  and  C_16
REMARK   11  A    between atoms: C_11  and  C_12
REMARK   12  A    between atoms: C_13  and  C_14
REMARK   13  A    between atoms: C_13  and  C_15
REMARK   14  A    between atoms: C_21  and  O_22
REMARK   15  A    between atoms: C_25  and  O_26
REMARK                            x       y       z     vdW  Elec       q    Type
REMARK                         _______ _______ _______ _____ _____    ______ ____
ROOT
ATOM      1  C   UNL     1      23.411   1.355  51.595  0.00  0.00    +0.000 C 
ATOM      2  C   UNL     1      23.051   0.481  52.548  0.00  0.00    +0.000 C 
ATOM      3  C   UNL     1      23.973  -0.037  53.567  0.00  0.00    +0.000 C 
ATOM      4  O   UNL     1      23.597  -0.873  54.384  0.00  0.00    +0.000 OA
ATOM      5  C   UNL     1      25.344   0.486  53.613  0.00  0.00    +0.000 A 
ATOM      6  C   UNL     1      26.219   0.077  54.633  0.00  0.00    +0.000 A 
ATOM      7  C   UNL     1      27.520   0.566  54.697  0.00  0.00    +0.000 A 
ATOM      8  C   UNL     1      27.962   1.466  53.736  0.00  0.00    +0.000 A 
ATOM      9  C   UNL     1      27.095   1.876  52.718  0.00  0.00    +0.000 A 
ATOM     10  C   UNL     1      25.773   1.397  52.645  0.00  0.00    +0.000 A 
ATOM     11  C   UNL     1      24.827   1.839  51.577  0.00  0.00    +0.000 C 
ATOM     12  O   UNL     1      25.204   2.600  50.694  0.00  0.00    +0.000 OA
ENDROOT
BRANCH   6  13
ATOM     13  O   UNL     1      25.868  -0.808  55.619  0.00  0.00    +0.000 OA
ATOM     14  H   UNL     1      26.410  -0.902  56.377  0.00  0.00    +0.000 HD
ENDBRANCH   6  13
BRANCH   9  15
ATOM     15  O   UNL     1      27.575   2.768  51.797  0.00  0.00    +0.000 OA
ATOM     16  H   UNL     1      28.257   3.365  52.035  0.00  0.00    +0.000 HD
ENDBRANCH   9  15
BRANCH   1  17
ATOM     17  C   UNL     1      22.398   1.950  50.614  0.00  0.00    +0.000 C 
BRANCH  17  18
ATOM     18  O   UNL     1      21.568   2.976  51.238  0.00  0.00    +0.000 OA
BRANCH  18  19
ATOM     19  C   UNL     1      22.103   4.216  51.332  0.00  0.00    +0.000 C 
ATOM     20  O   UNL     1      22.307   4.794  52.395  0.00  0.00    +0.000 OA
BRANCH  19  21
ATOM     21  C   UNL     1      22.575   4.767  50.003  0.00  0.00    +0.000 C 
BRANCH  21  22
ATOM     22  C   UNL     1      23.775   5.713  49.999  0.00  0.00    +0.000 C 
BRANCH  22  23
ATOM     23  C   UNL     1      24.530   5.859  48.677  0.00  0.00    +0.000 C 
BRANCH  23  24
ATOM     24  C   UNL     1      26.002   6.264  48.812  0.00  0.00    +0.000 C 
BRANCH  24  26
ATOM     25  C   UNL     1      28.305   5.286  48.405  0.00  0.00    +0.000 C 
ATOM     26  C   UNL     1      26.890   5.020  48.893  0.00  0.00    +0.000 C 
ENDBRANCH  24  26
ENDBRANCH  23  24
ENDBRANCH  22  23
ENDBRANCH  21  22
ENDBRANCH  19  21
ENDBRANCH  18  19
ENDBRANCH  17  18
BRANCH  17  27
ATOM     27  C   UNL     1      21.379   1.041  49.869  0.00  0.00    +0.000 C 
BRANCH  27  28
ATOM     28  C   UNL     1      19.923   1.441  49.962  0.00  0.00    +0.000 C 
ATOM     29  C   UNL     1      19.036   0.980  50.867  0.00  0.00    +0.000 C 
ATOM     30  C   UNL     1      17.616   1.474  50.900  0.00  0.00    +0.000 C 
ATOM     31  C   UNL     1      19.387  -0.009  51.944  0.00  0.00    +0.000 C 
ENDBRANCH  27  28
ENDBRANCH  17  27
ENDBRANCH   1  17
TORSDOF 12
ENDMDL
MODEL 7
REMARK VINA RESULT:    -7.445      2.971      8.208
REMARK INTER + INTRA:         -13.849
REMARK INTER:                 -12.553
REMARK INTRA:                  -1.296
REMARK UNBOUND:                -1.616
REMARK  Name = 
REMARK  15 active torsions:
REMARK  status: ('A' for Active; 'I' for Inactive)
REMARK    1  A    between atoms: C_1  and  C_2
REMARK    2  A    between atoms: C_2  and  C_3
REMARK    3  A    between atoms: C_3  and  C_4
REMARK    4  A    between atoms: C_4  and  C_5
REMARK    5  A    between atoms: C_5  and  C_6
REMARK    6  A    between atoms: C_6  and  C_7
REMARK    7  A    between atoms: C_7  and  O_9
REMARK    8  A    between atoms: O_9  and  C_10
REMARK    9  A    between atoms: C_10  and  C_11
REMARK   10  A    between atoms: C_10  and  C_16
REMARK   11  A    between atoms: C_11  and  C_12
REMARK   12  A    between atoms: C_13  and  C_14
REMARK   13  A    between atoms: C_13  and  C_15
REMARK   14  A    between atoms: C_21  and  O_22
REMARK   15  A    between atoms: C_25  and  O_26
REMARK                            x       y       z     vdW  Elec       q    Type
REMARK                         _______ _______ _______ _____ _____    ______ ____
ROOT
ATOM      1  C   UNL     1      22.145   1.464  52.775  0.00  0.00    +0.000 C 
ATOM      2  C   UNL     1      22.176   0.376  53.560  0.00  0.00    +0.000 C 
ATOM      3  C   UNL     1      21.010  -0.484  53.804  0.00  0.00    +0.000 C 
ATOM      4  O   UNL     1      21.088  -1.440  54.571  0.00  0.00    +0.000 OA
ATOM      5  C   UNL     1      19.759  -0.202  53.090  0.00  0.00    +0.000 A 
ATOM      6  C   UNL     1      18.658  -1.061  53.234  0.00  0.00    +0.000 A 
ATOM      7  C   UNL     1      17.466  -0.813  52.560  0.00  0.00    +0.000 A 
ATOM      8  C   UNL     1      17.361   0.303  51.739  0.00  0.00    +0.000 A 
ATOM      9  C   UNL     1      18.455   1.162  51.594  0.00  0.00    +0.000 A 
ATOM     10  C   UNL     1      19.671   0.919  52.261  0.00  0.00    +0.000 A 
ATOM     11  C   UNL     1      20.855   1.815  52.101  0.00  0.00    +0.000 C 
ATOM     12  O   UNL     1      20.776   2.827  51.416  0.00  0.00    +0.000 OA
ENDROOT
BRANCH   6  13
ATOM     13  O   UNL     1      18.672  -2.181  54.022  0.00  0.00    +0.000 OA
ATOM     14  H   UNL     1      18.170  -2.204  54.813  0.00  0.00    +0.000 HD
ENDBRANCH   6  13
BRANCH   9  15
ATOM     15  O   UNL     1      18.305   2.245  50.770  0.00  0.00    +0.000 OA
ATOM     16  H   UNL     1      18.818   3.016  50.913  0.00  0.00    +0.000 HD
ENDBRANCH   9  15
BRANCH   1  17
ATOM     17  C   UNL     1      23.404   2.278  52.463  0.00  0.00    +0.000 C 
BRANCH  17  18
ATOM     18  O   UNL     1      23.704   2.297  51.035  0.00  0.00    +0.000 OA
BRANCH  18  19
ATOM     19  C   UNL     1      24.065   3.491  50.507  0.00  0.00    +0.000 C 
ATOM     20  O   UNL     1      23.742   4.575  50.981  0.00  0.00    +0.000 OA
BRANCH  19  21
ATOM     21  C   UNL     1      25.041   3.365  49.356  0.00  0.00    +0.000 C 
BRANCH  21  22
ATOM     22  C   UNL     1      26.536   3.419  49.670  0.00  0.00    +0.000 C 
BRANCH  22  23
ATOM     23  C   UNL     1      27.367   4.433  48.883  0.00  0.00    +0.000 C 
BRANCH  23  24
ATOM     24  C   UNL     1      26.757   5.837  48.789  0.00  0.00    +0.000 C 
BRANCH  24  26
ATOM     25  C   UNL     1      29.144   6.297  48.072  0.00  0.00    +0.000 C 
ATOM     26  C   UNL     1      27.702   6.779  48.041  0.00  0.00    +0.000 C 
ENDBRANCH  24  26
ENDBRANCH  23  24
ENDBRANCH  22  23
ENDBRANCH  21  22
ENDBRANCH  19  21
ENDBRANCH  18  19
ENDBRANCH  17  18
BRANCH  17  27
ATOM     27  C   UNL     1      24.765   1.929  53.130  0.00  0.00    +0.000 C 
BRANCH  27  28
ATOM     28  C   UNL     1      25.524   0.759  52.545  0.00  0.00    +0.000 C 
ATOM     29  C   UNL     1      26.062  -0.261  53.245  0.00  0.00    +0.000 C 
ATOM     30  C   UNL     1      26.764  -1.402  52.562  0.00  0.00    +0.000 C 
ATOM     31  C   UNL     1      25.965  -0.382  54.741  0.00  0.00    +0.000 C 
ENDBRANCH  27  28
ENDBRANCH  17  27
ENDBRANCH   1  17
TORSDOF 12
ENDMDL
MODEL 8
REMARK VINA RESULT:    -7.391      3.624      6.497
REMARK INTER + INTRA:         -13.759
REMARK INTER:                 -11.834
REMARK INTRA:                  -1.925
REMARK UNBOUND:                -1.616
REMARK  Name = 
REMARK  15 active torsions:
REMARK  status: ('A' for Active; 'I' for Inactive)
REMARK    1  A    between atoms: C_1  and  C_2
REMARK    2  A    between atoms: C_2  and  C_3
REMARK    3  A    between atoms: C_3  and  C_4
REMARK    4  A    between atoms: C_4  and  C_5
REMARK    5  A    between atoms: C_5  and  C_6
REMARK    6  A    between atoms: C_6  and  C_7
REMARK    7  A    between atoms: C_7  and  O_9
REMARK    8  A    between atoms: O_9  and  C_10
REMARK    9  A    between atoms: C_10  and  C_11
REMARK   10  A    between atoms: C_10  and  C_16
REMARK   11  A    between atoms: C_11  and  C_12
REMARK   12  A    between atoms: C_13  and  C_14
REMARK   13  A    between atoms: C_13  and  C_15
REMARK   14  A    between atoms: C_21  and  O_22
REMARK   15  A    between atoms: C_25  and  O_26
REMARK                            x       y       z     vdW  Elec       q    Type
REMARK                         _______ _______ _______ _____ _____    ______ ____
ROOT
ATOM      1  C   UNL     1      24.469   3.894  50.911  0.00  0.00    +0.000 C 
ATOM      2  C   UNL     1      23.745   4.995  51.165  0.00  0.00    +0.000 C 
ATOM      3  C   UNL     1      24.126   6.341  50.717  0.00  0.00    +0.000 C 
ATOM      4  O   UNL     1      23.448   7.318  51.023  0.00  0.00    +0.000 OA
ATOM      5  C   UNL     1      25.315   6.496  49.870  0.00  0.00    +0.000 A 
ATOM      6  C   UNL     1      25.651   7.757  49.352  0.00  0.00    +0.000 A 
ATOM      7  C   UNL     1      26.770   7.922  48.542  0.00  0.00    +0.000 A 
ATOM      8  C   UNL     1      27.571   6.826  48.247  0.00  0.00    +0.000 A 
ATOM      9  C   UNL     1      27.242   5.568  48.762  0.00  0.00    +0.000 A 
ATOM     10  C   UNL     1      26.107   5.383  49.575  0.00  0.00    +0.000 A 
ATOM     11  C   UNL     1      25.728   4.043  50.116  0.00  0.00    +0.000 C 
ATOM     12  O   UNL     1      26.440   3.068  49.905  0.00  0.00    +0.000 OA
ENDROOT
BRANCH   6  13
ATOM     13  O   UNL     1      24.920   8.891  49.593  0.00  0.00    +0.000 OA
ATOM     14  H   UNL     1      24.619   9.414  48.877  0.00  0.00    +0.000 HD
ENDBRANCH   6  13
BRANCH   9  15
ATOM     15  O   UNL     1      28.058   4.517  48.439  0.00  0.00    +0.000 OA
ATOM     16  H   UNL     1      28.837   4.666  47.939  0.00  0.00    +0.000 HD
ENDBRANCH   9  15
BRANCH   1  17
ATOM     17  C   UNL     1      23.988   2.496  51.306  0.00  0.00    +0.000 C 
BRANCH  17  18
ATOM     18  O   UNL     1      22.539   2.364  51.198  0.00  0.00    +0.000 OA
BRANCH  18  19
ATOM     19  C   UNL     1      22.073   1.593  50.187  0.00  0.00    +0.000 C 
ATOM     20  O   UNL     1      22.326   1.790  49.003  0.00  0.00    +0.000 OA
BRANCH  19  21
ATOM     21  C   UNL     1      21.331   0.363  50.666  0.00  0.00    +0.000 C 
BRANCH  21  22
ATOM     22  C   UNL     1      19.985   0.559  51.364  0.00  0.00    +0.000 C 
BRANCH  22  23
ATOM     23  C   UNL     1      19.883   0.064  52.808  0.00  0.00    +0.000 C 
BRANCH  23  24
ATOM     24  C   UNL     1      20.864   0.717  53.788  0.00  0.00    +0.000 C 
BRANCH  24  26
ATOM     25  C   UNL     1      21.945  -1.557  54.080  0.00  0.00    +0.000 C 
ATOM     26  C   UNL     1      21.398  -0.322  54.777  0.00  0.00    +0.000 C 
ENDBRANCH  24  26
ENDBRANCH  23  24
ENDBRANCH  22  23
ENDBRANCH  21  22
ENDBRANCH  19  21
ENDBRANCH  18  19
ENDBRANCH  17  18
BRANCH  17  27
ATOM     27  C   UNL     1      24.317   1.905  52.707  0.00  0.00    +0.000 C 
BRANCH  27  28
ATOM     28  C   UNL     1      24.811   0.475  52.738  0.00  0.00    +0.000 C 
ATOM     29  C   UNL     1      26.101   0.086  52.676  0.00  0.00    +0.000 C 
ATOM     30  C   UNL     1      26.491  -1.364  52.757  0.00  0.00    +0.000 C 
ATOM     31  C   UNL     1      27.254   1.047  52.580  0.00  0.00    +0.000 C 
ENDBRANCH  27  28
ENDBRANCH  17  27
ENDBRANCH   1  17
TORSDOF 12
ENDMDL
MODEL 9
REMARK VINA RESULT:    -7.373      2.614      5.982
REMARK INTER + INTRA:         -13.731
REMARK INTER:                 -11.014
REMARK INTRA:                  -2.717
REMARK UNBOUND:                -1.616
REMARK  Name = 
REMARK  15 active torsions:
REMARK  status: ('A' for Active; 'I' for Inactive)
REMARK    1  A    between atoms: C_1  and  C_2
REMARK    2  A    between atoms: C_2  and  C_3
REMARK    3  A    between atoms: C_3  and  C_4
REMARK    4  A    between atoms: C_4  and  C_5
REMARK    5  A    between atoms: C_5  and  C_6
REMARK    6  A    between atoms: C_6  and  C_7
REMARK    7  A    between atoms: C_7  and  O_9
REMARK    8  A    between atoms: O_9  and  C_10
REMARK    9  A    between atoms: C_10  and  C_11
REMARK   10  A    between atoms: C_10  and  C_16
REMARK   11  A    between atoms: C_11  and  C_12
REMARK   12  A    between atoms: C_13  and  C_14
REMARK   13  A    between atoms: C_13  and  C_15
REMARK   14  A    between atoms: C_21  and  O_22
REMARK   15  A    between atoms: C_25  and  O_26
REMARK                            x       y       z     vdW  Elec       q    Type
REMARK                         _______ _______ _______ _____ _____    ______ ____
ROOT
ATOM      1  C   UNL     1      24.560   2.361  52.404  0.00  0.00    +0.000 C 
ATOM      2  C   UNL     1      23.582   3.227  52.714  0.00  0.00    +0.000 C 
ATOM      3  C   UNL     1      23.420   4.537  52.068  0.00  0.00    +0.000 C 
ATOM      4  O   UNL     1      22.535   5.307  52.428  0.00  0.00    +0.000 OA
ATOM      5  C   UNL     1      24.316   4.896  50.962  0.00  0.00    +0.000 A 
ATOM      6  C   UNL     1      24.126   6.102  50.267  0.00  0.00    +0.000 A 
ATOM      7  C   UNL     1      24.961   6.457  49.211  0.00  0.00    +0.000 A 
ATOM      8  C   UNL     1      26.001   5.611  48.845  0.00  0.00    +0.000 A 
ATOM      9  C   UNL     1      26.195   4.411  49.535  0.00  0.00    +0.000 A 
ATOM     10  C   UNL     1      25.352   4.033  50.599  0.00  0.00    +0.000 A 
ATOM     11  C   UNL     1      25.532   2.745  51.333  0.00  0.00    +0.000 C 
ATOM     12  O   UNL     1      26.466   2.001  51.057  0.00  0.00    +0.000 OA
ENDROOT
BRANCH   6  13
ATOM     13  O   UNL     1      23.130   6.994  50.561  0.00  0.00    +0.000 OA
ATOM     14  H   UNL     1      22.694   7.454  49.871  0.00  0.00    +0.000 HD
ENDBRANCH   6  13
BRANCH   9  15
ATOM     15  O   UNL     1      27.229   3.609  49.134  0.00  0.00    +0.000 OA
ATOM     16  H   UNL     1      27.119   3.035  48.400  0.00  0.00    +0.000 HD
ENDBRANCH   9  15
BRANCH   1  17
ATOM     17  C   UNL     1      24.635   0.965  53.027  0.00  0.00    +0.000 C 
BRANCH  17  18
ATOM     18  O   UNL     1      23.370   0.567  53.635  0.00  0.00    +0.000 OA
BRANCH  18  19
ATOM     19  C   UNL     1      22.602  -0.297  52.928  0.00  0.00    +0.000 C 
ATOM     20  O   UNL     1      22.761  -1.513  52.930  0.00  0.00    +0.000 OA
BRANCH  19  21
ATOM     21  C   UNL     1      21.421   0.368  52.253  0.00  0.00    +0.000 C 
BRANCH  21  22
ATOM     22  C   UNL     1      21.390   0.402  50.725  0.00  0.00    +0.000 C 
BRANCH  22  23
ATOM     23  C   UNL     1      21.412   1.784  50.069  0.00  0.00    +0.000 C 
BRANCH  23  24
ATOM     24  C   UNL     1      22.621   2.052  49.164  0.00  0.00    +0.000 C 
BRANCH  24  26
ATOM     25  C   UNL     1      21.326   4.210  48.863  0.00  0.00    +0.000 C 
ATOM     26  C   UNL     1      22.355   3.263  48.267  0.00  0.00    +0.000 C 
ENDBRANCH  24  26
ENDBRANCH  23  24
ENDBRANCH  22  23
ENDBRANCH  21  22
ENDBRANCH  19  21
ENDBRANCH  18  19
ENDBRANCH  17  18
BRANCH  17  27
ATOM     27  C   UNL     1      25.697   0.631  54.113  0.00  0.00    +0.000 C 
BRANCH  27  28
ATOM     28  C   UNL     1      26.747  -0.392  53.740  0.00  0.00    +0.000 C 
ATOM     29  C   UNL     1      28.063  -0.147  53.575  0.00  0.00    +0.000 C 
ATOM     30  C   UNL     1      29.033  -1.247  53.244  0.00  0.00    +0.000 C 
ATOM     31  C   UNL     1      28.683   1.211  53.757  0.00  0.00    +0.000 C 
ENDBRANCH  27  28
ENDBRANCH  17  27
ENDBRANCH   1  17
TORSDOF 12
ENDMDL
