MODEL 1
REMARK VINA RESULT:    -8.811      0.000      0.000
REMARK INTER + INTRA:         -10.455
REMARK INTER:                 -10.099
REMARK INTRA:                  -0.356
REMARK UNBOUND:                -0.356
REMARK  Name = 
REMARK  7 active torsions:
REMARK  status: ('A' for Active; 'I' for Inactive)
REMARK    1  A    between atoms: C_1  and  C_2
REMARK    2  A    between atoms: C_2  and  C_3
REMARK    3  A    between atoms: C_3  and  C_4
REMARK    4  A    between atoms: C_16  and  C_17
REMARK    5  A    between atoms: C_16  and  C_18
REMARK    6  A    between atoms: C_23  and  C_24
REMARK    7  A    between atoms: C_25  and  O_26
REMARK                            x       y       z     vdW  Elec       q    Type
REMARK                         _______ _______ _______ _____ _____    ______ ____
ROOT
ATOM      1  C   UNL     1      22.355   0.718  53.043  0.00  0.00    +0.000 A 
ATOM      2  C   UNL     1      21.104   1.173  52.805  0.00  0.00    +0.000 A 
ATOM      3  C   UNL     1      20.778   2.557  52.486  0.00  0.00    +0.000 A 
ATOM      4  O   UNL     1      19.623   2.956  52.376  0.00  0.00    +0.000 OA
ATOM      5  O   UNL     1      21.850   3.374  52.292  0.00  0.00    +0.000 OA
ATOM      6  C   UNL     1      23.078   2.743  52.094  0.00  0.00    +0.000 A 
ATOM      7  C   UNL     1      23.830   3.279  51.082  0.00  0.00    +0.000 A 
ATOM      8  C   UNL     1      25.203   3.185  51.164  0.00  0.00    +0.000 A 
ATOM      9  C   UNL     1      25.758   2.351  52.144  0.00  0.00    +0.000 A 
ATOM     10  C   UNL     1      24.916   1.471  52.885  0.00  0.00    +0.000 A 
ATOM     11  C   UNL     1      23.507   1.633  52.804  0.00  0.00    +0.000 A 
ATOM     12  O   UNL     1      25.460   0.508  53.714  0.00  0.00    +0.000 OA
ATOM     13  C   UNL     1      26.904   0.284  53.677  0.00  0.00    +0.000 C 
ATOM     14  C   UNL     1      27.398   0.021  55.109  0.00  0.00    +0.000 C 
ATOM     15  C   UNL     1      27.185  -0.946  52.807  0.00  0.00    +0.000 C 
ATOM     16  C   UNL     1      27.725   1.417  53.126  0.00  0.00    +0.000 C 
ATOM     17  C   UNL     1      27.196   2.384  52.380  0.00  0.00    +0.000 C 
ATOM     18  O   UNL     1      25.996   3.942  50.340  0.00  0.00    +0.000 OA
ATOM     19  C   UNL     1      25.368   4.518  49.181  0.00  0.00    +0.000 C 
ATOM     20  C   UNL     1      23.894   4.931  49.322  0.00  0.00    +0.000 C 
ATOM     21  C   UNL     1      23.669   6.122  50.257  0.00  0.00    +0.000 C 
ATOM     22  C   UNL     1      23.141   3.747  49.854  0.00  0.00    +0.000 C 
ENDROOT
BRANCH  22  23
ATOM     23  O   UNL     1      23.174   2.648  48.938  0.00  0.00    +0.000 OA
ATOM     24  H   UNL     1      22.622   1.926  49.278  0.00  0.00    +0.000 HD
ENDBRANCH  22  23
BRANCH   1  25
ATOM     25  C   UNL     1      22.501  -0.771  53.148  0.00  0.00    +0.000 C 
BRANCH  25  27
ATOM     26  C   UNL     1      23.131  -1.452  55.481  0.00  0.00    +0.000 C 
ATOM     27  C   UNL     1      21.992  -1.321  54.476  0.00  0.00    +0.000 C 
ENDBRANCH  25  27
ENDBRANCH   1  25
TORSDOF 3
ENDMDL
MODEL 2
REMARK VINA RESULT:    -8.531      1.651      4.988
REMARK INTER + INTRA:         -10.134
REMARK INTER:                  -9.851
REMARK INTRA:                  -0.283
REMARK UNBOUND:                -0.356
REMARK  Name = 
REMARK  7 active torsions:
REMARK  status: ('A' for Active; 'I' for Inactive)
REMARK    1  A    between atoms: C_1  and  C_2
REMARK    2  A    between atoms: C_2  and  C_3
REMARK    3  A    between atoms: C_3  and  C_4
REMARK    4  A    between atoms: C_16  and  C_17
REMARK    5  A    between atoms: C_16  and  C_18
REMARK    6  A    between atoms: C_23  and  C_24
REMARK    7  A    between atoms: C_25  and  O_26
REMARK                            x       y       z     vdW  Elec       q    Type
REMARK                         _______ _______ _______ _____ _____    ______ ____
ROOT
ATOM      1  C   UNL     1      24.299   3.174  49.884  0.00  0.00    +0.000 A 
ATOM      2  C   UNL     1      23.439   3.689  48.975  0.00  0.00    +0.000 A 
ATOM      3  C   UNL     1      22.158   3.093  48.624  0.00  0.00    +0.000 A 
ATOM      4  O   UNL     1      21.449   3.529  47.723  0.00  0.00    +0.000 OA
ATOM      5  O   UNL     1      21.786   2.028  49.388  0.00  0.00    +0.000 OA
ATOM      6  C   UNL     1      22.485   1.852  50.582  0.00  0.00    +0.000 A 
ATOM      7  C   UNL     1      21.694   1.546  51.658  0.00  0.00    +0.000 A 
ATOM      8  C   UNL     1      22.236   0.793  52.678  0.00  0.00    +0.000 A 
ATOM      9  C   UNL     1      23.620   0.576  52.685  0.00  0.00    +0.000 A 
ATOM     10  C   UNL     1      24.455   1.293  51.779  0.00  0.00    +0.000 A 
ATOM     11  C   UNL     1      23.854   2.020  50.715  0.00  0.00    +0.000 A 
ATOM     12  O   UNL     1      25.831   1.241  51.895  0.00  0.00    +0.000 OA
ATOM     13  C   UNL     1      26.411   0.591  53.071  0.00  0.00    +0.000 C 
ATOM     14  C   UNL     1      27.660  -0.191  52.634  0.00  0.00    +0.000 C 
ATOM     15  C   UNL     1      26.814   1.675  54.077  0.00  0.00    +0.000 C 
ATOM     16  C   UNL     1      25.512  -0.374  53.792  0.00  0.00    +0.000 C 
ATOM     17  C   UNL     1      24.189  -0.372  53.633  0.00  0.00    +0.000 C 
ATOM     18  O   UNL     1      21.420   0.226  53.624  0.00  0.00    +0.000 OA
ATOM     19  C   UNL     1      20.082   0.745  53.725  0.00  0.00    +0.000 C 
ATOM     20  C   UNL     1      19.426   1.233  52.424  0.00  0.00    +0.000 C 
ATOM     21  C   UNL     1      19.108   0.114  51.430  0.00  0.00    +0.000 C 
ATOM     22  C   UNL     1      20.370   2.204  51.777  0.00  0.00    +0.000 C 
ENDROOT
BRANCH  22  23
ATOM     23  O   UNL     1      20.575   3.361  52.594  0.00  0.00    +0.000 OA
ATOM     24  H   UNL     1      20.611   3.097  53.527  0.00  0.00    +0.000 HD
ENDBRANCH  22  23
BRANCH   1  25
ATOM     25  C   UNL     1      25.464   4.045  50.250  0.00  0.00    +0.000 C 
BRANCH  25  27
ATOM     26  C   UNL     1      27.305   4.872  48.757  0.00  0.00    +0.000 C 
ATOM     27  C   UNL     1      26.738   3.669  49.503  0.00  0.00    +0.000 C 
ENDBRANCH  25  27
ENDBRANCH   1  25
TORSDOF 3
ENDMDL
MODEL 3
REMARK VINA RESULT:    -8.468      1.459      5.229
REMARK INTER + INTRA:         -10.061
REMARK INTER:                  -9.666
REMARK INTRA:                  -0.395
REMARK UNBOUND:                -0.356
REMARK  Name = 
REMARK  7 active torsions:
REMARK  status: ('A' for Active; 'I' for Inactive)
REMARK    1  A    between atoms: C_1  and  C_2
REMARK    2  A    between atoms: C_2  and  C_3
REMARK    3  A    between atoms: C_3  and  C_4
REMARK    4  A    between atoms: C_16  and  C_17
REMARK    5  A    between atoms: C_16  and  C_18
REMARK    6  A    between atoms: C_23  and  C_24
REMARK    7  A    between atoms: C_25  and  O_26
REMARK                            x       y       z     vdW  Elec       q    Type
REMARK                         _______ _______ _______ _____ _____    ______ ____
ROOT
ATOM      1  C   UNL     1      22.095   1.312  52.889  0.00  0.00    +0.000 A 
ATOM      2  C   UNL     1      21.852   0.296  53.748  0.00  0.00    +0.000 A 
ATOM      3  C   UNL     1      22.718  -0.863  53.918  0.00  0.00    +0.000 A 
ATOM      4  O   UNL     1      22.417  -1.815  54.630  0.00  0.00    +0.000 OA
ATOM      5  O   UNL     1      23.902  -0.803  53.248  0.00  0.00    +0.000 OA
ATOM      6  C   UNL     1      24.279   0.453  52.773  0.00  0.00    +0.000 A 
ATOM      7  C   UNL     1      25.597   0.762  52.980  0.00  0.00    +0.000 A 
ATOM      8  C   UNL     1      26.219   1.617  52.095  0.00  0.00    +0.000 A 
ATOM      9  C   UNL     1      25.427   2.311  51.170  0.00  0.00    +0.000 A 
ATOM     10  C   UNL     1      24.007   2.286  51.293  0.00  0.00    +0.000 A 
ATOM     11  C   UNL     1      23.408   1.357  52.186  0.00  0.00    +0.000 A 
ATOM     12  O   UNL     1      23.217   3.112  50.516  0.00  0.00    +0.000 OA
ATOM     13  C   UNL     1      23.866   4.142  49.704  0.00  0.00    +0.000 C 
ATOM     14  C   UNL     1      23.130   4.241  48.358  0.00  0.00    +0.000 C 
ATOM     15  C   UNL     1      23.763   5.481  50.441  0.00  0.00    +0.000 C 
ATOM     16  C   UNL     1      25.320   3.910  49.399  0.00  0.00    +0.000 C 
ATOM     17  C   UNL     1      26.071   3.065  50.103  0.00  0.00    +0.000 C 
ATOM     18  O   UNL     1      27.586   1.730  52.090  0.00  0.00    +0.000 OA
ATOM     19  C   UNL     1      28.283   1.239  53.248  0.00  0.00    +0.000 C 
ATOM     20  C   UNL     1      27.676   0.020  53.961  0.00  0.00    +0.000 C 
ATOM     21  C   UNL     1      27.746  -1.274  53.148  0.00  0.00    +0.000 C 
ATOM     22  C   UNL     1      26.237   0.335  54.249  0.00  0.00    +0.000 C 
ENDROOT
BRANCH  22  23
ATOM     23  O   UNL     1      26.111   1.442  55.147  0.00  0.00    +0.000 OA
ATOM     24  H   UNL     1      25.327   1.319  55.706  0.00  0.00    +0.000 HD
ENDBRANCH  22  23
BRANCH   1  25
ATOM     25  C   UNL     1      21.193   2.505  53.014  0.00  0.00    +0.000 C 
BRANCH  25  27
ATOM     26  C   UNL     1      19.908   3.826  51.310  0.00  0.00    +0.000 C 
ATOM     27  C   UNL     1      20.043   2.481  52.014  0.00  0.00    +0.000 C 
ENDBRANCH  25  27
ENDBRANCH   1  25
TORSDOF 3
ENDMDL
MODEL 4
REMARK VINA RESULT:    -7.929      2.012      5.240
REMARK INTER + INTRA:          -9.444
REMARK INTER:                  -9.223
REMARK INTRA:                  -0.221
REMARK UNBOUND:                -0.356
REMARK  Name = 
REMARK  7 active torsions:
REMARK  status: ('A' for Active; 'I' for Inactive)
REMARK    1  A    between atoms: C_1  and  C_2
REMARK    2  A    between atoms: C_2  and  C_3
REMARK    3  A    between atoms: C_3  and  C_4
REMARK    4  A    between atoms: C_16  and  C_17
REMARK    5  A    between atoms: C_16  and  C_18
REMARK    6  A    between atoms: C_23  and  C_24
REMARK    7  A    between atoms: C_25  and  O_26
REMARK                            x       y       z     vdW  Elec       q    Type
REMARK                         _______ _______ _______ _____ _____    ______ ____
ROOT
ATOM      1  C   UNL     1      25.264   2.409  50.975  0.00  0.00    +0.000 A 
ATOM      2  C   UNL     1      26.397   2.930  50.450  0.00  0.00    +0.000 A 
ATOM      3  C   UNL     1      26.432   4.013  49.477  0.00  0.00    +0.000 A 
ATOM      4  O   UNL     1      27.470   4.392  48.945  0.00  0.00    +0.000 OA
ATOM      5  O   UNL     1      25.229   4.596  49.216  0.00  0.00    +0.000 OA
ATOM      6  C   UNL     1      24.204   4.327  50.124  0.00  0.00    +0.000 A 
ATOM      7  C   UNL     1      23.461   5.423  50.476  0.00  0.00    +0.000 A 
ATOM      8  C   UNL     1      22.145   5.234  50.839  0.00  0.00    +0.000 A 
ATOM      9  C   UNL     1      21.694   3.926  51.060  0.00  0.00    +0.000 A 
ATOM     10  C   UNL     1      22.631   2.853  51.110  0.00  0.00    +0.000 A 
ATOM     11  C   UNL     1      23.967   3.082  50.684  0.00  0.00    +0.000 A 
ATOM     12  O   UNL     1      22.236   1.591  51.515  0.00  0.00    +0.000 OA
ATOM     13  C   UNL     1      20.892   1.420  52.066  0.00  0.00    +0.000 C 
ATOM     14  C   UNL     1      20.323   0.083  51.566  0.00  0.00    +0.000 C 
ATOM     15  C   UNL     1      20.992   1.391  53.595  0.00  0.00    +0.000 C 
ATOM     16  C   UNL     1      19.898   2.489  51.704  0.00  0.00    +0.000 C 
ATOM     17  C   UNL     1      20.270   3.684  51.251  0.00  0.00    +0.000 C 
ATOM     18  O   UNL     1      21.292   6.306  50.920  0.00  0.00    +0.000 OA
ATOM     19  C   UNL     1      21.892   7.611  50.987  0.00  0.00    +0.000 C 
ATOM     20  C   UNL     1      23.210   7.811  50.221  0.00  0.00    +0.000 C 
ATOM     21  C   UNL     1      23.058   7.762  48.699  0.00  0.00    +0.000 C 
ATOM     22  C   UNL     1      24.152   6.724  50.651  0.00  0.00    +0.000 C 
ENDROOT
BRANCH  22  23
ATOM     23  O   UNL     1      24.466   6.821  52.043  0.00  0.00    +0.000 OA
ATOM     24  H   UNL     1      23.647   6.908  52.555  0.00  0.00    +0.000 HD
ENDBRANCH  22  23
BRANCH   1  25
ATOM     25  C   UNL     1      25.451   1.446  52.110  0.00  0.00    +0.000 C 
BRANCH  25  27
ATOM     26  C   UNL     1      26.754  -0.662  52.507  0.00  0.00    +0.000 C 
ATOM     27  C   UNL     1      26.836   0.811  52.122  0.00  0.00    +0.000 C 
ENDBRANCH  25  27
ENDBRANCH   1  25
TORSDOF 3
ENDMDL
MODEL 5
REMARK VINA RESULT:    -7.903      1.985      5.065
REMARK INTER + INTRA:          -9.413
REMARK INTER:                  -9.109
REMARK INTRA:                  -0.305
REMARK UNBOUND:                -0.356
REMARK  Name = 
REMARK  7 active torsions:
REMARK  status: ('A' for Active; 'I' for Inactive)
REMARK    1  A    between atoms: C_1  and  C_2
REMARK    2  A    between atoms: C_2  and  C_3
REMARK    3  A    between atoms: C_3  and  C_4
REMARK    4  A    between atoms: C_16  and  C_17
REMARK    5  A    between atoms: C_16  and  C_18
REMARK    6  A    between atoms: C_23  and  C_24
REMARK    7  A    between atoms: C_25  and  O_26
REMARK                            x       y       z     vdW  Elec       q    Type
REMARK                         _______ _______ _______ _____ _____    ______ ____
ROOT
ATOM      1  C   UNL     1      22.687  -0.099  53.429  0.00  0.00    +0.000 A 
ATOM      2  C   UNL     1      23.903  -0.384  53.947  0.00  0.00    +0.000 A 
ATOM      3  C   UNL     1      25.163  -0.205  53.238  0.00  0.00    +0.000 A 
ATOM      4  O   UNL     1      26.239  -0.569  53.699  0.00  0.00    +0.000 OA
ATOM      5  O   UNL     1      25.064   0.422  52.033  0.00  0.00    +0.000 OA
ATOM      6  C   UNL     1      23.867   1.094  51.784  0.00  0.00    +0.000 A 
ATOM      7  C   UNL     1      24.024   2.333  51.220  0.00  0.00    +0.000 A 
ATOM      8  C   UNL     1      23.019   2.816  50.408  0.00  0.00    +0.000 A 
ATOM      9  C   UNL     1      21.795   2.135  50.384  0.00  0.00    +0.000 A 
ATOM     10  C   UNL     1      21.539   1.102  51.333  0.00  0.00    +0.000 A 
ATOM     11  C   UNL     1      22.615   0.603  52.117  0.00  0.00    +0.000 A 
ATOM     12  O   UNL     1      20.277   0.552  51.454  0.00  0.00    +0.000 OA
ATOM     13  C   UNL     1      19.169   1.172  50.727  0.00  0.00    +0.000 C 
ATOM     14  C   UNL     1      18.249   0.062  50.195  0.00  0.00    +0.000 C 
ATOM     15  C   UNL     1      18.386   2.061  51.698  0.00  0.00    +0.000 C 
ATOM     16  C   UNL     1      19.558   2.027  49.553  0.00  0.00    +0.000 C 
ATOM     17  C   UNL     1      20.790   2.506  49.396  0.00  0.00    +0.000 C 
ATOM     18  O   UNL     1      23.246   3.903  49.604  0.00  0.00    +0.000 OA
ATOM     19  C   UNL     1      24.393   4.714  49.914  0.00  0.00    +0.000 C 
ATOM     20  C   UNL     1      25.621   3.990  50.490  0.00  0.00    +0.000 C 
ATOM     21  C   UNL     1      26.321   3.064  49.494  0.00  0.00    +0.000 C 
ATOM     22  C   UNL     1      25.157   3.179  51.665  0.00  0.00    +0.000 C 
ENDROOT
BRANCH  22  23
ATOM     23  O   UNL     1      24.643   4.012  52.709  0.00  0.00    +0.000 OA
ATOM     24  H   UNL     1      24.024   3.503  53.255  0.00  0.00    +0.000 HD
ENDBRANCH  22  23
BRANCH   1  25
ATOM     25  C   UNL     1      21.536  -0.158  54.390  0.00  0.00    +0.000 C 
BRANCH  25  27
ATOM     26  C   UNL     1      19.445  -1.415  53.799  0.00  0.00    +0.000 C 
ATOM     27  C   UNL     1      20.844  -1.515  54.397  0.00  0.00    +0.000 C 
ENDBRANCH  25  27
ENDBRANCH   1  25
TORSDOF 3
ENDMDL
MODEL 6
REMARK VINA RESULT:    -7.733      1.516      4.636
REMARK INTER + INTRA:          -9.220
REMARK INTER:                  -8.861
REMARK INTRA:                  -0.359
REMARK UNBOUND:                -0.356
REMARK  Name = 
REMARK  7 active torsions:
REMARK  status: ('A' for Active; 'I' for Inactive)
REMARK    1  A    between atoms: C_1  and  C_2
REMARK    2  A    between atoms: C_2  and  C_3
REMARK    3  A    between atoms: C_3  and  C_4
REMARK    4  A    between atoms: C_16  and  C_17
REMARK    5  A    between atoms: C_16  and  C_18
REMARK    6  A    between atoms: C_23  and  C_24
REMARK    7  A    between atoms: C_25  and  O_26
REMARK                            x       y       z     vdW  Elec       q    Type
REMARK                         _______ _______ _______ _____ _____    ______ ____
ROOT
ATOM      1  C   UNL     1      25.617   1.644  52.104  0.00  0.00    +0.000 A 
ATOM      2  C   UNL     1      26.505   2.401  51.419  0.00  0.00    +0.000 A 
ATOM      3  C   UNL     1      26.197   3.123  50.192  0.00  0.00    +0.000 A 
ATOM      4  O   UNL     1      27.051   3.716  49.541  0.00  0.00    +0.000 OA
ATOM      5  O   UNL     1      24.884   3.116  49.830  0.00  0.00    +0.000 OA
ATOM      6  C   UNL     1      23.976   2.724  50.814  0.00  0.00    +0.000 A 
ATOM      7  C   UNL     1      22.854   3.507  50.889  0.00  0.00    +0.000 A 
ATOM      8  C   UNL     1      21.683   2.934  51.338  0.00  0.00    +0.000 A 
ATOM      9  C   UNL     1      21.742   1.658  51.915  0.00  0.00    +0.000 A 
ATOM     10  C   UNL     1      23.007   1.074  52.214  0.00  0.00    +0.000 A 
ATOM     11  C   UNL     1      24.185   1.673  51.693  0.00  0.00    +0.000 A 
ATOM     12  O   UNL     1      23.088  -0.091  52.954  0.00  0.00    +0.000 OA
ATOM     13  C   UNL     1      21.872  -0.611  53.580  0.00  0.00    +0.000 C 
ATOM     14  C   UNL     1      21.882  -2.144  53.474  0.00  0.00    +0.000 C 
ATOM     15  C   UNL     1      21.872  -0.201  55.057  0.00  0.00    +0.000 C 
ATOM     16  C   UNL     1      20.577  -0.133  52.984  0.00  0.00    +0.000 C 
ATOM     17  C   UNL     1      20.503   0.953  52.216  0.00  0.00    +0.000 C 
ATOM     18  O   UNL     1      20.487   3.582  51.163  0.00  0.00    +0.000 OA
ATOM     19  C   UNL     1      20.547   4.987  50.858  0.00  0.00    +0.000 C 
ATOM     20  C   UNL     1      21.743   5.465  50.019  0.00  0.00    +0.000 C 
ATOM     21  C   UNL     1      21.724   4.969  48.571  0.00  0.00    +0.000 C 
ATOM     22  C   UNL     1      22.992   4.970  50.686  0.00  0.00    +0.000 C 
ENDROOT
BRANCH  22  23
ATOM     23  O   UNL     1      23.152   5.537  51.990  0.00  0.00    +0.000 OA
ATOM     24  H   UNL     1      24.095   5.593  52.206  0.00  0.00    +0.000 HD
ENDBRANCH  22  23
BRANCH   1  25
ATOM     25  C   UNL     1      26.074   1.154  53.446  0.00  0.00    +0.000 C 
BRANCH  25  27
ATOM     26  C   UNL     1      26.518  -1.156  52.570  0.00  0.00    +0.000 C 
ATOM     27  C   UNL     1      27.091   0.024  53.346  0.00  0.00    +0.000 C 
ENDBRANCH  25  27
ENDBRANCH   1  25
TORSDOF 3
ENDMDL
MODEL 7
REMARK VINA RESULT:    -7.169      2.020      5.195
REMARK INTER + INTRA:          -8.573
REMARK INTER:                  -8.368
REMARK INTRA:                  -0.204
REMARK UNBOUND:                -0.356
REMARK  Name = 
REMARK  7 active torsions:
REMARK  status: ('A' for Active; 'I' for Inactive)
REMARK    1  A    between atoms: C_1  and  C_2
REMARK    2  A    between atoms: C_2  and  C_3
REMARK    3  A    between atoms: C_3  and  C_4
REMARK    4  A    between atoms: C_16  and  C_17
REMARK    5  A    between atoms: C_16  and  C_18
REMARK    6  A    between atoms: C_23  and  C_24
REMARK    7  A    between atoms: C_25  and  O_26
REMARK                            x       y       z     vdW  Elec       q    Type
REMARK                         _______ _______ _______ _____ _____    ______ ____
ROOT
ATOM      1  C   UNL     1      23.277   1.156  52.325  0.00  0.00    +0.000 A 
ATOM      2  C   UNL     1      24.608   1.134  52.563  0.00  0.00    +0.000 A 
ATOM      3  C   UNL     1      25.605   1.795  51.731  0.00  0.00    +0.000 A 
ATOM      4  O   UNL     1      26.811   1.671  51.918  0.00  0.00    +0.000 OA
ATOM      5  O   UNL     1      25.101   2.587  50.744  0.00  0.00    +0.000 OA
ATOM      6  C   UNL     1      23.753   2.927  50.853  0.00  0.00    +0.000 A 
ATOM      7  C   UNL     1      23.480   4.243  50.588  0.00  0.00    +0.000 A 
ATOM      8  C   UNL     1      22.238   4.567  50.084  0.00  0.00    +0.000 A 
ATOM      9  C   UNL     1      21.239   3.585  50.086  0.00  0.00    +0.000 A 
ATOM     10  C   UNL     1      21.451   2.360  50.785  0.00  0.00    +0.000 A 
ATOM     11  C   UNL     1      22.758   2.046  51.248  0.00  0.00    +0.000 A 
ATOM     12  O   UNL     1      20.416   1.461  50.963  0.00  0.00    +0.000 OA
ATOM     13  C   UNL     1      19.062   1.868  50.589  0.00  0.00    +0.000 C 
ATOM     14  C   UNL     1      18.345   0.666  49.954  0.00  0.00    +0.000 C 
ATOM     15  C   UNL     1      18.314   2.296  51.856  0.00  0.00    +0.000 C 
ATOM     16  C   UNL     1      18.971   3.007  49.611  0.00  0.00    +0.000 C 
ATOM     17  C   UNL     1      19.987   3.837  49.386  0.00  0.00    +0.000 C 
ATOM     18  O   UNL     1      22.017   5.807  49.541  0.00  0.00    +0.000 OA
ATOM     19  C   UNL     1      22.973   6.835  49.856  0.00  0.00    +0.000 C 
ATOM     20  C   UNL     1      24.433   6.393  50.043  0.00  0.00    +0.000 C 
ATOM     21  C   UNL     1      25.107   5.912  48.756  0.00  0.00    +0.000 C 
ATOM     22  C   UNL     1      24.443   5.275  51.044  0.00  0.00    +0.000 C 
ENDROOT
BRANCH  22  23
ATOM     23  O   UNL     1      23.978   5.712  52.325  0.00  0.00    +0.000 OA
ATOM     24  H   UNL     1      23.522   4.982  52.771  0.00  0.00    +0.000 HD
ENDBRANCH  22  23
BRANCH   1  25
ATOM     25  C   UNL     1      22.408   0.591  53.409  0.00  0.00    +0.000 C 
BRANCH  25  27
ATOM     26  C   UNL     1      21.379  -1.467  54.412  0.00  0.00    +0.000 C 
ATOM     27  C   UNL     1      22.433  -0.933  53.450  0.00  0.00    +0.000 C 
ENDBRANCH  25  27
ENDBRANCH   1  25
TORSDOF 3
ENDMDL
MODEL 8
REMARK VINA RESULT:    -6.910      2.211      5.482
REMARK INTER + INTRA:          -8.276
REMARK INTER:                  -7.968
REMARK INTRA:                  -0.308
REMARK UNBOUND:                -0.356
REMARK  Name = 
REMARK  7 active torsions:
REMARK  status: ('A' for Active; 'I' for Inactive)
REMARK    1  A    between atoms: C_1  and  C_2
REMARK    2  A    between atoms: C_2  and  C_3
REMARK    3  A    between atoms: C_3  and  C_4
REMARK    4  A    between atoms: C_16  and  C_17
REMARK    5  A    between atoms: C_16  and  C_18
REMARK    6  A    between atoms: C_23  and  C_24
REMARK    7  A    between atoms: C_25  and  O_26
REMARK                            x       y       z     vdW  Elec       q    Type
REMARK                         _______ _______ _______ _____ _____    ______ ____
ROOT
ATOM      1  C   UNL     1      20.476   1.666  52.160  0.00  0.00    +0.000 A 
ATOM      2  C   UNL     1      20.604   0.921  53.282  0.00  0.00    +0.000 A 
ATOM      3  C   UNL     1      21.739   0.055  53.570  0.00  0.00    +0.000 A 
ATOM      4  O   UNL     1      21.775  -0.684  54.548  0.00  0.00    +0.000 OA
ATOM      5  O   UNL     1      22.774   0.144  52.689  0.00  0.00    +0.000 OA
ATOM      6  C   UNL     1      22.768   1.252  51.842  0.00  0.00    +0.000 A 
ATOM      7  C   UNL     1      23.989   1.859  51.701  0.00  0.00    +0.000 A 
ATOM      8  C   UNL     1      24.260   2.519  50.521  0.00  0.00    +0.000 A 
ATOM      9  C   UNL     1      23.209   2.743  49.623  0.00  0.00    +0.000 A 
ATOM     10  C   UNL     1      21.866   2.479  50.024  0.00  0.00    +0.000 A 
ATOM     11  C   UNL     1      21.634   1.756  51.225  0.00  0.00    +0.000 A 
ATOM     12  O   UNL     1      20.803   2.870  49.231  0.00  0.00    +0.000 OA
ATOM     13  C   UNL     1      21.070   3.720  48.071  0.00  0.00    +0.000 C 
ATOM     14  C   UNL     1      20.159   3.273  46.916  0.00  0.00    +0.000 C 
ATOM     15  C   UNL     1      20.745   5.170  48.444  0.00  0.00    +0.000 C 
ATOM     16  C   UNL     1      22.483   3.697  47.557  0.00  0.00    +0.000 C 
ATOM     17  C   UNL     1      23.503   3.259  48.293  0.00  0.00    +0.000 C 
ATOM     18  O   UNL     1      25.546   2.890  50.219  0.00  0.00    +0.000 OA
ATOM     19  C   UNL     1      26.490   2.907  51.305  0.00  0.00    +0.000 C 
ATOM     20  C   UNL     1      26.296   1.859  52.412  0.00  0.00    +0.000 C 
ATOM     21  C   UNL     1      26.568   0.421  51.961  0.00  0.00    +0.000 C 
ATOM     22  C   UNL     1      24.875   1.958  52.886  0.00  0.00    +0.000 C 
ENDROOT
BRANCH  22  23
ATOM     23  O   UNL     1      24.606   3.234  53.476  0.00  0.00    +0.000 OA
ATOM     24  H   UNL     1      25.441   3.705  53.624  0.00  0.00    +0.000 HD
ENDBRANCH  22  23
BRANCH   1  25
ATOM     25  C   UNL     1      19.338   2.643  52.148  0.00  0.00    +0.000 C 
BRANCH  25  27
ATOM     26  C   UNL     1      17.834   2.073  50.221  0.00  0.00    +0.000 C 
ATOM     27  C   UNL     1      18.018   2.005  51.733  0.00  0.00    +0.000 C 
ENDBRANCH  25  27
ENDBRANCH   1  25
TORSDOF 3
ENDMDL
MODEL 9
REMARK VINA RESULT:    -6.777      2.801      6.179
REMARK INTER + INTRA:          -8.124
REMARK INTER:                  -7.669
REMARK INTRA:                  -0.454
REMARK UNBOUND:                -0.356
REMARK  Name = 
REMARK  7 active torsions:
REMARK  status: ('A' for Active; 'I' for Inactive)
REMARK    1  A    between atoms: C_1  and  C_2
REMARK    2  A    between atoms: C_2  and  C_3
REMARK    3  A    between atoms: C_3  and  C_4
REMARK    4  A    between atoms: C_16  and  C_17
REMARK    5  A    between atoms: C_16  and  C_18
REMARK    6  A    between atoms: C_23  and  C_24
REMARK    7  A    between atoms: C_25  and  O_26
REMARK                            x       y       z     vdW  Elec       q    Type
REMARK                         _______ _______ _______ _____ _____    ______ ____
ROOT
ATOM      1  C   UNL     1      23.699   2.656  50.855  0.00  0.00    +0.000 A 
ATOM      2  C   UNL     1      24.850   2.378  51.511  0.00  0.00    +0.000 A 
ATOM      3  C   UNL     1      26.176   2.758  51.045  0.00  0.00    +0.000 A 
ATOM      4  O   UNL     1      27.204   2.402  51.611  0.00  0.00    +0.000 OA
ATOM      5  O   UNL     1      26.194   3.564  49.946  0.00  0.00    +0.000 OA
ATOM      6  C   UNL     1      24.988   4.180  49.614  0.00  0.00    +0.000 A 
ATOM      7  C   UNL     1      25.106   5.502  49.273  0.00  0.00    +0.000 A 
ATOM      8  C   UNL     1      24.188   6.037  48.394  0.00  0.00    +0.000 A 
ATOM      9  C   UNL     1      23.051   5.284  48.075  0.00  0.00    +0.000 A 
ATOM     10  C   UNL     1      22.760   4.095  48.807  0.00  0.00    +0.000 A 
ATOM     11  C   UNL     1      23.753   3.554  49.668  0.00  0.00    +0.000 A 
ATOM     12  O   UNL     1      21.552   3.444  48.642  0.00  0.00    +0.000 OA
ATOM     13  C   UNL     1      20.507   4.093  47.850  0.00  0.00    +0.000 C 
ATOM     14  C   UNL     1      19.783   3.021  47.019  0.00  0.00    +0.000 C 
ATOM     15  C   UNL     1      19.510   4.755  48.807  0.00  0.00    +0.000 C 
ATOM     16  C   UNL     1      20.979   5.152  46.893  0.00  0.00    +0.000 C 
ATOM     17  C   UNL     1      22.170   5.737  47.007  0.00  0.00    +0.000 C 
ATOM     18  O   UNL     1      24.425   7.254  47.806  0.00  0.00    +0.000 OA
ATOM     19  C   UNL     1      25.432   8.084  48.412  0.00  0.00    +0.000 C 
ATOM     20  C   UNL     1      26.626   7.365  49.061  0.00  0.00    +0.000 C 
ATOM     21  C   UNL     1      27.549   6.665  48.061  0.00  0.00    +0.000 C 
ATOM     22  C   UNL     1      26.077   6.344  50.014  0.00  0.00    +0.000 C 
ENDROOT
BRANCH  22  23
ATOM     23  O   UNL     1      25.339   6.958  51.075  0.00  0.00    +0.000 OA
ATOM     24  H   UNL     1      24.733   7.621  50.707  0.00  0.00    +0.000 HD
ENDBRANCH  22  23
BRANCH   1  25
ATOM     25  C   UNL     1      22.432   2.360  51.602  0.00  0.00    +0.000 C 
BRANCH  25  27
ATOM     26  C   UNL     1      20.301   3.566  52.153  0.00  0.00    +0.000 C 
ATOM     27  C   UNL     1      21.822   3.601  52.242  0.00  0.00    +0.000 C 
ENDBRANCH  25  27
ENDBRANCH   1  25
TORSDOF 3
ENDMDL
