MODEL 1
REMARK VINA RESULT:    -9.969      0.000      0.000
REMARK INTER + INTRA:         -12.524
REMARK INTER:                 -11.717
REMARK INTRA:                  -0.807
REMARK UNBOUND:                -0.807
REMARK  Name = 
REMARK  5 active torsions:
REMARK  status: ('A' for Active; 'I' for Inactive)
REMARK    1  A    between atoms: C_1  and  N_2
REMARK    2  A    between atoms: C_5  and  C_6
REMARK    3  A    between atoms: C_7  and  O_8
REMARK    4  A    between atoms: C_10  and  O_11
REMARK    5  A    between atoms: C_16  and  C_17
REMARK                            x       y       z     vdW  Elec       q    Type
REMARK                         _______ _______ _______ _____ _____    ______ ____
ROOT
ATOM      1  C   UNL     1      23.923  -0.324  54.017  0.00  0.00    +0.000 A 
ATOM      2  C   UNL     1      23.116  -1.092  54.877  0.00  0.00    +0.000 A 
ATOM      3  C   UNL     1      21.723  -1.013  54.825  0.00  0.00    +0.000 A 
ATOM      4  C   UNL     1      21.114  -0.152  53.913  0.00  0.00    +0.000 A 
ATOM      5  C   UNL     1      21.890   0.640  53.058  0.00  0.00    +0.000 A 
ATOM      6  C   UNL     1      21.283   1.583  52.095  0.00  0.00    +0.000 A 
ATOM      7  O   UNL     1      20.083   1.724  51.909  0.00  0.00    +0.000 OA
ATOM      8  C   UNL     1      22.212   2.408  51.314  0.00  0.00    +0.000 A 
ATOM      9  C   UNL     1      23.531   2.229  51.439  0.00  0.00    +0.000 A 
ATOM     10  O   UNL     1      24.105   1.303  52.292  0.00  0.00    +0.000 OA
ATOM     11  C   UNL     1      23.289   0.551  53.111  0.00  0.00    +0.000 A 
ENDROOT
BRANCH   1  16
ATOM     12  C   UNL     1      29.404   0.186  53.370  0.00  0.00    +0.000 C 
ATOM     13  N   UNL     1      28.299  -0.564  53.930  0.00  0.00    +0.000 N 
ATOM     14  C   UNL     1      27.628   0.058  55.057  0.00  0.00    +0.000 C 
ATOM     15  C   UNL     1      26.135   0.135  54.995  0.00  0.00    +0.000 C 
ATOM     16  C   UNL     1      25.394  -0.455  54.045  0.00  0.00    +0.000 C 
ATOM     17  C   UNL     1      26.018  -1.273  52.954  0.00  0.00    +0.000 C 
ATOM     18  C   UNL     1      27.549  -1.398  53.006  0.00  0.00    +0.000 C 
ATOM     19  H   UNL     1      28.742  -1.332  54.435  0.00  0.00    +0.000 HD
ENDBRANCH   1  16
BRANCH   9  20
ATOM     20  C   UNL     1      24.495   3.034  50.658  0.00  0.00    +0.000 A 
ATOM     21  C   UNL     1      24.076   4.185  49.974  0.00  0.00    +0.000 A 
ATOM     22  C   UNL     1      24.987   4.957  49.245  0.00  0.00    +0.000 A 
ATOM     23  C   UNL     1      26.329   4.586  49.199  0.00  0.00    +0.000 A 
ATOM     24 CL   UNL     1      27.457   5.538  48.318  0.00  0.00    +0.000 Cl
ATOM     25  C   UNL     1      26.766   3.448  49.869  0.00  0.00    +0.000 A 
ATOM     26  C   UNL     1      25.856   2.681  50.598  0.00  0.00    +0.000 A 
ENDBRANCH   9  20
BRANCH   2  27
ATOM     27  O   UNL     1      23.704  -1.936  55.780  0.00  0.00    +0.000 OA
ATOM     28  H   UNL     1      23.220  -2.658  56.130  0.00  0.00    +0.000 HD
ENDBRANCH   2  27
BRANCH   4  29
ATOM     29  O   UNL     1      19.751  -0.089  53.876  0.00  0.00    +0.000 OA
ATOM     30  H   UNL     1      19.314   0.717  54.074  0.00  0.00    +0.000 HD
ENDBRANCH   4  29
TORSDOF 4
ENDMDL
MODEL 2
REMARK VINA RESULT:    -9.238      2.428      5.441
REMARK INTER + INTRA:         -11.664
REMARK INTER:                 -10.835
REMARK INTRA:                  -0.830
REMARK UNBOUND:                -0.807
REMARK  Name = 
REMARK  5 active torsions:
REMARK  status: ('A' for Active; 'I' for Inactive)
REMARK    1  A    between atoms: C_1  and  N_2
REMARK    2  A    between atoms: C_5  and  C_6
REMARK    3  A    between atoms: C_7  and  O_8
REMARK    4  A    between atoms: C_10  and  O_11
REMARK    5  A    between atoms: C_16  and  C_17
REMARK                            x       y       z     vdW  Elec       q    Type
REMARK                         _______ _______ _______ _____ _____    ______ ____
ROOT
ATOM      1  C   UNL     1      21.771   1.820  51.861  0.00  0.00    +0.000 A 
ATOM      2  C   UNL     1      20.374   1.899  51.708  0.00  0.00    +0.000 A 
ATOM      3  C   UNL     1      19.521   1.037  52.399  0.00  0.00    +0.000 A 
ATOM      4  C   UNL     1      20.056   0.072  53.251  0.00  0.00    +0.000 A 
ATOM      5  C   UNL     1      21.442  -0.044  53.408  0.00  0.00    +0.000 A 
ATOM      6  C   UNL     1      22.050  -1.071  54.282  0.00  0.00    +0.000 A 
ATOM      7  O   UNL     1      21.428  -1.859  54.979  0.00  0.00    +0.000 OA
ATOM      8  C   UNL     1      23.516  -1.133  54.296  0.00  0.00    +0.000 A 
ATOM      9  C   UNL     1      24.229  -0.239  53.603  0.00  0.00    +0.000 A 
ATOM     10  O   UNL     1      23.667   0.764  52.834  0.00  0.00    +0.000 OA
ATOM     11  C   UNL     1      22.294   0.829  52.716  0.00  0.00    +0.000 A 
ENDROOT
BRANCH   1  16
ATOM     12  C   UNL     1      26.019   4.736  49.817  0.00  0.00    +0.000 C 
ATOM     13  N   UNL     1      24.585   4.568  49.924  0.00  0.00    +0.000 N 
ATOM     14  C   UNL     1      24.027   3.454  49.179  0.00  0.00    +0.000 C 
ATOM     15  C   UNL     1      23.105   2.539  49.921  0.00  0.00    +0.000 C 
ATOM     16  C   UNL     1      22.662   2.773  51.166  0.00  0.00    +0.000 C 
ATOM     17  C   UNL     1      23.052   4.005  51.924  0.00  0.00    +0.000 C 
ATOM     18  C   UNL     1      23.977   4.981  51.178  0.00  0.00    +0.000 C 
ATOM     19  H   UNL     1      24.196   5.325  49.360  0.00  0.00    +0.000 HD
ENDBRANCH   1  16
BRANCH   9  20
ATOM     20  C   UNL     1      25.707  -0.265  53.605  0.00  0.00    +0.000 A 
ATOM     21  C   UNL     1      26.437   0.643  54.389  0.00  0.00    +0.000 A 
ATOM     22  C   UNL     1      27.835   0.614  54.404  0.00  0.00    +0.000 A 
ATOM     23  C   UNL     1      28.518  -0.329  53.637  0.00  0.00    +0.000 A 
ATOM     24 CL   UNL     1      30.236  -0.380  53.662  0.00  0.00    +0.000 Cl
ATOM     25  C   UNL     1      27.815  -1.237  52.852  0.00  0.00    +0.000 A 
ATOM     26  C   UNL     1      26.419  -1.208  52.841  0.00  0.00    +0.000 A 
ENDBRANCH   9  20
BRANCH   2  27
ATOM     27  O   UNL     1      19.839   2.840  50.870  0.00  0.00    +0.000 OA
ATOM     28  H   UNL     1      20.077   2.850  49.964  0.00  0.00    +0.000 HD
ENDBRANCH   2  27
BRANCH   4  29
ATOM     29  O   UNL     1      19.206  -0.762  53.919  0.00  0.00    +0.000 OA
ATOM     30  H   UNL     1      19.084  -1.642  53.621  0.00  0.00    +0.000 HD
ENDBRANCH   4  29
TORSDOF 4
ENDMDL
MODEL 3
REMARK VINA RESULT:    -9.169      1.769      2.805
REMARK INTER + INTRA:         -11.584
REMARK INTER:                 -10.793
REMARK INTRA:                  -0.791
REMARK UNBOUND:                -0.807
REMARK  Name = 
REMARK  5 active torsions:
REMARK  status: ('A' for Active; 'I' for Inactive)
REMARK    1  A    between atoms: C_1  and  N_2
REMARK    2  A    between atoms: C_5  and  C_6
REMARK    3  A    between atoms: C_7  and  O_8
REMARK    4  A    between atoms: C_10  and  O_11
REMARK    5  A    between atoms: C_16  and  C_17
REMARK                            x       y       z     vdW  Elec       q    Type
REMARK                         _______ _______ _______ _____ _____    ______ ____
ROOT
ATOM      1  C   UNL     1      23.991   1.133  52.110  0.00  0.00    +0.000 A 
ATOM      2  C   UNL     1      22.986   0.315  52.658  0.00  0.00    +0.000 A 
ATOM      3  C   UNL     1      21.677   0.351  52.173  0.00  0.00    +0.000 A 
ATOM      4  C   UNL     1      21.351   1.219  51.132  0.00  0.00    +0.000 A 
ATOM      5  C   UNL     1      22.325   2.060  50.579  0.00  0.00    +0.000 A 
ATOM      6  C   UNL     1      22.014   3.013  49.492  0.00  0.00    +0.000 A 
ATOM      7  O   UNL     1      20.928   3.121  48.941  0.00  0.00    +0.000 OA
ATOM      8  C   UNL     1      23.107   3.890  49.058  0.00  0.00    +0.000 A 
ATOM      9  C   UNL     1      24.326   3.749  49.588  0.00  0.00    +0.000 A 
ATOM     10  O   UNL     1      24.640   2.817  50.560  0.00  0.00    +0.000 OA
ATOM     11  C   UNL     1      23.639   2.014  51.067  0.00  0.00    +0.000 A 
ENDROOT
BRANCH   1  16
ATOM     12  C   UNL     1      28.700   0.144  54.862  0.00  0.00    +0.000 C 
ATOM     13  N   UNL     1      28.043   0.796  53.748  0.00  0.00    +0.000 N 
ATOM     14  C   UNL     1      27.619  -0.082  52.672  0.00  0.00    +0.000 C 
ATOM     15  C   UNL     1      26.209   0.069  52.193  0.00  0.00    +0.000 C 
ATOM     16  C   UNL     1      25.383   1.047  52.596  0.00  0.00    +0.000 C 
ATOM     17  C   UNL     1      25.823   2.101  53.568  0.00  0.00    +0.000 C 
ATOM     18  C   UNL     1      27.277   1.991  54.057  0.00  0.00    +0.000 C 
ATOM     19  H   UNL     1      28.796   1.274  53.252  0.00  0.00    +0.000 HD
ENDBRANCH   1  16
BRANCH   9  20
ATOM     20  C   UNL     1      25.454   4.607  49.165  0.00  0.00    +0.000 A 
ATOM     21  C   UNL     1      26.763   4.104  49.139  0.00  0.00    +0.000 A 
ATOM     22  C   UNL     1      27.832   4.908  48.727  0.00  0.00    +0.000 A 
ATOM     23  C   UNL     1      27.597   6.224  48.332  0.00  0.00    +0.000 A 
ATOM     24 CL   UNL     1      28.903   7.214  47.811  0.00  0.00    +0.000 Cl
ATOM     25  C   UNL     1      26.307   6.744  48.351  0.00  0.00    +0.000 A 
ATOM     26  C   UNL     1      25.242   5.939  48.760  0.00  0.00    +0.000 A 
ENDBRANCH   9  20
BRANCH   2  27
ATOM     27  O   UNL     1      23.294  -0.538  53.684  0.00  0.00    +0.000 OA
ATOM     28  H   UNL     1      24.186  -0.779  53.840  0.00  0.00    +0.000 HD
ENDBRANCH   2  27
BRANCH   4  29
ATOM     29  O   UNL     1      20.067   1.240  50.669  0.00  0.00    +0.000 OA
ATOM     30  H   UNL     1      19.653   2.058  50.475  0.00  0.00    +0.000 HD
ENDBRANCH   4  29
TORSDOF 4
ENDMDL
MODEL 4
REMARK VINA RESULT:    -9.110      2.488      5.051
REMARK INTER + INTRA:         -11.515
REMARK INTER:                 -10.653
REMARK INTRA:                  -0.862
REMARK UNBOUND:                -0.807
REMARK  Name = 
REMARK  5 active torsions:
REMARK  status: ('A' for Active; 'I' for Inactive)
REMARK    1  A    between atoms: C_1  and  N_2
REMARK    2  A    between atoms: C_5  and  C_6
REMARK    3  A    between atoms: C_7  and  O_8
REMARK    4  A    between atoms: C_10  and  O_11
REMARK    5  A    between atoms: C_16  and  C_17
REMARK                            x       y       z     vdW  Elec       q    Type
REMARK                         _______ _______ _______ _____ _____    ______ ____
ROOT
ATOM      1  C   UNL     1      21.957   0.149  53.203  0.00  0.00    +0.000 A 
ATOM      2  C   UNL     1      21.539  -0.884  54.062  0.00  0.00    +0.000 A 
ATOM      3  C   UNL     1      22.433  -1.502  54.939  0.00  0.00    +0.000 A 
ATOM      4  C   UNL     1      23.767  -1.100  54.962  0.00  0.00    +0.000 A 
ATOM      5  C   UNL     1      24.217  -0.088  54.105  0.00  0.00    +0.000 A 
ATOM      6  C   UNL     1      25.629   0.350  54.081  0.00  0.00    +0.000 A 
ATOM      7  O   UNL     1      26.509  -0.068  54.820  0.00  0.00    +0.000 OA
ATOM      8  C   UNL     1      25.982   1.364  53.081  0.00  0.00    +0.000 A 
ATOM      9  C   UNL     1      25.033   1.896  52.305  0.00  0.00    +0.000 A 
ATOM     10  O   UNL     1      23.698   1.537  52.366  0.00  0.00    +0.000 OA
ATOM     11  C   UNL     1      23.313   0.533  53.231  0.00  0.00    +0.000 A 
ENDROOT
BRANCH   1  16
ATOM     12  C   UNL     1      19.343   3.352  49.511  0.00  0.00    +0.000 C 
ATOM     13  N   UNL     1      19.250   2.328  50.530  0.00  0.00    +0.000 N 
ATOM     14  C   UNL     1      19.749   1.019  50.150  0.00  0.00    +0.000 C 
ATOM     15  C   UNL     1      20.698   0.356  51.097  0.00  0.00    +0.000 C 
ATOM     16  C   UNL     1      20.991   0.832  52.318  0.00  0.00    +0.000 C 
ATOM     17  C   UNL     1      20.362   2.086  52.847  0.00  0.00    +0.000 C 
ATOM     18  C   UNL     1      19.359   2.776  51.909  0.00  0.00    +0.000 C 
ATOM     19  H   UNL     1      18.257   2.096  50.569  0.00  0.00    +0.000 HD
ENDBRANCH   1  16
BRANCH   9  20
ATOM     20  C   UNL     1      25.351   2.929  51.296  0.00  0.00    +0.000 A 
ATOM     21  C   UNL     1      24.570   4.091  51.192  0.00  0.00    +0.000 A 
ATOM     22  C   UNL     1      24.875   5.077  50.248  0.00  0.00    +0.000 A 
ATOM     23  C   UNL     1      25.970   4.911  49.401  0.00  0.00    +0.000 A 
ATOM     24 CL   UNL     1      26.359   6.125  48.248  0.00  0.00    +0.000 Cl
ATOM     25  C   UNL     1      26.756   3.767  49.486  0.00  0.00    +0.000 A 
ATOM     26  C   UNL     1      26.452   2.786  50.431  0.00  0.00    +0.000 A 
ENDBRANCH   9  20
BRANCH   2  27
ATOM     27  O   UNL     1      20.232  -1.291  54.044  0.00  0.00    +0.000 OA
ATOM     28  H   UNL     1      19.552  -0.690  54.275  0.00  0.00    +0.000 HD
ENDBRANCH   2  27
BRANCH   4  29
ATOM     29  O   UNL     1      24.626  -1.715  55.827  0.00  0.00    +0.000 OA
ATOM     30  H   UNL     1      24.480  -2.606  56.077  0.00  0.00    +0.000 HD
ENDBRANCH   4  29
TORSDOF 4
ENDMDL
MODEL 5
REMARK VINA RESULT:    -8.857      3.795      7.304
REMARK INTER + INTRA:         -11.216
REMARK INTER:                 -10.336
REMARK INTRA:                  -0.880
REMARK UNBOUND:                -0.807
REMARK  Name = 
REMARK  5 active torsions:
REMARK  status: ('A' for Active; 'I' for Inactive)
REMARK    1  A    between atoms: C_1  and  N_2
REMARK    2  A    between atoms: C_5  and  C_6
REMARK    3  A    between atoms: C_7  and  O_8
REMARK    4  A    between atoms: C_10  and  O_11
REMARK    5  A    between atoms: C_16  and  C_17
REMARK                            x       y       z     vdW  Elec       q    Type
REMARK                         _______ _______ _______ _____ _____    ______ ____
ROOT
ATOM      1  C   UNL     1      24.741   2.660  51.065  0.00  0.00    +0.000 A 
ATOM      2  C   UNL     1      26.094   3.048  51.069  0.00  0.00    +0.000 A 
ATOM      3  C   UNL     1      27.050   2.332  51.793  0.00  0.00    +0.000 A 
ATOM      4  C   UNL     1      26.662   1.219  52.536  0.00  0.00    +0.000 A 
ATOM      5  C   UNL     1      25.320   0.820  52.568  0.00  0.00    +0.000 A 
ATOM      6  C   UNL     1      24.864  -0.340  53.364  0.00  0.00    +0.000 A 
ATOM      7  O   UNL     1      25.593  -1.081  54.007  0.00  0.00    +0.000 OA
ATOM      8  C   UNL     1      23.420  -0.601  53.371  0.00  0.00    +0.000 A 
ATOM      9  C   UNL     1      22.603   0.145  52.621  0.00  0.00    +0.000 A 
ATOM     10  O   UNL     1      23.030   1.192  51.824  0.00  0.00    +0.000 OA
ATOM     11  C   UNL     1      24.366   1.539  51.833  0.00  0.00    +0.000 A 
ENDROOT
BRANCH   1  16
ATOM     12  C   UNL     1      21.997   6.136  47.731  0.00  0.00    +0.000 C 
ATOM     13  N   UNL     1      21.948   4.998  48.626  0.00  0.00    +0.000 N 
ATOM     14  C   UNL     1      22.514   3.767  48.104  0.00  0.00    +0.000 C 
ATOM     15  C   UNL     1      23.488   3.047  48.982  0.00  0.00    +0.000 C 
ATOM     16  C   UNL     1      23.748   3.392  50.252  0.00  0.00    +0.000 C 
ATOM     17  C   UNL     1      23.055   4.545  50.913  0.00  0.00    +0.000 C 
ATOM     18  C   UNL     1      22.025   5.289  50.048  0.00  0.00    +0.000 C 
ATOM     19  H   UNL     1      20.968   4.715  48.625  0.00  0.00    +0.000 HD
ENDBRANCH   1  16
BRANCH   9  20
ATOM     20  C   UNL     1      21.145  -0.098  52.594  0.00  0.00    +0.000 A 
ATOM     21  C   UNL     1      20.361   0.372  51.529  0.00  0.00    +0.000 A 
ATOM     22  C   UNL     1      18.983   0.132  51.493  0.00  0.00    +0.000 A 
ATOM     23  C   UNL     1      18.377  -0.586  52.522  0.00  0.00    +0.000 A 
ATOM     24 CL   UNL     1      16.687  -0.896  52.477  0.00  0.00    +0.000 Cl
ATOM     25  C   UNL     1      19.135  -1.060  53.588  0.00  0.00    +0.000 A 
ATOM     26  C   UNL     1      20.509  -0.822  53.621  0.00  0.00    +0.000 A 
ENDBRANCH   9  20
BRANCH   2  27
ATOM     27  O   UNL     1      26.485   4.143  50.346  0.00  0.00    +0.000 OA
ATOM     28  H   UNL     1      27.386   4.256  50.118  0.00  0.00    +0.000 HD
ENDBRANCH   2  27
BRANCH   4  29
ATOM     29  O   UNL     1      27.611   0.531  53.237  0.00  0.00    +0.000 OA
ATOM     30  H   UNL     1      27.966  -0.263  52.889  0.00  0.00    +0.000 HD
ENDBRANCH   4  29
TORSDOF 4
ENDMDL
MODEL 6
REMARK VINA RESULT:    -8.831      1.647      2.222
REMARK INTER + INTRA:         -11.187
REMARK INTER:                 -10.451
REMARK INTRA:                  -0.735
REMARK UNBOUND:                -0.807
REMARK  Name = 
REMARK  5 active torsions:
REMARK  status: ('A' for Active; 'I' for Inactive)
REMARK    1  A    between atoms: C_1  and  N_2
REMARK    2  A    between atoms: C_5  and  C_6
REMARK    3  A    between atoms: C_7  and  O_8
REMARK    4  A    between atoms: C_10  and  O_11
REMARK    5  A    between atoms: C_16  and  C_17
REMARK                            x       y       z     vdW  Elec       q    Type
REMARK                         _______ _______ _______ _____ _____    ______ ____
ROOT
ATOM      1  C   UNL     1      24.136  -0.232  53.965  0.00  0.00    +0.000 A 
ATOM      2  C   UNL     1      23.964  -1.154  55.014  0.00  0.00    +0.000 A 
ATOM      3  C   UNL     1      22.706  -1.678  55.318  0.00  0.00    +0.000 A 
ATOM      4  C   UNL     1      21.594  -1.278  54.579  0.00  0.00    +0.000 A 
ATOM      5  C   UNL     1      21.730  -0.347  53.542  0.00  0.00    +0.000 A 
ATOM      6  C   UNL     1      20.572   0.122  52.751  0.00  0.00    +0.000 A 
ATOM      7  O   UNL     1      19.425  -0.282  52.876  0.00  0.00    +0.000 OA
ATOM      8  C   UNL     1      20.843   1.157  51.746  0.00  0.00    +0.000 A 
ATOM      9  C   UNL     1      22.096   1.569  51.533  0.00  0.00    +0.000 A 
ATOM     10  O   UNL     1      23.193   1.088  52.225  0.00  0.00    +0.000 OA
ATOM     11  C   UNL     1      22.997   0.171  53.237  0.00  0.00    +0.000 A 
ENDROOT
BRANCH   1  16
ATOM     12  C   UNL     1      29.476   1.244  53.803  0.00  0.00    +0.000 C 
ATOM     13  N   UNL     1      28.184   1.242  53.151  0.00  0.00    +0.000 N 
ATOM     14  C   UNL     1      27.755  -0.037  52.615  0.00  0.00    +0.000 C 
ATOM     15  C   UNL     1      26.373  -0.488  52.969  0.00  0.00    +0.000 C 
ATOM     16  C   UNL     1      25.480   0.275  53.618  0.00  0.00    +0.000 C 
ATOM     17  C   UNL     1      25.798   1.680  54.034  0.00  0.00    +0.000 C 
ATOM     18  C   UNL     1      27.200   2.185  53.659  0.00  0.00    +0.000 C 
ATOM     19  H   UNL     1      28.345   1.720  52.264  0.00  0.00    +0.000 HD
ENDBRANCH   1  16
BRANCH   9  20
ATOM     20  C   UNL     1      22.406   2.601  50.520  0.00  0.00    +0.000 A 
ATOM     21  C   UNL     1      21.385   3.388  49.966  0.00  0.00    +0.000 A 
ATOM     22  C   UNL     1      21.675   4.374  49.018  0.00  0.00    +0.000 A 
ATOM     23  C   UNL     1      22.993   4.585  48.617  0.00  0.00    +0.000 A 
ATOM     24 CL   UNL     1      23.359   5.805  47.463  0.00  0.00    +0.000 Cl
ATOM     25  C   UNL     1      24.021   3.816  49.152  0.00  0.00    +0.000 A 
ATOM     26  C   UNL     1      23.729   2.834  50.101  0.00  0.00    +0.000 A 
ENDBRANCH   9  20
BRANCH   2  27
ATOM     27  O   UNL     1      25.049  -1.550  55.749  0.00  0.00    +0.000 OA
ATOM     28  H   UNL     1      25.332  -2.442  55.723  0.00  0.00    +0.000 HD
ENDBRANCH   2  27
BRANCH   4  29
ATOM     29  O   UNL     1      20.373  -1.802  54.890  0.00  0.00    +0.000 OA
ATOM     30  H   UNL     1      20.258  -2.278  55.689  0.00  0.00    +0.000 HD
ENDBRANCH   4  29
TORSDOF 4
ENDMDL
MODEL 7
REMARK VINA RESULT:    -8.445      3.370      5.981
REMARK INTER + INTRA:         -10.733
REMARK INTER:                  -9.932
REMARK INTRA:                  -0.801
REMARK UNBOUND:                -0.807
REMARK  Name = 
REMARK  5 active torsions:
REMARK  status: ('A' for Active; 'I' for Inactive)
REMARK    1  A    between atoms: C_1  and  N_2
REMARK    2  A    between atoms: C_5  and  C_6
REMARK    3  A    between atoms: C_7  and  O_8
REMARK    4  A    between atoms: C_10  and  O_11
REMARK    5  A    between atoms: C_16  and  C_17
REMARK                            x       y       z     vdW  Elec       q    Type
REMARK                         _______ _______ _______ _____ _____    ______ ____
ROOT
ATOM      1  C   UNL     1      25.109   2.830  51.059  0.00  0.00    +0.000 A 
ATOM      2  C   UNL     1      25.990   3.695  50.383  0.00  0.00    +0.000 A 
ATOM      3  C   UNL     1      25.525   4.601  49.428  0.00  0.00    +0.000 A 
ATOM      4  C   UNL     1      24.165   4.650  49.127  0.00  0.00    +0.000 A 
ATOM      5  C   UNL     1      23.266   3.789  49.768  0.00  0.00    +0.000 A 
ATOM      6  C   UNL     1      21.820   3.791  49.459  0.00  0.00    +0.000 A 
ATOM      7  O   UNL     1      21.268   4.557  48.682  0.00  0.00    +0.000 OA
ATOM      8  C   UNL     1      21.002   2.785  50.146  0.00  0.00    +0.000 A 
ATOM      9  C   UNL     1      21.559   1.980  51.056  0.00  0.00    +0.000 A 
ATOM     10  O   UNL     1      22.900   2.015  51.397  0.00  0.00    +0.000 OA
ATOM     11  C   UNL     1      23.738   2.885  50.731  0.00  0.00    +0.000 A 
ENDROOT
BRANCH   1  16
ATOM     12  C   UNL     1      28.041   0.026  54.835  0.00  0.00    +0.000 C 
ATOM     13  N   UNL     1      26.791   0.182  54.120  0.00  0.00    +0.000 N 
ATOM     14  C   UNL     1      25.985   1.325  54.511  0.00  0.00    +0.000 C 
ATOM     15  C   UNL     1      25.479   2.202  53.410  0.00  0.00    +0.000 C 
ATOM     16  C   UNL     1      25.605   1.914  52.105  0.00  0.00    +0.000 C 
ATOM     17  C   UNL     1      26.264   0.651  51.637  0.00  0.00    +0.000 C 
ATOM     18  C   UNL     1      26.769  -0.288  52.745  0.00  0.00    +0.000 C 
ATOM     19  H   UNL     1      26.189  -0.551  54.496  0.00  0.00    +0.000 HD
ENDBRANCH   1  16
BRANCH   9  20
ATOM     20  C   UNL     1      20.763   0.964  51.777  0.00  0.00    +0.000 A 
ATOM     21  C   UNL     1      19.447   0.678  51.384  0.00  0.00    +0.000 A 
ATOM     22  C   UNL     1      18.694  -0.292  52.054  0.00  0.00    +0.000 A 
ATOM     23  C   UNL     1      19.255  -0.990  53.123  0.00  0.00    +0.000 A 
ATOM     24 CL   UNL     1      18.341  -2.193  53.942  0.00  0.00    +0.000 Cl
ATOM     25  C   UNL     1      20.558  -0.721  53.530  0.00  0.00    +0.000 A 
ATOM     26  C   UNL     1      21.308   0.245  52.858  0.00  0.00    +0.000 A 
ENDBRANCH   9  20
BRANCH   2  27
ATOM     27  O   UNL     1      27.328   3.652  50.667  0.00  0.00    +0.000 OA
ATOM     28  H   UNL     1      27.945   4.039  50.078  0.00  0.00    +0.000 HD
ENDBRANCH   2  27
BRANCH   4  29
ATOM     29  O   UNL     1      23.728   5.543  48.191  0.00  0.00    +0.000 OA
ATOM     30  H   UNL     1      22.892   5.424  47.786  0.00  0.00    +0.000 HD
ENDBRANCH   4  29
TORSDOF 4
ENDMDL
MODEL 8
REMARK VINA RESULT:    -8.261      3.909      7.141
REMARK INTER + INTRA:         -10.516
REMARK INTER:                  -9.605
REMARK INTRA:                  -0.911
REMARK UNBOUND:                -0.807
REMARK  Name = 
REMARK  5 active torsions:
REMARK  status: ('A' for Active; 'I' for Inactive)
REMARK    1  A    between atoms: C_1  and  N_2
REMARK    2  A    between atoms: C_5  and  C_6
REMARK    3  A    between atoms: C_7  and  O_8
REMARK    4  A    between atoms: C_10  and  O_11
REMARK    5  A    between atoms: C_16  and  C_17
REMARK                            x       y       z     vdW  Elec       q    Type
REMARK                         _______ _______ _______ _____ _____    ______ ____
ROOT
ATOM      1  C   UNL     1      23.800   1.779  52.348  0.00  0.00    +0.000 A 
ATOM      2  C   UNL     1      25.143   2.043  52.679  0.00  0.00    +0.000 A 
ATOM      3  C   UNL     1      25.820   1.274  53.627  0.00  0.00    +0.000 A 
ATOM      4  C   UNL     1      25.157   0.230  54.270  0.00  0.00    +0.000 A 
ATOM      5  C   UNL     1      23.815  -0.044  53.978  0.00  0.00    +0.000 A 
ATOM      6  C   UNL     1      23.069  -1.126  54.656  0.00  0.00    +0.000 A 
ATOM      7  O   UNL     1      23.544  -1.904  55.471  0.00  0.00    +0.000 OA
ATOM      8  C   UNL     1      21.649  -1.256  54.312  0.00  0.00    +0.000 A 
ATOM      9  C   UNL     1      21.114  -0.470  53.372  0.00  0.00    +0.000 A 
ATOM     10  O   UNL     1      21.822   0.502  52.688  0.00  0.00    +0.000 OA
ATOM     11  C   UNL     1      23.143   0.728  53.019  0.00  0.00    +0.000 A 
ENDROOT
BRANCH   1  16
ATOM     12  C   UNL     1      20.240   3.994  48.723  0.00  0.00    +0.000 C 
ATOM     13  N   UNL     1      21.585   3.961  49.259  0.00  0.00    +0.000 N 
ATOM     14  C   UNL     1      21.746   4.538  50.582  0.00  0.00    +0.000 C 
ATOM     15  C   UNL     1      22.482   3.715  51.592  0.00  0.00    +0.000 C 
ATOM     16  C   UNL     1      23.111   2.565  51.304  0.00  0.00    +0.000 C 
ATOM     17  C   UNL     1      23.142   2.009  49.913  0.00  0.00    +0.000 C 
ATOM     18  C   UNL     1      22.420   2.846  48.844  0.00  0.00    +0.000 C 
ATOM     19  H   UNL     1      22.087   4.676  48.731  0.00  0.00    +0.000 HD
ENDBRANCH   1  16
BRANCH   9  20
ATOM     20  C   UNL     1      19.690  -0.582  52.992  0.00  0.00    +0.000 A 
ATOM     21  C   UNL     1      19.144   0.261  52.012  0.00  0.00    +0.000 A 
ATOM     22  C   UNL     1      17.800   0.150  51.640  0.00  0.00    +0.000 A 
ATOM     23  C   UNL     1      16.990  -0.811  52.242  0.00  0.00    +0.000 A 
ATOM     24 CL   UNL     1      15.342  -0.964  51.779  0.00  0.00    +0.000 Cl
ATOM     25  C   UNL     1      17.511  -1.657  53.216  0.00  0.00    +0.000 A 
ATOM     26  C   UNL     1      18.853  -1.546  53.584  0.00  0.00    +0.000 A 
ENDBRANCH   9  20
BRANCH   2  27
ATOM     27  O   UNL     1      25.802   3.069  52.057  0.00  0.00    +0.000 OA
ATOM     28  H   UNL     1      26.154   2.947  51.197  0.00  0.00    +0.000 HD
ENDBRANCH   2  27
BRANCH   4  29
ATOM     29  O   UNL     1      25.835  -0.512  55.194  0.00  0.00    +0.000 OA
ATOM     30  H   UNL     1      26.376  -1.225  54.916  0.00  0.00    +0.000 HD
ENDBRANCH   4  29
TORSDOF 4
ENDMDL
MODEL 9
REMARK VINA RESULT:    -7.696      3.624      6.464
REMARK INTER + INTRA:          -9.853
REMARK INTER:                  -9.173
REMARK INTRA:                  -0.680
REMARK UNBOUND:                -0.807
REMARK  Name = 
REMARK  5 active torsions:
REMARK  status: ('A' for Active; 'I' for Inactive)
REMARK    1  A    between atoms: C_1  and  N_2
REMARK    2  A    between atoms: C_5  and  C_6
REMARK    3  A    between atoms: C_7  and  O_8
REMARK    4  A    between atoms: C_10  and  O_11
REMARK    5  A    between atoms: C_16  and  C_17
REMARK                            x       y       z     vdW  Elec       q    Type
REMARK                         _______ _______ _______ _____ _____    ______ ____
ROOT
ATOM      1  C   UNL     1      21.537   4.078  51.252  0.00  0.00    +0.000 A 
ATOM      2  C   UNL     1      20.548   3.326  51.913  0.00  0.00    +0.000 A 
ATOM      3  C   UNL     1      20.860   2.127  52.558  0.00  0.00    +0.000 A 
ATOM      4  C   UNL     1      22.172   1.657  52.544  0.00  0.00    +0.000 A 
ATOM      5  C   UNL     1      23.175   2.373  51.878  0.00  0.00    +0.000 A 
ATOM      6  C   UNL     1      24.573   1.895  51.818  0.00  0.00    +0.000 A 
ATOM      7  O   UNL     1      24.997   0.891  52.372  0.00  0.00    +0.000 OA
ATOM      8  C   UNL     1      25.506   2.701  51.023  0.00  0.00    +0.000 A 
ATOM      9  C   UNL     1      25.093   3.843  50.463  0.00  0.00    +0.000 A 
ATOM     10  O   UNL     1      23.802   4.329  50.569  0.00  0.00    +0.000 OA
ATOM     11  C   UNL     1      22.856   3.579  51.237  0.00  0.00    +0.000 A 
ENDROOT
BRANCH   1  16
ATOM     12  C   UNL     1      19.242   8.828  49.553  0.00  0.00    +0.000 C 
ATOM     13  N   UNL     1      20.342   7.892  49.452  0.00  0.00    +0.000 N 
ATOM     14  C   UNL     1      21.255   7.876  50.582  0.00  0.00    +0.000 C 
ATOM     15  C   UNL     1      21.584   6.538  51.164  0.00  0.00    +0.000 C 
ATOM     16  C   UNL     1      21.206   5.371  50.619  0.00  0.00    +0.000 C 
ATOM     17  C   UNL     1      20.418   5.314  49.345  0.00  0.00    +0.000 C 
ATOM     18  C   UNL     1      20.088   6.672  48.704  0.00  0.00    +0.000 C 
ATOM     19  H   UNL     1      20.972   8.311  48.767  0.00  0.00    +0.000 HD
ENDBRANCH   1  16
BRANCH   9  20
ATOM     20  C   UNL     1      26.009   4.685  49.666  0.00  0.00    +0.000 A 
ATOM     21  C   UNL     1      25.700   6.029  49.406  0.00  0.00    +0.000 A 
ATOM     22  C   UNL     1      26.570   6.834  48.664  0.00  0.00    +0.000 A 
ATOM     23  C   UNL     1      27.763   6.302  48.178  0.00  0.00    +0.000 A 
ATOM     24 CL   UNL     1      28.844   7.289  47.277  0.00  0.00    +0.000 Cl
ATOM     25  C   UNL     1      28.089   4.972  48.422  0.00  0.00    +0.000 A 
ATOM     26  C   UNL     1      27.220   4.171  49.166  0.00  0.00    +0.000 A 
ENDBRANCH   9  20
BRANCH   2  27
ATOM     27  O   UNL     1      19.256   3.777  51.928  0.00  0.00    +0.000 OA
ATOM     28  H   UNL     1      18.907   4.226  51.184  0.00  0.00    +0.000 HD
ENDBRANCH   2  27
BRANCH   4  29
ATOM     29  O   UNL     1      22.458   0.484  53.181  0.00  0.00    +0.000 OA
ATOM     30  H   UNL     1      21.987  -0.296  52.960  0.00  0.00    +0.000 HD
ENDBRANCH   4  29
TORSDOF 4
ENDMDL
