MODEL 1
REMARK VINA RESULT:    -8.413      0.000      0.000
REMARK INTER + INTRA:         -13.973
REMARK INTER:                 -12.840
REMARK INTRA:                  -1.133
REMARK UNBOUND:                -1.133
REMARK  Name = 
REMARK  13 active torsions:
REMARK  status: ('A' for Active; 'I' for Inactive)
REMARK    1  A    between atoms: C_1  and  C_2
REMARK    2  A    between atoms: C_2  and  C_3
REMARK    3  A    between atoms: C_3  and  C_4
REMARK    4  A    between atoms: C_4  and  C_5
REMARK    5  A    between atoms: C_5  and  O_7
REMARK    6  A    between atoms: O_7  and  C_8
REMARK    7  A    between atoms: C_8  and  C_9
REMARK    8  A    between atoms: C_8  and  C_14
REMARK    9  A    between atoms: C_9  and  C_10
REMARK   10  A    between atoms: C_11  and  C_12
REMARK   11  A    between atoms: C_11  and  C_13
REMARK   12  A    between atoms: C_19  and  O_20
REMARK   13  A    between atoms: C_23  and  O_24
REMARK                            x       y       z     vdW  Elec       q    Type
REMARK                         _______ _______ _______ _____ _____    ______ ____
ROOT
ATOM      1  C   UNL     1      25.560   1.042  52.522  0.00  0.00    +0.000 C 
ATOM      2  C   UNL     1      25.370  -0.284  52.550  0.00  0.00    +0.000 C 
ATOM      3  C   UNL     1      26.457  -1.222  52.865  0.00  0.00    +0.000 C 
ATOM      4  O   UNL     1      26.293  -2.430  52.750  0.00  0.00    +0.000 OA
ATOM      5  C   UNL     1      27.771  -0.668  53.213  0.00  0.00    +0.000 A 
ATOM      6  C   UNL     1      28.899  -1.496  53.235  0.00  0.00    +0.000 A 
ATOM      7  C   UNL     1      30.123  -1.009  53.662  0.00  0.00    +0.000 A 
ATOM      8  C   UNL     1      30.232   0.322  54.074  0.00  0.00    +0.000 A 
ATOM      9  C   UNL     1      29.114   1.165  54.011  0.00  0.00    +0.000 A 
ATOM     10  C   UNL     1      27.884   0.686  53.535  0.00  0.00    +0.000 A 
ATOM     11  C   UNL     1      26.708   1.571  53.326  0.00  0.00    +0.000 C 
ATOM     12  O   UNL     1      26.623   2.681  53.833  0.00  0.00    +0.000 OA
ENDROOT
BRANCH   6  13
ATOM     13  O   UNL     1      28.883  -2.800  52.813  0.00  0.00    +0.000 OA
ATOM     14  H   UNL     1      28.144  -3.131  52.344  0.00  0.00    +0.000 HD
ENDBRANCH   6  13
BRANCH   9  15
ATOM     15  O   UNL     1      29.264   2.465  54.397  0.00  0.00    +0.000 OA
ATOM     16  H   UNL     1      29.537   2.665  55.271  0.00  0.00    +0.000 HD
ENDBRANCH   9  15
BRANCH   1  17
ATOM     17  C   UNL     1      24.614   2.066  51.910  0.00  0.00    +0.000 C 
BRANCH  17  18
ATOM     18  O   UNL     1      23.171   1.875  52.165  0.00  0.00    +0.000 OA
BRANCH  18  19
ATOM     19  C   UNL     1      22.360   1.055  51.455  0.00  0.00    +0.000 C 
ATOM     20  O   UNL     1      22.139   1.140  50.255  0.00  0.00    +0.000 OA
BRANCH  19  21
ATOM     21  C   UNL     1      21.807  -0.084  52.312  0.00  0.00    +0.000 C 
BRANCH  21  22
ATOM     22  C   UNL     1      21.825   0.219  53.801  0.00  0.00    +0.000 C 
BRANCH  22  24
ATOM     23  C   UNL     1      23.080  -1.360  55.366  0.00  0.00    +0.000 C 
ATOM     24  C   UNL     1      21.798  -1.075  54.615  0.00  0.00    +0.000 C 
ENDBRANCH  22  24
ENDBRANCH  21  22
ENDBRANCH  19  21
ENDBRANCH  18  19
ENDBRANCH  17  18
BRANCH  17  25
ATOM     25  C   UNL     1      24.917   2.678  50.489  0.00  0.00    +0.000 C 
BRANCH  25  26
ATOM     26  C   UNL     1      26.109   3.449  49.939  0.00  0.00    +0.000 C 
ATOM     27  C   UNL     1      26.334   4.588  49.255  0.00  0.00    +0.000 C 
ATOM     28  C   UNL     1      27.701   4.838  48.637  0.00  0.00    +0.000 C 
ATOM     29  C   UNL     1      25.343   5.657  48.949  0.00  0.00    +0.000 C 
ENDBRANCH  25  26
ENDBRANCH  17  25
ENDBRANCH   1  17
TORSDOF 10
ENDMDL
MODEL 2
REMARK VINA RESULT:    -8.385      1.016      1.601
REMARK INTER + INTRA:         -13.931
REMARK INTER:                 -12.629
REMARK INTRA:                  -1.301
REMARK UNBOUND:                -1.133
REMARK  Name = 
REMARK  13 active torsions:
REMARK  status: ('A' for Active; 'I' for Inactive)
REMARK    1  A    between atoms: C_1  and  C_2
REMARK    2  A    between atoms: C_2  and  C_3
REMARK    3  A    between atoms: C_3  and  C_4
REMARK    4  A    between atoms: C_4  and  C_5
REMARK    5  A    between atoms: C_5  and  O_7
REMARK    6  A    between atoms: O_7  and  C_8
REMARK    7  A    between atoms: C_8  and  C_9
REMARK    8  A    between atoms: C_8  and  C_14
REMARK    9  A    between atoms: C_9  and  C_10
REMARK   10  A    between atoms: C_11  and  C_12
REMARK   11  A    between atoms: C_11  and  C_13
REMARK   12  A    between atoms: C_19  and  O_20
REMARK   13  A    between atoms: C_23  and  O_24
REMARK                            x       y       z     vdW  Elec       q    Type
REMARK                         _______ _______ _______ _____ _____    ______ ____
ROOT
ATOM      1  C   UNL     1      26.206   1.249  52.101  0.00  0.00    +0.000 C 
ATOM      2  C   UNL     1      25.683   0.016  52.154  0.00  0.00    +0.000 C 
ATOM      3  C   UNL     1      26.469  -1.148  52.582  0.00  0.00    +0.000 C 
ATOM      4  O   UNL     1      26.011  -2.281  52.490  0.00  0.00    +0.000 OA
ATOM      5  C   UNL     1      27.854  -0.928  53.017  0.00  0.00    +0.000 A 
ATOM      6  C   UNL     1      28.728  -2.012  53.154  0.00  0.00    +0.000 A 
ATOM      7  C   UNL     1      30.003  -1.829  53.663  0.00  0.00    +0.000 A 
ATOM      8  C   UNL     1      30.420  -0.550  54.043  0.00  0.00    +0.000 A 
ATOM      9  C   UNL     1      29.561   0.544  53.866  0.00  0.00    +0.000 A 
ATOM     10  C   UNL     1      28.285   0.368  53.307  0.00  0.00    +0.000 A 
ATOM     11  C   UNL     1      27.392   1.510  52.979  0.00  0.00    +0.000 C 
ATOM     12  O   UNL     1      27.559   2.629  53.445  0.00  0.00    +0.000 OA
ENDROOT
BRANCH   6  13
ATOM     13  O   UNL     1      28.410  -3.288  52.771  0.00  0.00    +0.000 OA
ATOM     14  H   UNL     1      28.952  -4.005  53.034  0.00  0.00    +0.000 HD
ENDBRANCH   6  13
BRANCH   9  15
ATOM     15  O   UNL     1      30.010   1.781  54.224  0.00  0.00    +0.000 OA
ATOM     16  H   UNL     1      30.921   1.917  54.394  0.00  0.00    +0.000 HD
ENDBRANCH   9  15
BRANCH   1  17
ATOM     17  C   UNL     1      25.598   2.447  51.385  0.00  0.00    +0.000 C 
BRANCH  17  18
ATOM     18  O   UNL     1      24.142   2.405  51.138  0.00  0.00    +0.000 OA
BRANCH  18  19
ATOM     19  C   UNL     1      23.211   3.055  51.876  0.00  0.00    +0.000 C 
ATOM     20  O   UNL     1      23.201   4.256  52.109  0.00  0.00    +0.000 OA
BRANCH  19  21
ATOM     21  C   UNL     1      22.084   2.125  52.324  0.00  0.00    +0.000 C 
BRANCH  21  22
ATOM     22  C   UNL     1      22.042   0.816  51.553  0.00  0.00    +0.000 C 
BRANCH  22  24
ATOM     23  C   UNL     1      22.458  -0.140  53.884  0.00  0.00    +0.000 C 
ATOM     24  C   UNL     1      21.873  -0.367  52.508  0.00  0.00    +0.000 C 
ENDBRANCH  22  24
ENDBRANCH  21  22
ENDBRANCH  19  21
ENDBRANCH  18  19
ENDBRANCH  17  18
BRANCH  17  25
ATOM     25  C   UNL     1      26.400   3.182  50.244  0.00  0.00    +0.000 C 
BRANCH  25  26
ATOM     26  C   UNL     1      26.127   4.459  49.461  0.00  0.00    +0.000 C 
ATOM     27  C   UNL     1      26.831   5.390  48.789  0.00  0.00    +0.000 C 
ATOM     28  C   UNL     1      26.167   6.700  48.395  0.00  0.00    +0.000 C 
ATOM     29  C   UNL     1      28.275   5.327  48.425  0.00  0.00    +0.000 C 
ENDBRANCH  25  26
ENDBRANCH  17  25
ENDBRANCH   1  17
TORSDOF 10
ENDMDL
MODEL 3
REMARK VINA RESULT:    -8.170      0.917      4.799
REMARK INTER + INTRA:         -13.601
REMARK INTER:                 -12.498
REMARK INTRA:                  -1.104
REMARK UNBOUND:                -1.133
REMARK  Name = 
REMARK  13 active torsions:
REMARK  status: ('A' for Active; 'I' for Inactive)
REMARK    1  A    between atoms: C_1  and  C_2
REMARK    2  A    between atoms: C_2  and  C_3
REMARK    3  A    between atoms: C_3  and  C_4
REMARK    4  A    between atoms: C_4  and  C_5
REMARK    5  A    between atoms: C_5  and  O_7
REMARK    6  A    between atoms: O_7  and  C_8
REMARK    7  A    between atoms: C_8  and  C_9
REMARK    8  A    between atoms: C_8  and  C_14
REMARK    9  A    between atoms: C_9  and  C_10
REMARK   10  A    between atoms: C_11  and  C_12
REMARK   11  A    between atoms: C_11  and  C_13
REMARK   12  A    between atoms: C_19  and  O_20
REMARK   13  A    between atoms: C_23  and  O_24
REMARK                            x       y       z     vdW  Elec       q    Type
REMARK                         _______ _______ _______ _____ _____    ______ ____
ROOT
ATOM      1  C   UNL     1      25.237   0.591  52.545  0.00  0.00    +0.000 C 
ATOM      2  C   UNL     1      25.313  -0.747  52.562  0.00  0.00    +0.000 C 
ATOM      3  C   UNL     1      26.564  -1.454  52.867  0.00  0.00    +0.000 C 
ATOM      4  O   UNL     1      26.642  -2.671  52.743  0.00  0.00    +0.000 OA
ATOM      5  C   UNL     1      27.745  -0.655  53.218  0.00  0.00    +0.000 A 
ATOM      6  C   UNL     1      29.014  -1.244  53.231  0.00  0.00    +0.000 A 
ATOM      7  C   UNL     1      30.119  -0.528  53.660  0.00  0.00    +0.000 A 
ATOM      8  C   UNL     1      29.965   0.795  54.082  0.00  0.00    +0.000 A 
ATOM      9  C   UNL     1      28.702   1.401  54.029  0.00  0.00    +0.000 A 
ATOM     10  C   UNL     1      27.589   0.692  53.551  0.00  0.00    +0.000 A 
ATOM     11  C   UNL     1      26.261   1.329  53.351  0.00  0.00    +0.000 C 
ATOM     12  O   UNL     1      25.961   2.397  53.868  0.00  0.00    +0.000 OA
ENDROOT
BRANCH   6  13
ATOM     13  O   UNL     1      29.255  -2.522  52.799  0.00  0.00    +0.000 OA
ATOM     14  H   UNL     1      29.293  -2.707  51.881  0.00  0.00    +0.000 HD
ENDBRANCH   6  13
BRANCH   9  15
ATOM     15  O   UNL     1      28.593   2.702  54.425  0.00  0.00    +0.000 OA
ATOM     16  H   UNL     1      27.889   2.963  54.986  0.00  0.00    +0.000 HD
ENDBRANCH   9  15
BRANCH   1  17
ATOM     17  C   UNL     1      24.106   1.413  51.942  0.00  0.00    +0.000 C 
BRANCH  17  18
ATOM     18  O   UNL     1      24.496   2.581  51.125  0.00  0.00    +0.000 OA
BRANCH  18  19
ATOM     19  C   UNL     1      23.931   2.925  49.944  0.00  0.00    +0.000 C 
ATOM     20  O   UNL     1      23.091   2.270  49.341  0.00  0.00    +0.000 OA
BRANCH  19  21
ATOM     21  C   UNL     1      24.389   4.304  49.471  0.00  0.00    +0.000 C 
BRANCH  21  22
ATOM     22  C   UNL     1      25.756   4.700  50.003  0.00  0.00    +0.000 C 
BRANCH  22  24
ATOM     23  C   UNL     1      27.800   5.141  48.537  0.00  0.00    +0.000 C 
ATOM     24  C   UNL     1      26.866   4.110  49.132  0.00  0.00    +0.000 C 
ENDBRANCH  22  24
ENDBRANCH  21  22
ENDBRANCH  19  21
ENDBRANCH  18  19
ENDBRANCH  17  18
BRANCH  17  25
ATOM     25  C   UNL     1      22.770   1.637  52.746  0.00  0.00    +0.000 C 
BRANCH  25  26
ATOM     26  C   UNL     1      21.677   0.679  53.205  0.00  0.00    +0.000 C 
ATOM     27  C   UNL     1      21.567  -0.410  53.990  0.00  0.00    +0.000 C 
ATOM     28  C   UNL     1      20.305  -1.255  53.934  0.00  0.00    +0.000 C 
ATOM     29  C   UNL     1      22.608  -0.962  54.903  0.00  0.00    +0.000 C 
ENDBRANCH  25  26
ENDBRANCH  17  25
ENDBRANCH   1  17
TORSDOF 10
ENDMDL
MODEL 4
REMARK VINA RESULT:    -7.955      2.456      4.465
REMARK INTER + INTRA:         -13.274
REMARK INTER:                 -11.084
REMARK INTRA:                  -2.190
REMARK UNBOUND:                -1.133
REMARK  Name = 
REMARK  13 active torsions:
REMARK  status: ('A' for Active; 'I' for Inactive)
REMARK    1  A    between atoms: C_1  and  C_2
REMARK    2  A    between atoms: C_2  and  C_3
REMARK    3  A    between atoms: C_3  and  C_4
REMARK    4  A    between atoms: C_4  and  C_5
REMARK    5  A    between atoms: C_5  and  O_7
REMARK    6  A    between atoms: O_7  and  C_8
REMARK    7  A    between atoms: C_8  and  C_9
REMARK    8  A    between atoms: C_8  and  C_14
REMARK    9  A    between atoms: C_9  and  C_10
REMARK   10  A    between atoms: C_11  and  C_12
REMARK   11  A    between atoms: C_11  and  C_13
REMARK   12  A    between atoms: C_19  and  O_20
REMARK   13  A    between atoms: C_23  and  O_24
REMARK                            x       y       z     vdW  Elec       q    Type
REMARK                         _______ _______ _______ _____ _____    ______ ____
ROOT
ATOM      1  C   UNL     1      23.346   1.299  52.279  0.00  0.00    +0.000 C 
ATOM      2  C   UNL     1      24.113   1.911  51.366  0.00  0.00    +0.000 C 
ATOM      3  C   UNL     1      25.566   2.051  51.535  0.00  0.00    +0.000 C 
ATOM      4  O   UNL     1      26.224   2.732  50.757  0.00  0.00    +0.000 OA
ATOM      5  C   UNL     1      26.188   1.445  52.719  0.00  0.00    +0.000 A 
ATOM      6  C   UNL     1      27.496   1.790  53.079  0.00  0.00    +0.000 A 
ATOM      7  C   UNL     1      28.129   1.148  54.131  0.00  0.00    +0.000 A 
ATOM      8  C   UNL     1      27.455   0.150  54.839  0.00  0.00    +0.000 A 
ATOM      9  C   UNL     1      26.130  -0.166  54.508  0.00  0.00    +0.000 A 
ATOM     10  C   UNL     1      25.471   0.514  53.472  0.00  0.00    +0.000 A 
ATOM     11  C   UNL     1      24.030   0.309  53.172  0.00  0.00    +0.000 C 
ATOM     12  O   UNL     1      23.406  -0.663  53.576  0.00  0.00    +0.000 OA
ENDROOT
BRANCH   6  13
ATOM     13  O   UNL     1      28.211   2.781  52.460  0.00  0.00    +0.000 OA
ATOM     14  H   UNL     1      27.819   3.619  52.313  0.00  0.00    +0.000 HD
ENDBRANCH   6  13
BRANCH   9  15
ATOM     15  O   UNL     1      25.495  -1.128  55.237  0.00  0.00    +0.000 OA
ATOM     16  H   UNL     1      25.602  -2.032  55.012  0.00  0.00    +0.000 HD
ENDBRANCH   9  15
BRANCH   1  17
ATOM     17  C   UNL     1      21.828   1.376  52.365  0.00  0.00    +0.000 C 
BRANCH  17  18
ATOM     18  O   UNL     1      21.066   0.423  51.530  0.00  0.00    +0.000 OA
BRANCH  18  19
ATOM     19  C   UNL     1      20.383   0.751  50.408  0.00  0.00    +0.000 C 
ATOM     20  O   UNL     1      19.192   1.025  50.356  0.00  0.00    +0.000 OA
BRANCH  19  21
ATOM     21  C   UNL     1      21.298   0.842  49.187  0.00  0.00    +0.000 C 
BRANCH  21  22
ATOM     22  C   UNL     1      21.258   2.198  48.504  0.00  0.00    +0.000 C 
BRANCH  22  24
ATOM     23  C   UNL     1      23.043   4.022  48.411  0.00  0.00    +0.000 C 
ATOM     24  C   UNL     1      22.655   2.608  48.035  0.00  0.00    +0.000 C 
ENDBRANCH  22  24
ENDBRANCH  21  22
ENDBRANCH  19  21
ENDBRANCH  18  19
ENDBRANCH  17  18
BRANCH  17  25
ATOM     25  C   UNL     1      21.110   2.769  52.529  0.00  0.00    +0.000 C 
BRANCH  25  26
ATOM     26  C   UNL     1      21.236   4.082  51.766  0.00  0.00    +0.000 C 
ATOM     27  C   UNL     1      22.087   5.124  51.705  0.00  0.00    +0.000 C 
ATOM     28  C   UNL     1      21.663   6.402  50.998  0.00  0.00    +0.000 C 
ATOM     29  C   UNL     1      23.434   5.216  52.334  0.00  0.00    +0.000 C 
ENDBRANCH  25  26
ENDBRANCH  17  25
ENDBRANCH   1  17
TORSDOF 10
ENDMDL
MODEL 5
REMARK VINA RESULT:    -7.849      2.488      6.911
REMARK INTER + INTRA:         -13.113
REMARK INTER:                 -11.758
REMARK INTRA:                  -1.354
REMARK UNBOUND:                -1.133
REMARK  Name = 
REMARK  13 active torsions:
REMARK  status: ('A' for Active; 'I' for Inactive)
REMARK    1  A    between atoms: C_1  and  C_2
REMARK    2  A    between atoms: C_2  and  C_3
REMARK    3  A    between atoms: C_3  and  C_4
REMARK    4  A    between atoms: C_4  and  C_5
REMARK    5  A    between atoms: C_5  and  O_7
REMARK    6  A    between atoms: O_7  and  C_8
REMARK    7  A    between atoms: C_8  and  C_9
REMARK    8  A    between atoms: C_8  and  C_14
REMARK    9  A    between atoms: C_9  and  C_10
REMARK   10  A    between atoms: C_11  and  C_12
REMARK   11  A    between atoms: C_11  and  C_13
REMARK   12  A    between atoms: C_19  and  O_20
REMARK   13  A    between atoms: C_23  and  O_24
REMARK                            x       y       z     vdW  Elec       q    Type
REMARK                         _______ _______ _______ _____ _____    ______ ____
ROOT
ATOM      1  C   UNL     1      23.111   0.664  52.813  0.00  0.00    +0.000 C 
ATOM      2  C   UNL     1      22.767  -0.334  53.639  0.00  0.00    +0.000 C 
ATOM      3  C   UNL     1      21.403  -0.878  53.682  0.00  0.00    +0.000 C 
ATOM      4  O   UNL     1      21.081  -1.693  54.538  0.00  0.00    +0.000 OA
ATOM      5  C   UNL     1      20.411  -0.337  52.745  0.00  0.00    +0.000 A 
ATOM      6  C   UNL     1      19.050  -0.601  52.933  0.00  0.00    +0.000 A 
ATOM      7  C   UNL     1      18.116  -0.185  51.998  0.00  0.00    +0.000 A 
ATOM      8  C   UNL     1      18.537   0.506  50.859  0.00  0.00    +0.000 A 
ATOM      9  C   UNL     1      19.895   0.809  50.690  0.00  0.00    +0.000 A 
ATOM     10  C   UNL     1      20.838   0.428  51.658  0.00  0.00    +0.000 A 
ATOM     11  C   UNL     1      22.264   0.841  51.589  0.00  0.00    +0.000 C 
ATOM     12  O   UNL     1      22.779   1.258  50.560  0.00  0.00    +0.000 OA
ENDROOT
BRANCH   6  13
ATOM     13  O   UNL     1      18.553  -1.238  54.039  0.00  0.00    +0.000 OA
ATOM     14  H   UNL     1      17.745  -1.709  53.985  0.00  0.00    +0.000 HD
ENDBRANCH   6  13
BRANCH   9  15
ATOM     15  O   UNL     1      20.267   1.506  49.578  0.00  0.00    +0.000 OA
ATOM     16  H   UNL     1      21.159   1.488  49.291  0.00  0.00    +0.000 HD
ENDBRANCH   9  15
BRANCH   1  17
ATOM     17  C   UNL     1      24.377   1.504  52.906  0.00  0.00    +0.000 C 
BRANCH  17  18
ATOM     18  O   UNL     1      25.570   0.847  53.479  0.00  0.00    +0.000 OA
BRANCH  18  19
ATOM     19  C   UNL     1      26.640   0.424  52.765  0.00  0.00    +0.000 C 
ATOM     20  O   UNL     1      26.608  -0.387  51.849  0.00  0.00    +0.000 OA
BRANCH  19  21
ATOM     21  C   UNL     1      27.920   1.158  53.165  0.00  0.00    +0.000 C 
BRANCH  21  22
ATOM     22  C   UNL     1      28.687   0.466  54.279  0.00  0.00    +0.000 C 
BRANCH  22  24
ATOM     23  C   UNL     1      29.464  -1.787  53.363  0.00  0.00    +0.000 C 
ATOM     24  C   UNL     1      29.839  -0.363  53.708  0.00  0.00    +0.000 C 
ENDBRANCH  22  24
ENDBRANCH  21  22
ENDBRANCH  19  21
ENDBRANCH  18  19
ENDBRANCH  17  18
BRANCH  17  25
ATOM     25  C   UNL     1      24.289   3.039  53.252  0.00  0.00    +0.000 C 
BRANCH  25  26
ATOM     26  C   UNL     1      23.807   4.243  52.452  0.00  0.00    +0.000 C 
ATOM     27  C   UNL     1      22.650   4.702  51.936  0.00  0.00    +0.000 C 
ATOM     28  C   UNL     1      22.675   5.837  50.924  0.00  0.00    +0.000 C 
ATOM     29  C   UNL     1      21.284   4.164  52.187  0.00  0.00    +0.000 C 
ENDBRANCH  25  26
ENDBRANCH  17  25
ENDBRANCH   1  17
TORSDOF 10
ENDMDL
MODEL 6
REMARK VINA RESULT:    -7.814      1.889      6.412
REMARK INTER + INTRA:         -13.059
REMARK INTER:                 -11.964
REMARK INTRA:                  -1.095
REMARK UNBOUND:                -1.133
REMARK  Name = 
REMARK  13 active torsions:
REMARK  status: ('A' for Active; 'I' for Inactive)
REMARK    1  A    between atoms: C_1  and  C_2
REMARK    2  A    between atoms: C_2  and  C_3
REMARK    3  A    between atoms: C_3  and  C_4
REMARK    4  A    between atoms: C_4  and  C_5
REMARK    5  A    between atoms: C_5  and  O_7
REMARK    6  A    between atoms: O_7  and  C_8
REMARK    7  A    between atoms: C_8  and  C_9
REMARK    8  A    between atoms: C_8  and  C_14
REMARK    9  A    between atoms: C_9  and  C_10
REMARK   10  A    between atoms: C_11  and  C_12
REMARK   11  A    between atoms: C_11  and  C_13
REMARK   12  A    between atoms: C_19  and  O_20
REMARK   13  A    between atoms: C_23  and  O_24
REMARK                            x       y       z     vdW  Elec       q    Type
REMARK                         _______ _______ _______ _____ _____    ______ ____
ROOT
ATOM      1  C   UNL     1      23.833   1.280  52.851  0.00  0.00    +0.000 C 
ATOM      2  C   UNL     1      23.011   2.276  52.491  0.00  0.00    +0.000 C 
ATOM      3  C   UNL     1      21.553   2.106  52.440  0.00  0.00    +0.000 C 
ATOM      4  O   UNL     1      20.836   2.985  51.978  0.00  0.00    +0.000 OA
ATOM      5  C   UNL     1      20.991   0.815  52.855  0.00  0.00    +0.000 A 
ATOM      6  C   UNL     1      19.661   0.499  52.555  0.00  0.00    +0.000 A 
ATOM      7  C   UNL     1      19.089  -0.670  53.031  0.00  0.00    +0.000 A 
ATOM      8  C   UNL     1      19.849  -1.541  53.816  0.00  0.00    +0.000 A 
ATOM      9  C   UNL     1      21.193  -1.249  54.081  0.00  0.00    +0.000 A 
ATOM     10  C   UNL     1      21.788  -0.087  53.561  0.00  0.00    +0.000 A 
ATOM     11  C   UNL     1      23.239   0.199  53.703  0.00  0.00    +0.000 C 
ATOM     12  O   UNL     1      23.944  -0.371  54.525  0.00  0.00    +0.000 OA
ENDROOT
BRANCH   6  13
ATOM     13  O   UNL     1      18.862   1.281  51.763  0.00  0.00    +0.000 OA
ATOM     14  H   UNL     1      18.848   2.210  51.884  0.00  0.00    +0.000 HD
ENDBRANCH   6  13
BRANCH   9  15
ATOM     15  O   UNL     1      21.911  -2.134  54.830  0.00  0.00    +0.000 OA
ATOM     16  H   UNL     1      21.820  -3.055  54.681  0.00  0.00    +0.000 HD
ENDBRANCH   9  15
BRANCH   1  17
ATOM     17  C   UNL     1      25.339   1.243  52.636  0.00  0.00    +0.000 C 
BRANCH  17  18
ATOM     18  O   UNL     1      26.179   1.792  53.721  0.00  0.00    +0.000 OA
BRANCH  18  19
ATOM     19  C   UNL     1      27.509   1.577  53.856  0.00  0.00    +0.000 C 
ATOM     20  O   UNL     1      28.388   2.396  53.625  0.00  0.00    +0.000 OA
BRANCH  19  21
ATOM     21  C   UNL     1      27.809   0.196  54.438  0.00  0.00    +0.000 C 
BRANCH  21  22
ATOM     22  C   UNL     1      27.795  -0.912  53.398  0.00  0.00    +0.000 C 
BRANCH  22  24
ATOM     23  C   UNL     1      30.318  -0.638  53.678  0.00  0.00    +0.000 C 
ATOM     24  C   UNL     1      29.181  -1.545  53.265  0.00  0.00    +0.000 C 
ENDBRANCH  22  24
ENDBRANCH  21  22
ENDBRANCH  19  21
ENDBRANCH  18  19
ENDBRANCH  17  18
BRANCH  17  25
ATOM     25  C   UNL     1      25.944   1.485  51.201  0.00  0.00    +0.000 C 
BRANCH  25  26
ATOM     26  C   UNL     1      26.488   2.732  50.516  0.00  0.00    +0.000 C 
ATOM     27  C   UNL     1      26.029   3.714  49.716  0.00  0.00    +0.000 C 
ATOM     28  C   UNL     1      27.014   4.627  49.003  0.00  0.00    +0.000 C 
ATOM     29  C   UNL     1      24.607   3.989  49.366  0.00  0.00    +0.000 C 
ENDBRANCH  25  26
ENDBRANCH  17  25
ENDBRANCH   1  17
TORSDOF 10
ENDMDL
MODEL 7
REMARK VINA RESULT:    -7.760      2.291      5.068
REMARK INTER + INTRA:         -12.977
REMARK INTER:                 -11.808
REMARK INTRA:                  -1.169
REMARK UNBOUND:                -1.133
REMARK  Name = 
REMARK  13 active torsions:
REMARK  status: ('A' for Active; 'I' for Inactive)
REMARK    1  A    between atoms: C_1  and  C_2
REMARK    2  A    between atoms: C_2  and  C_3
REMARK    3  A    between atoms: C_3  and  C_4
REMARK    4  A    between atoms: C_4  and  C_5
REMARK    5  A    between atoms: C_5  and  O_7
REMARK    6  A    between atoms: O_7  and  C_8
REMARK    7  A    between atoms: C_8  and  C_9
REMARK    8  A    between atoms: C_8  and  C_14
REMARK    9  A    between atoms: C_9  and  C_10
REMARK   10  A    between atoms: C_11  and  C_12
REMARK   11  A    between atoms: C_11  and  C_13
REMARK   12  A    between atoms: C_19  and  O_20
REMARK   13  A    between atoms: C_23  and  O_24
REMARK                            x       y       z     vdW  Elec       q    Type
REMARK                         _______ _______ _______ _____ _____    ______ ____
ROOT
ATOM      1  C   UNL     1      24.768   1.894  52.181  0.00  0.00    +0.000 C 
ATOM      2  C   UNL     1      25.806   1.262  52.746  0.00  0.00    +0.000 C 
ATOM      3  C   UNL     1      25.624   0.161  53.701  0.00  0.00    +0.000 C 
ATOM      4  O   UNL     1      26.581  -0.308  54.305  0.00  0.00    +0.000 OA
ATOM      5  C   UNL     1      24.256  -0.286  53.991  0.00  0.00    +0.000 A 
ATOM      6  C   UNL     1      24.006  -1.116  55.091  0.00  0.00    +0.000 A 
ATOM      7  C   UNL     1      22.739  -1.628  55.313  0.00  0.00    +0.000 A 
ATOM      8  C   UNL     1      21.700  -1.312  54.433  0.00  0.00    +0.000 A 
ATOM      9  C   UNL     1      21.938  -0.446  53.357  0.00  0.00    +0.000 A 
ATOM     10  C   UNL     1      23.211   0.110  53.155  0.00  0.00    +0.000 A 
ATOM     11  C   UNL     1      23.479   1.133  52.110  0.00  0.00    +0.000 C 
ATOM     12  O   UNL     1      22.719   1.328  51.171  0.00  0.00    +0.000 OA
ENDROOT
BRANCH   6  13
ATOM     13  O   UNL     1      24.960  -1.442  56.019  0.00  0.00    +0.000 OA
ATOM     14  H   UNL     1      25.614  -2.080  55.813  0.00  0.00    +0.000 HD
ENDBRANCH   6  13
BRANCH   9  15
ATOM     15  O   UNL     1      20.895  -0.140  52.532  0.00  0.00    +0.000 OA
ATOM     16  H   UNL     1      20.502  -0.809  52.006  0.00  0.00    +0.000 HD
ENDBRANCH   9  15
BRANCH   1  17
ATOM     17  C   UNL     1      24.826   3.226  51.445  0.00  0.00    +0.000 C 
BRANCH  17  18
ATOM     18  O   UNL     1      23.667   4.127  51.609  0.00  0.00    +0.000 OA
BRANCH  18  19
ATOM     19  C   UNL     1      23.290   5.076  50.720  0.00  0.00    +0.000 C 
ATOM     20  O   UNL     1      23.751   6.207  50.650  0.00  0.00    +0.000 OA
BRANCH  19  21
ATOM     21  C   UNL     1      22.267   4.545  49.716  0.00  0.00    +0.000 C 
BRANCH  21  22
ATOM     22  C   UNL     1      22.681   4.748  48.269  0.00  0.00    +0.000 C 
BRANCH  22  24
ATOM     23  C   UNL     1      22.553   2.247  47.768  0.00  0.00    +0.000 C 
ATOM     24  C   UNL     1      22.108   3.641  47.383  0.00  0.00    +0.000 C 
ENDBRANCH  22  24
ENDBRANCH  21  22
ENDBRANCH  19  21
ENDBRANCH  18  19
ENDBRANCH  17  18
BRANCH  17  25
ATOM     25  C   UNL     1      25.485   3.317  50.016  0.00  0.00    +0.000 C 
BRANCH  25  26
ATOM     26  C   UNL     1      26.778   3.952  49.523  0.00  0.00    +0.000 C 
ATOM     27  C   UNL     1      27.157   5.062  48.860  0.00  0.00    +0.000 C 
ATOM     28  C   UNL     1      28.568   5.160  48.302  0.00  0.00    +0.000 C 
ATOM     29  C   UNL     1      26.305   6.237  48.524  0.00  0.00    +0.000 C 
ENDBRANCH  25  26
ENDBRANCH  17  25
ENDBRANCH   1  17
TORSDOF 10
ENDMDL
MODEL 8
REMARK VINA RESULT:    -7.696      1.525      4.344
REMARK INTER + INTRA:         -12.878
REMARK INTER:                 -11.499
REMARK INTRA:                  -1.379
REMARK UNBOUND:                -1.133
REMARK  Name = 
REMARK  13 active torsions:
REMARK  status: ('A' for Active; 'I' for Inactive)
REMARK    1  A    between atoms: C_1  and  C_2
REMARK    2  A    between atoms: C_2  and  C_3
REMARK    3  A    between atoms: C_3  and  C_4
REMARK    4  A    between atoms: C_4  and  C_5
REMARK    5  A    between atoms: C_5  and  O_7
REMARK    6  A    between atoms: O_7  and  C_8
REMARK    7  A    between atoms: C_8  and  C_9
REMARK    8  A    between atoms: C_8  and  C_14
REMARK    9  A    between atoms: C_9  and  C_10
REMARK   10  A    between atoms: C_11  and  C_12
REMARK   11  A    between atoms: C_11  and  C_13
REMARK   12  A    between atoms: C_19  and  O_20
REMARK   13  A    between atoms: C_23  and  O_24
REMARK                            x       y       z     vdW  Elec       q    Type
REMARK                         _______ _______ _______ _____ _____    ______ ____
ROOT
ATOM      1  C   UNL     1      25.076   0.878  52.691  0.00  0.00    +0.000 C 
ATOM      2  C   UNL     1      25.025  -0.461  52.735  0.00  0.00    +0.000 C 
ATOM      3  C   UNL     1      26.217  -1.279  52.997  0.00  0.00    +0.000 C 
ATOM      4  O   UNL     1      26.173  -2.499  52.896  0.00  0.00    +0.000 OA
ATOM      5  C   UNL     1      27.484  -0.590  53.273  0.00  0.00    +0.000 A 
ATOM      6  C   UNL     1      28.691  -1.298  53.240  0.00  0.00    +0.000 A 
ATOM      7  C   UNL     1      29.878  -0.684  53.601  0.00  0.00    +0.000 A 
ATOM      8  C   UNL     1      29.871   0.655  54.000  0.00  0.00    +0.000 A 
ATOM      9  C   UNL     1      28.671   1.378  53.993  0.00  0.00    +0.000 A 
ATOM     10  C   UNL     1      27.473   0.771  53.583  0.00  0.00    +0.000 A 
ATOM     11  C   UNL     1      26.204   1.529  53.432  0.00  0.00    +0.000 C 
ATOM     12  O   UNL     1      26.032   2.630  53.938  0.00  0.00    +0.000 OA
ENDROOT
BRANCH   6  13
ATOM     13  O   UNL     1      28.787  -2.601  52.826  0.00  0.00    +0.000 OA
ATOM     14  H   UNL     1      28.285  -3.267  53.253  0.00  0.00    +0.000 HD
ENDBRANCH   6  13
BRANCH   9  15
ATOM     15  O   UNL     1      28.705   2.690  54.365  0.00  0.00    +0.000 OA
ATOM     16  H   UNL     1      28.515   2.931  55.250  0.00  0.00    +0.000 HD
ENDBRANCH   9  15
BRANCH   1  17
ATOM     17  C   UNL     1      24.000   1.794  52.124  0.00  0.00    +0.000 C 
BRANCH  17  18
ATOM     18  O   UNL     1      24.464   3.017  51.436  0.00  0.00    +0.000 OA
BRANCH  18  19
ATOM     19  C   UNL     1      24.531   3.173  50.093  0.00  0.00    +0.000 C 
ATOM     20  O   UNL     1      25.544   3.068  49.415  0.00  0.00    +0.000 OA
BRANCH  19  21
ATOM     21  C   UNL     1      23.152   3.407  49.475  0.00  0.00    +0.000 C 
BRANCH  21  22
ATOM     22  C   UNL     1      22.961   2.700  48.144  0.00  0.00    +0.000 C 
BRANCH  22  24
ATOM     23  C   UNL     1      21.056   1.643  49.476  0.00  0.00    +0.000 C 
ATOM     24  C   UNL     1      21.988   1.529  48.290  0.00  0.00    +0.000 C 
ENDBRANCH  22  24
ENDBRANCH  21  22
ENDBRANCH  19  21
ENDBRANCH  18  19
ENDBRANCH  17  18
BRANCH  17  25
ATOM     25  C   UNL     1      22.639   1.992  52.892  0.00  0.00    +0.000 C 
BRANCH  25  26
ATOM     26  C   UNL     1      21.412   1.103  53.050  0.00  0.00    +0.000 C 
ATOM     27  C   UNL     1      21.077  -0.032  53.694  0.00  0.00    +0.000 C 
ATOM     28  C   UNL     1      19.789  -0.753  53.328  0.00  0.00    +0.000 C 
ATOM     29  C   UNL     1      21.883  -0.747  54.723  0.00  0.00    +0.000 C 
ENDBRANCH  25  26
ENDBRANCH  17  25
ENDBRANCH   1  17
TORSDOF 10
ENDMDL
MODEL 9
REMARK VINA RESULT:    -7.583      2.271      7.139
REMARK INTER + INTRA:         -12.706
REMARK INTER:                 -11.695
REMARK INTRA:                  -1.011
REMARK UNBOUND:                -1.133
REMARK  Name = 
REMARK  13 active torsions:
REMARK  status: ('A' for Active; 'I' for Inactive)
REMARK    1  A    between atoms: C_1  and  C_2
REMARK    2  A    between atoms: C_2  and  C_3
REMARK    3  A    between atoms: C_3  and  C_4
REMARK    4  A    between atoms: C_4  and  C_5
REMARK    5  A    between atoms: C_5  and  O_7
REMARK    6  A    between atoms: O_7  and  C_8
REMARK    7  A    between atoms: C_8  and  C_9
REMARK    8  A    between atoms: C_8  and  C_14
REMARK    9  A    between atoms: C_9  and  C_10
REMARK   10  A    between atoms: C_11  and  C_12
REMARK   11  A    between atoms: C_11  and  C_13
REMARK   12  A    between atoms: C_19  and  O_20
REMARK   13  A    between atoms: C_23  and  O_24
REMARK                            x       y       z     vdW  Elec       q    Type
REMARK                         _______ _______ _______ _____ _____    ______ ____
ROOT
ATOM      1  C   UNL     1      24.498   3.190  51.831  0.00  0.00    +0.000 C 
ATOM      2  C   UNL     1      23.349   3.871  51.723  0.00  0.00    +0.000 C 
ATOM      3  C   UNL     1      23.240   5.096  50.918  0.00  0.00    +0.000 C 
ATOM      4  O   UNL     1      22.220   5.774  50.945  0.00  0.00    +0.000 OA
ATOM      5  C   UNL     1      24.422   5.541  50.170  0.00  0.00    +0.000 A 
ATOM      6  C   UNL     1      24.468   6.832  49.632  0.00  0.00    +0.000 A 
ATOM      7  C   UNL     1      25.531   7.227  48.836  0.00  0.00    +0.000 A 
ATOM      8  C   UNL     1      26.567   6.328  48.571  0.00  0.00    +0.000 A 
ATOM      9  C   UNL     1      26.545   5.049  49.144  0.00  0.00    +0.000 A 
ATOM     10  C   UNL     1      25.492   4.663  49.988  0.00  0.00    +0.000 A 
ATOM     11  C   UNL     1      25.490   3.371  50.722  0.00  0.00    +0.000 C 
ATOM     12  O   UNL     1      26.222   2.439  50.415  0.00  0.00    +0.000 OA
ENDROOT
BRANCH   6  13
ATOM     13  O   UNL     1      23.511   7.783  49.875  0.00  0.00    +0.000 OA
ATOM     14  H   UNL     1      22.879   7.648  50.553  0.00  0.00    +0.000 HD
ENDBRANCH   6  13
BRANCH   9  15
ATOM     15  O   UNL     1      27.586   4.207  48.883  0.00  0.00    +0.000 OA
ATOM     16  H   UNL     1      27.964   3.702  49.576  0.00  0.00    +0.000 HD
ENDBRANCH   9  15
BRANCH   1  17
ATOM     17  C   UNL     1      24.806   2.117  52.867  0.00  0.00    +0.000 C 
BRANCH  17  18
ATOM     18  O   UNL     1      26.078   2.254  53.606  0.00  0.00    +0.000 OA
BRANCH  18  19
ATOM     19  C   UNL     1      26.824   1.220  54.064  0.00  0.00    +0.000 C 
ATOM     20  O   UNL     1      26.554   0.524  55.033  0.00  0.00    +0.000 OA
BRANCH  19  21
ATOM     21  C   UNL     1      28.026   0.939  53.162  0.00  0.00    +0.000 C 
BRANCH  21  22
ATOM     22  C   UNL     1      29.324   0.754  53.930  0.00  0.00    +0.000 C 
BRANCH  22  24
ATOM     23  C   UNL     1      29.007  -1.694  53.276  0.00  0.00    +0.000 C 
ATOM     24  C   UNL     1      29.985  -0.575  53.562  0.00  0.00    +0.000 C 
ENDBRANCH  22  24
ENDBRANCH  21  22
ENDBRANCH  19  21
ENDBRANCH  18  19
ENDBRANCH  17  18
BRANCH  17  25
ATOM     25  C   UNL     1      24.399   0.618  52.605  0.00  0.00    +0.000 C 
BRANCH  25  26
ATOM     26  C   UNL     1      23.457  -0.330  53.335  0.00  0.00    +0.000 C 
ATOM     27  C   UNL     1      22.194  -0.320  53.804  0.00  0.00    +0.000 C 
ATOM     28  C   UNL     1      21.737  -1.410  54.760  0.00  0.00    +0.000 C 
ATOM     29  C   UNL     1      21.155   0.717  53.550  0.00  0.00    +0.000 C 
ENDBRANCH  25  26
ENDBRANCH  17  25
ENDBRANCH   1  17
TORSDOF 10
ENDMDL
