MODEL 1
REMARK VINA RESULT:    -7.830      0.000      0.000
REMARK INTER + INTRA:         -11.321
REMARK INTER:                 -10.576
REMARK INTRA:                  -0.745
REMARK UNBOUND:                -0.745
REMARK  Name = 
REMARK  9 active torsions:
REMARK  status: ('A' for Active; 'I' for Inactive)
REMARK    1  A    between atoms: C_1  and  C_2
REMARK    2  A    between atoms: C_2  and  N_3
REMARK    3  A    between atoms: N_3  and  C_4
REMARK    4  A    between atoms: C_4  and  C_5
REMARK    5  A    between atoms: N_8  and  C_9
REMARK    6  A    between atoms: C_16  and  C_17
REMARK    7  A    between atoms: N_21  and  C_22
REMARK    8  A    between atoms: C_22  and  C_23
REMARK    9  A    between atoms: C_22  and  C_24
REMARK                            x       y       z     vdW  Elec       q    Type
REMARK                         _______ _______ _______ _____ _____    ______ ____
ROOT
ATOM      1  C   UNL     1      23.864   1.030  52.922  0.00  0.00    +0.000 A 
ATOM      2  C   UNL     1      23.846  -0.135  53.701  0.00  0.00    +0.000 A 
ATOM      3  F   UNL     1      24.962  -0.585  54.288  0.00  0.00    +0.000 F 
ATOM      4  C   UNL     1      22.670  -0.835  53.937  0.00  0.00    +0.000 A 
ATOM      5  C   UNL     1      21.458  -0.384  53.390  0.00  0.00    +0.000 A 
ATOM      6  C   UNL     1      20.235  -1.175  53.683  0.00  0.00    +0.000 A 
ATOM      7  O   UNL     1      20.305  -2.137  54.435  0.00  0.00    +0.000 OA
ATOM      8  C   UNL     1      18.975  -0.737  53.053  0.00  0.00    +0.000 A 
ATOM      9  C   UNL     1      19.027   0.374  52.304  0.00  0.00    +0.000 A 
ATOM     10  N   UNL     1      20.131   1.192  52.070  0.00  0.00    +0.000 N 
ATOM     11  C   UNL     1      21.390   0.780  52.597  0.00  0.00    +0.000 A 
ATOM     12  C   UNL     1      22.618   1.449  52.396  0.00  0.00    +0.000 A 
ATOM     13  F   UNL     1      22.671   2.544  51.616  0.00  0.00    +0.000 F 
ENDROOT
BRANCH   1  17
ATOM     14  C   UNL     1      27.286   2.279  53.093  0.00  0.00    +0.000 C 
ATOM     15  C   UNL     1      27.166   1.510  51.775  0.00  0.00    +0.000 C 
ATOM     16  C   UNL     1      25.715   1.741  51.372  0.00  0.00    +0.000 C 
ATOM     17  N   UNL     1      24.998   1.781  52.640  0.00  0.00    +0.000 N 
ATOM     18  C   UNL     1      25.919   2.041  53.757  0.00  0.00    +0.000 C 
BRANCH  14  19
ATOM     19  C   UNL     1      28.446   1.820  53.983  0.00  0.00    +0.000 C 
BRANCH  19  20
ATOM     20  N   UNL     1      29.496   1.155  53.206  0.00  0.00    +0.000 N 
ATOM     21  H   UNL     1      29.157   0.997  52.257  0.00  0.00    +0.000 HD
ATOM     22  H   UNL     1      30.321   1.756  53.198  0.00  0.00    +0.000 HD
BRANCH  20  24
ATOM     23  C   UNL     1      28.940  -1.231  53.304  0.00  0.00    +0.000 C 
ATOM     24  C   UNL     1      29.866  -0.130  53.803  0.00  0.00    +0.000 C 
ENDBRANCH  20  24
ENDBRANCH  19  20
ENDBRANCH  14  19
ENDBRANCH   1  17
BRANCH   8  25
ATOM     25  C   UNL     1      17.669  -1.400  53.197  0.00  0.00    +0.000 C 
ATOM     26  O   UNL     1      17.497  -2.560  53.544  0.00  0.00    +0.000 OA
ATOM     27  O   UNL     1      16.621  -0.605  52.948  0.00  0.00    +0.000 OA
ENDBRANCH   8  25
BRANCH  10  28
ATOM     28  C   UNL     1      20.050   2.408  51.211  0.00  0.00    +0.000 C 
ATOM     29  C   UNL     1      19.799   2.027  49.749  0.00  0.00    +0.000 C 
ATOM     30  C   UNL     1      19.050   3.443  51.741  0.00  0.00    +0.000 C 
ENDBRANCH  10  28
TORSDOF 6
ENDMDL
MODEL 2
REMARK VINA RESULT:    -7.763      3.700      5.864
REMARK INTER + INTRA:         -11.231
REMARK INTER:                 -10.264
REMARK INTRA:                  -0.966
REMARK UNBOUND:                -0.745
REMARK  Name = 
REMARK  9 active torsions:
REMARK  status: ('A' for Active; 'I' for Inactive)
REMARK    1  A    between atoms: C_1  and  C_2
REMARK    2  A    between atoms: C_2  and  N_3
REMARK    3  A    between atoms: N_3  and  C_4
REMARK    4  A    between atoms: C_4  and  C_5
REMARK    5  A    between atoms: N_8  and  C_9
REMARK    6  A    between atoms: C_16  and  C_17
REMARK    7  A    between atoms: N_21  and  C_22
REMARK    8  A    between atoms: C_22  and  C_23
REMARK    9  A    between atoms: C_22  and  C_24
REMARK                            x       y       z     vdW  Elec       q    Type
REMARK                         _______ _______ _______ _____ _____    ______ ____
ROOT
ATOM      1  C   UNL     1      22.731   4.103  50.943  0.00  0.00    +0.000 A 
ATOM      2  C   UNL     1      21.406   3.829  51.309  0.00  0.00    +0.000 A 
ATOM      3  F   UNL     1      20.400   4.591  50.863  0.00  0.00    +0.000 F 
ATOM      4  C   UNL     1      21.081   2.734  52.098  0.00  0.00    +0.000 A 
ATOM      5  C   UNL     1      22.089   1.868  52.554  0.00  0.00    +0.000 A 
ATOM      6  C   UNL     1      21.675   0.713  53.393  0.00  0.00    +0.000 A 
ATOM      7  O   UNL     1      20.486   0.513  53.598  0.00  0.00    +0.000 OA
ATOM      8  C   UNL     1      22.742  -0.156  53.925  0.00  0.00    +0.000 A 
ATOM      9  C   UNL     1      23.999   0.139  53.565  0.00  0.00    +0.000 A 
ATOM     10  N   UNL     1      24.425   1.159  52.718  0.00  0.00    +0.000 N 
ATOM     11  C   UNL     1      23.445   2.072  52.229  0.00  0.00    +0.000 A 
ATOM     12  C   UNL     1      23.712   3.201  51.420  0.00  0.00    +0.000 A 
ATOM     13  F   UNL     1      24.978   3.512  51.091  0.00  0.00    +0.000 F 
ENDROOT
BRANCH   1  17
ATOM     14  C   UNL     1      24.672   6.956  49.760  0.00  0.00    +0.000 C 
ATOM     15  C   UNL     1      24.911   5.819  48.763  0.00  0.00    +0.000 C 
ATOM     16  C   UNL     1      23.590   5.061  48.779  0.00  0.00    +0.000 C 
ATOM     17  N   UNL     1      23.133   5.177  50.159  0.00  0.00    +0.000 N 
ATOM     18  C   UNL     1      23.812   6.287  50.846  0.00  0.00    +0.000 C 
BRANCH  14  19
ATOM     19  C   UNL     1      25.954   7.567  50.335  0.00  0.00    +0.000 C 
BRANCH  19  20
ATOM     20  N   UNL     1      27.138   7.166  49.568  0.00  0.00    +0.000 N 
ATOM     21  H   UNL     1      27.803   6.715  50.196  0.00  0.00    +0.000 HD
ATOM     22  H   UNL     1      26.842   6.522  48.834  0.00  0.00    +0.000 HD
BRANCH  20  24
ATOM     23  C   UNL     1      27.948   9.449  49.949  0.00  0.00    +0.000 C 
ATOM     24  C   UNL     1      27.780   8.322  48.940  0.00  0.00    +0.000 C 
ENDBRANCH  20  24
ENDBRANCH  19  20
ENDBRANCH  14  19
ENDBRANCH   1  17
BRANCH   8  25
ATOM     25  C   UNL     1      22.538  -1.328  54.792  0.00  0.00    +0.000 C 
ATOM     26  O   UNL     1      21.686  -2.190  54.630  0.00  0.00    +0.000 OA
ATOM     27  O   UNL     1      23.411  -1.420  55.803  0.00  0.00    +0.000 OA
ENDBRANCH   8  25
BRANCH  10  28
ATOM     28  C   UNL     1      25.865   1.378  52.399  0.00  0.00    +0.000 C 
ATOM     29  C   UNL     1      26.593   2.022  53.583  0.00  0.00    +0.000 C 
ATOM     30  C   UNL     1      26.559   0.110  51.887  0.00  0.00    +0.000 C 
ENDBRANCH  10  28
TORSDOF 6
ENDMDL
MODEL 3
REMARK VINA RESULT:    -7.614      3.392      7.900
REMARK INTER + INTRA:         -11.030
REMARK INTER:                 -10.288
REMARK INTRA:                  -0.742
REMARK UNBOUND:                -0.745
REMARK  Name = 
REMARK  9 active torsions:
REMARK  status: ('A' for Active; 'I' for Inactive)
REMARK    1  A    between atoms: C_1  and  C_2
REMARK    2  A    between atoms: C_2  and  N_3
REMARK    3  A    between atoms: N_3  and  C_4
REMARK    4  A    between atoms: C_4  and  C_5
REMARK    5  A    between atoms: N_8  and  C_9
REMARK    6  A    between atoms: C_16  and  C_17
REMARK    7  A    between atoms: N_21  and  C_22
REMARK    8  A    between atoms: C_22  and  C_23
REMARK    9  A    between atoms: C_22  and  C_24
REMARK                            x       y       z     vdW  Elec       q    Type
REMARK                         _______ _______ _______ _____ _____    ______ ____
ROOT
ATOM      1  C   UNL     1      22.174   0.645  52.314  0.00  0.00    +0.000 A 
ATOM      2  C   UNL     1      22.565  -0.197  53.364  0.00  0.00    +0.000 A 
ATOM      3  F   UNL     1      21.687  -1.027  53.941  0.00  0.00    +0.000 F 
ATOM      4  C   UNL     1      23.881  -0.244  53.808  0.00  0.00    +0.000 A 
ATOM      5  C   UNL     1      24.858   0.566  53.206  0.00  0.00    +0.000 A 
ATOM      6  C   UNL     1      26.247   0.467  53.725  0.00  0.00    +0.000 A 
ATOM      7  O   UNL     1      26.508  -0.353  54.595  0.00  0.00    +0.000 OA
ATOM      8  C   UNL     1      27.257   1.366  53.136  0.00  0.00    +0.000 A 
ATOM      9  C   UNL     1      26.849   2.167  52.142  0.00  0.00    +0.000 A 
ATOM     10  N   UNL     1      25.580   2.235  51.570  0.00  0.00    +0.000 N 
ATOM     11  C   UNL     1      24.547   1.438  52.144  0.00  0.00    +0.000 A 
ATOM     12  C   UNL     1      23.193   1.438  51.735  0.00  0.00    +0.000 A 
ATOM     13  F   UNL     1      22.782   2.269  50.760  0.00  0.00    +0.000 F 
ENDROOT
BRANCH   1  17
ATOM     14  C   UNL     1      19.012   2.115  51.245  0.00  0.00    +0.000 C 
ATOM     15  C   UNL     1      19.727   1.645  49.977  0.00  0.00    +0.000 C 
ATOM     16  C   UNL     1      20.498   0.419  50.450  0.00  0.00    +0.000 C 
ATOM     17  N   UNL     1      20.881   0.748  51.817  0.00  0.00    +0.000 N 
ATOM     18  C   UNL     1      20.047   1.838  52.349  0.00  0.00    +0.000 C 
BRANCH  14  19
ATOM     19  C   UNL     1      18.583   3.586  51.215  0.00  0.00    +0.000 C 
BRANCH  19  20
ATOM     20  N   UNL     1      17.374   3.816  52.012  0.00  0.00    +0.000 N 
ATOM     21  H   UNL     1      17.602   3.707  53.000  0.00  0.00    +0.000 HD
ATOM     22  H   UNL     1      17.038   4.760  51.822  0.00  0.00    +0.000 HD
BRANCH  20  24
ATOM     23  C   UNL     1      15.095   3.082  52.541  0.00  0.00    +0.000 C 
ATOM     24  C   UNL     1      16.316   2.868  51.657  0.00  0.00    +0.000 C 
ENDBRANCH  20  24
ENDBRANCH  19  20
ENDBRANCH  14  19
ENDBRANCH   1  17
BRANCH   8  25
ATOM     25  C   UNL     1      28.674   1.437  53.531  0.00  0.00    +0.000 C 
ATOM     26  O   UNL     1      29.464   0.504  53.507  0.00  0.00    +0.000 OA
ATOM     27  O   UNL     1      29.077   2.658  53.903  0.00  0.00    +0.000 OA
ENDBRANCH   8  25
BRANCH  10  28
ATOM     28  C   UNL     1      25.259   3.178  50.460  0.00  0.00    +0.000 C 
ATOM     29  C   UNL     1      24.776   4.523  51.012  0.00  0.00    +0.000 C 
ATOM     30  C   UNL     1      26.406   3.321  49.452  0.00  0.00    +0.000 C 
ENDBRANCH  10  28
TORSDOF 6
ENDMDL
MODEL 4
REMARK VINA RESULT:    -7.567      1.859      2.573
REMARK INTER + INTRA:         -10.966
REMARK INTER:                 -10.476
REMARK INTRA:                  -0.490
REMARK UNBOUND:                -0.745
REMARK  Name = 
REMARK  9 active torsions:
REMARK  status: ('A' for Active; 'I' for Inactive)
REMARK    1  A    between atoms: C_1  and  C_2
REMARK    2  A    between atoms: C_2  and  N_3
REMARK    3  A    between atoms: N_3  and  C_4
REMARK    4  A    between atoms: C_4  and  C_5
REMARK    5  A    between atoms: N_8  and  C_9
REMARK    6  A    between atoms: C_16  and  C_17
REMARK    7  A    between atoms: N_21  and  C_22
REMARK    8  A    between atoms: C_22  and  C_23
REMARK    9  A    between atoms: C_22  and  C_24
REMARK                            x       y       z     vdW  Elec       q    Type
REMARK                         _______ _______ _______ _____ _____    ______ ____
ROOT
ATOM      1  C   UNL     1      22.439   0.231  53.287  0.00  0.00    +0.000 A 
ATOM      2  C   UNL     1      21.541  -0.520  54.059  0.00  0.00    +0.000 A 
ATOM      3  F   UNL     1      21.922  -1.052  55.227  0.00  0.00    +0.000 F 
ATOM      4  C   UNL     1      20.219  -0.695  53.673  0.00  0.00    +0.000 A 
ATOM      5  C   UNL     1      19.748  -0.117  52.483  0.00  0.00    +0.000 A 
ATOM      6  C   UNL     1      18.322  -0.340  52.129  0.00  0.00    +0.000 A 
ATOM      7  O   UNL     1      17.596  -0.947  52.904  0.00  0.00    +0.000 OA
ATOM      8  C   UNL     1      17.848   0.213  50.846  0.00  0.00    +0.000 A 
ATOM      9  C   UNL     1      18.732   0.917  50.125  0.00  0.00    +0.000 A 
ATOM     10  N   UNL     1      20.051   1.219  50.456  0.00  0.00    +0.000 N 
ATOM     11  C   UNL     1      20.585   0.654  51.652  0.00  0.00    +0.000 A 
ATOM     12  C   UNL     1      21.918   0.799  52.099  0.00  0.00    +0.000 A 
ATOM     13  F   UNL     1      22.810   1.477  51.355  0.00  0.00    +0.000 F 
ENDROOT
BRANCH   1  17
ATOM     14  C   UNL     1      26.065  -0.153  53.336  0.00  0.00    +0.000 C 
ATOM     15  C   UNL     1      25.773   1.151  52.591  0.00  0.00    +0.000 C 
ATOM     16  C   UNL     1      24.509   1.662  53.271  0.00  0.00    +0.000 C 
ATOM     17  N   UNL     1      23.773   0.449  53.605  0.00  0.00    +0.000 N 
ATOM     18  C   UNL     1      24.661  -0.724  53.597  0.00  0.00    +0.000 C 
BRANCH  14  19
ATOM     19  C   UNL     1      26.951  -1.134  52.561  0.00  0.00    +0.000 C 
BRANCH  19  20
ATOM     20  N   UNL     1      28.098  -1.577  53.359  0.00  0.00    +0.000 N 
ATOM     21  H   UNL     1      27.773  -2.222  54.079  0.00  0.00    +0.000 HD
ATOM     22  H   UNL     1      28.764  -2.036  52.737  0.00  0.00    +0.000 HD
BRANCH  20  24
ATOM     23  C   UNL     1      30.239  -0.407  53.605  0.00  0.00    +0.000 C 
ATOM     24  C   UNL     1      28.769  -0.443  53.999  0.00  0.00    +0.000 C 
ENDBRANCH  20  24
ENDBRANCH  19  20
ENDBRANCH  14  19
ENDBRANCH   1  17
BRANCH   8  25
ATOM     25  C   UNL     1      16.484   0.077  50.307  0.00  0.00    +0.000 C 
ATOM     26  O   UNL     1      15.481   0.592  50.780  0.00  0.00    +0.000 OA
ATOM     27  O   UNL     1      16.408  -0.653  49.188  0.00  0.00    +0.000 OA
ENDBRANCH   8  25
BRANCH  10  28
ATOM     28  C   UNL     1      20.933   2.017  49.557  0.00  0.00    +0.000 C 
ATOM     29  C   UNL     1      21.462   1.155  48.407  0.00  0.00    +0.000 C 
ATOM     30  C   UNL     1      20.272   3.315  49.077  0.00  0.00    +0.000 C 
ENDBRANCH  10  28
TORSDOF 6
ENDMDL
MODEL 5
REMARK VINA RESULT:    -7.536      4.291      5.462
REMARK INTER + INTRA:         -10.925
REMARK INTER:                  -9.550
REMARK INTRA:                  -1.375
REMARK UNBOUND:                -0.745
REMARK  Name = 
REMARK  9 active torsions:
REMARK  status: ('A' for Active; 'I' for Inactive)
REMARK    1  A    between atoms: C_1  and  C_2
REMARK    2  A    between atoms: C_2  and  N_3
REMARK    3  A    between atoms: N_3  and  C_4
REMARK    4  A    between atoms: C_4  and  C_5
REMARK    5  A    between atoms: N_8  and  C_9
REMARK    6  A    between atoms: C_16  and  C_17
REMARK    7  A    between atoms: N_21  and  C_22
REMARK    8  A    between atoms: C_22  and  C_23
REMARK    9  A    between atoms: C_22  and  C_24
REMARK                            x       y       z     vdW  Elec       q    Type
REMARK                         _______ _______ _______ _____ _____    ______ ____
ROOT
ATOM      1  C   UNL     1      23.950   2.023  52.137  0.00  0.00    +0.000 A 
ATOM      2  C   UNL     1      24.242   3.182  52.869  0.00  0.00    +0.000 A 
ATOM      3  F   UNL     1      25.051   3.134  53.935  0.00  0.00    +0.000 F 
ATOM      4  C   UNL     1      23.750   4.425  52.492  0.00  0.00    +0.000 A 
ATOM      5  C   UNL     1      22.937   4.546  51.353  0.00  0.00    +0.000 A 
ATOM      6  C   UNL     1      22.446   5.904  51.001  0.00  0.00    +0.000 A 
ATOM      7  O   UNL     1      22.815   6.868  51.658  0.00  0.00    +0.000 OA
ATOM      8  C   UNL     1      21.540   6.019  49.843  0.00  0.00    +0.000 A 
ATOM      9  C   UNL     1      21.271   4.891  49.170  0.00  0.00    +0.000 A 
ATOM     10  N   UNL     1      21.773   3.614  49.414  0.00  0.00    +0.000 N 
ATOM     11  C   UNL     1      22.599   3.430  50.561  0.00  0.00    +0.000 A 
ATOM     12  C   UNL     1      23.132   2.195  50.994  0.00  0.00    +0.000 A 
ATOM     13  F   UNL     1      22.831   1.061  50.335  0.00  0.00    +0.000 F 
ENDROOT
BRANCH   1  17
ATOM     14  C   UNL     1      26.198  -0.687  53.087  0.00  0.00    +0.000 C 
ATOM     15  C   UNL     1      25.265  -0.454  54.278  0.00  0.00    +0.000 C 
ATOM     16  C   UNL     1      23.965  -0.013  53.616  0.00  0.00    +0.000 C 
ATOM     17  N   UNL     1      24.402   0.748  52.452  0.00  0.00    +0.000 N 
ATOM     18  C   UNL     1      25.797   0.432  52.110  0.00  0.00    +0.000 C 
BRANCH  14  19
ATOM     19  C   UNL     1      27.689  -0.636  53.439  0.00  0.00    +0.000 C 
BRANCH  19  20
ATOM     20  N   UNL     1      27.944   0.225  54.597  0.00  0.00    +0.000 N 
ATOM     21  H   UNL     1      27.106   0.773  54.795  0.00  0.00    +0.000 HD
ATOM     22  H   UNL     1      28.183  -0.367  55.393  0.00  0.00    +0.000 HD
BRANCH  20  24
ATOM     23  C   UNL     1      28.578   2.383  53.620  0.00  0.00    +0.000 C 
ATOM     24  C   UNL     1      29.063   1.136  54.347  0.00  0.00    +0.000 C 
ENDBRANCH  20  24
ENDBRANCH  19  20
ENDBRANCH  14  19
ENDBRANCH   1  17
BRANCH   8  25
ATOM     25  C   UNL     1      20.929   7.266  49.354  0.00  0.00    +0.000 C 
ATOM     26  O   UNL     1      20.070   7.911  49.938  0.00  0.00    +0.000 OA
ATOM     27  O   UNL     1      21.422   7.696  48.186  0.00  0.00    +0.000 OA
ENDBRANCH   8  25
BRANCH  10  28
ATOM     28  C   UNL     1      21.390   2.438  48.581  0.00  0.00    +0.000 C 
ATOM     29  C   UNL     1      19.896   2.473  48.243  0.00  0.00    +0.000 C 
ATOM     30  C   UNL     1      22.280   2.272  47.344  0.00  0.00    +0.000 C 
ENDBRANCH  10  28
TORSDOF 6
ENDMDL
MODEL 6
REMARK VINA RESULT:    -7.460      3.824      5.182
REMARK INTER + INTRA:         -10.821
REMARK INTER:                 -10.180
REMARK INTRA:                  -0.642
REMARK UNBOUND:                -0.745
REMARK  Name = 
REMARK  9 active torsions:
REMARK  status: ('A' for Active; 'I' for Inactive)
REMARK    1  A    between atoms: C_1  and  C_2
REMARK    2  A    between atoms: C_2  and  N_3
REMARK    3  A    between atoms: N_3  and  C_4
REMARK    4  A    between atoms: C_4  and  C_5
REMARK    5  A    between atoms: N_8  and  C_9
REMARK    6  A    between atoms: C_16  and  C_17
REMARK    7  A    between atoms: N_21  and  C_22
REMARK    8  A    between atoms: C_22  and  C_23
REMARK    9  A    between atoms: C_22  and  C_24
REMARK                            x       y       z     vdW  Elec       q    Type
REMARK                         _______ _______ _______ _____ _____    ______ ____
ROOT
ATOM      1  C   UNL     1      25.238   3.130  50.711  0.00  0.00    +0.000 A 
ATOM      2  C   UNL     1      26.229   2.540  51.507  0.00  0.00    +0.000 A 
ATOM      3  F   UNL     1      27.507   2.926  51.408  0.00  0.00    +0.000 F 
ATOM      4  C   UNL     1      25.921   1.577  52.460  0.00  0.00    +0.000 A 
ATOM      5  C   UNL     1      24.590   1.168  52.645  0.00  0.00    +0.000 A 
ATOM      6  C   UNL     1      24.327   0.137  53.682  0.00  0.00    +0.000 A 
ATOM      7  O   UNL     1      25.248  -0.266  54.380  0.00  0.00    +0.000 OA
ATOM      8  C   UNL     1      22.938  -0.338  53.830  0.00  0.00    +0.000 A 
ATOM      9  C   UNL     1      22.015   0.237  53.047  0.00  0.00    +0.000 A 
ATOM     10  N   UNL     1      22.203   1.262  52.122  0.00  0.00    +0.000 N 
ATOM     11  C   UNL     1      23.534   1.714  51.888  0.00  0.00    +0.000 A 
ATOM     12  C   UNL     1      23.911   2.691  50.938  0.00  0.00    +0.000 A 
ATOM     13  F   UNL     1      22.985   3.240  50.131  0.00  0.00    +0.000 F 
ENDROOT
BRANCH   1  17
ATOM     14  C   UNL     1      25.937   6.366  49.183  0.00  0.00    +0.000 C 
ATOM     15  C   UNL     1      27.185   5.506  48.976  0.00  0.00    +0.000 C 
ATOM     16  C   UNL     1      26.617   4.099  48.842  0.00  0.00    +0.000 C 
ATOM     17  N   UNL     1      25.468   4.095  49.739  0.00  0.00    +0.000 N 
ATOM     18  C   UNL     1      25.036   5.467  50.047  0.00  0.00    +0.000 C 
BRANCH  14  19
ATOM     19  C   UNL     1      26.210   7.719  49.849  0.00  0.00    +0.000 C 
BRANCH  19  20
ATOM     20  N   UNL     1      27.639   8.044  49.851  0.00  0.00    +0.000 N 
ATOM     21  H   UNL     1      28.023   7.849  50.775  0.00  0.00    +0.000 HD
ATOM     22  H   UNL     1      28.100   7.473  49.141  0.00  0.00    +0.000 HD
BRANCH  20  24
ATOM     23  C   UNL     1      29.349   9.721  49.326  0.00  0.00    +0.000 C 
ATOM     24  C   UNL     1      27.864   9.455  49.527  0.00  0.00    +0.000 C 
ENDBRANCH  20  24
ENDBRANCH  19  20
ENDBRANCH  14  19
ENDBRANCH   1  17
BRANCH   8  25
ATOM     25  C   UNL     1      22.482  -1.368  54.777  0.00  0.00    +0.000 C 
ATOM     26  O   UNL     1      23.122  -1.788  55.731  0.00  0.00    +0.000 OA
ATOM     27  O   UNL     1      21.243  -1.818  54.542  0.00  0.00    +0.000 OA
ENDBRANCH   8  25
BRANCH  10  28
ATOM     28  C   UNL     1      21.080   1.816  51.310  0.00  0.00    +0.000 C 
ATOM     29  C   UNL     1      20.583   0.784  50.293  0.00  0.00    +0.000 C 
ATOM     30  C   UNL     1      19.954   2.396  52.175  0.00  0.00    +0.000 C 
ENDBRANCH  10  28
TORSDOF 6
ENDMDL
MODEL 7
REMARK VINA RESULT:    -7.437      1.876      2.856
REMARK INTER + INTRA:         -10.791
REMARK INTER:                 -10.057
REMARK INTRA:                  -0.733
REMARK UNBOUND:                -0.745
REMARK  Name = 
REMARK  9 active torsions:
REMARK  status: ('A' for Active; 'I' for Inactive)
REMARK    1  A    between atoms: C_1  and  C_2
REMARK    2  A    between atoms: C_2  and  N_3
REMARK    3  A    between atoms: N_3  and  C_4
REMARK    4  A    between atoms: C_4  and  C_5
REMARK    5  A    between atoms: N_8  and  C_9
REMARK    6  A    between atoms: C_16  and  C_17
REMARK    7  A    between atoms: N_21  and  C_22
REMARK    8  A    between atoms: C_22  and  C_23
REMARK    9  A    between atoms: C_22  and  C_24
REMARK                            x       y       z     vdW  Elec       q    Type
REMARK                         _______ _______ _______ _____ _____    ______ ____
ROOT
ATOM      1  C   UNL     1      23.391  -0.745  53.871  0.00  0.00    +0.000 A 
ATOM      2  C   UNL     1      22.389  -1.474  54.525  0.00  0.00    +0.000 A 
ATOM      3  F   UNL     1      22.689  -2.291  55.543  0.00  0.00    +0.000 F 
ATOM      4  C   UNL     1      21.050  -1.341  54.183  0.00  0.00    +0.000 A 
ATOM      5  C   UNL     1      20.668  -0.461  53.157  0.00  0.00    +0.000 A 
ATOM      6  C   UNL     1      19.219  -0.362  52.841  0.00  0.00    +0.000 A 
ATOM      7  O   UNL     1      18.410  -0.982  53.518  0.00  0.00    +0.000 OA
ATOM      8  C   UNL     1      18.827   0.513  51.720  0.00  0.00    +0.000 A 
ATOM      9  C   UNL     1      19.809   1.189  51.107  0.00  0.00    +0.000 A 
ATOM     10  N   UNL     1      21.167   1.189  51.421  0.00  0.00    +0.000 N 
ATOM     11  C   UNL     1      21.613   0.310  52.451  0.00  0.00    +0.000 A 
ATOM     12  C   UNL     1      22.958   0.133  52.848  0.00  0.00    +0.000 A 
ATOM     13  F   UNL     1      23.943   0.787  52.206  0.00  0.00    +0.000 F 
ENDROOT
BRANCH   1  17
ATOM     14  C   UNL     1      26.992  -0.227  53.610  0.00  0.00    +0.000 C 
ATOM     15  C   UNL     1      26.526   0.547  54.846  0.00  0.00    +0.000 C 
ATOM     16  C   UNL     1      25.366  -0.295  55.363  0.00  0.00    +0.000 C 
ATOM     17  N   UNL     1      24.748  -0.826  54.155  0.00  0.00    +0.000 N 
ATOM     18  C   UNL     1      25.674  -0.752  53.014  0.00  0.00    +0.000 C 
BRANCH  14  19
ATOM     19  C   UNL     1      27.784   0.614  52.604  0.00  0.00    +0.000 C 
BRANCH  19  20
ATOM     20  N   UNL     1      26.951   1.033  51.472  0.00  0.00    +0.000 N 
ATOM     21  H   UNL     1      27.395   0.733  50.604  0.00  0.00    +0.000 HD
ATOM     22  H   UNL     1      26.032   0.603  51.573  0.00  0.00    +0.000 HD
BRANCH  20  24
ATOM     23  C   UNL     1      26.349   2.945  50.060  0.00  0.00    +0.000 C 
ATOM     24  C   UNL     1      26.781   2.487  51.446  0.00  0.00    +0.000 C 
ENDBRANCH  20  24
ENDBRANCH  19  20
ENDBRANCH  14  19
ENDBRANCH   1  17
BRANCH   8  25
ATOM     25  C   UNL     1      17.452   0.723  51.237  0.00  0.00    +0.000 C 
ATOM     26  O   UNL     1      16.717   1.642  51.569  0.00  0.00    +0.000 OA
ATOM     27  O   UNL     1      17.044  -0.181  50.338  0.00  0.00    +0.000 OA
ENDBRANCH   8  25
BRANCH  10  28
ATOM     28  C   UNL     1      22.160   1.993  50.652  0.00  0.00    +0.000 C 
ATOM     29  C   UNL     1      22.093   1.658  49.159  0.00  0.00    +0.000 C 
ATOM     30  C   UNL     1      22.052   3.497  50.934  0.00  0.00    +0.000 C 
ENDBRANCH  10  28
TORSDOF 6
ENDMDL
MODEL 8
REMARK VINA RESULT:    -7.373      3.254      7.717
REMARK INTER + INTRA:         -10.705
REMARK INTER:                  -9.971
REMARK INTRA:                  -0.733
REMARK UNBOUND:                -0.745
REMARK  Name = 
REMARK  9 active torsions:
REMARK  status: ('A' for Active; 'I' for Inactive)
REMARK    1  A    between atoms: C_1  and  C_2
REMARK    2  A    between atoms: C_2  and  N_3
REMARK    3  A    between atoms: N_3  and  C_4
REMARK    4  A    between atoms: C_4  and  C_5
REMARK    5  A    between atoms: N_8  and  C_9
REMARK    6  A    between atoms: C_16  and  C_17
REMARK    7  A    between atoms: N_21  and  C_22
REMARK    8  A    between atoms: C_22  and  C_23
REMARK    9  A    between atoms: C_22  and  C_24
REMARK                            x       y       z     vdW  Elec       q    Type
REMARK                         _______ _______ _______ _____ _____    ______ ____
ROOT
ATOM      1  C   UNL     1      22.055   1.098  52.089  0.00  0.00    +0.000 A 
ATOM      2  C   UNL     1      22.341   0.306  53.209  0.00  0.00    +0.000 A 
ATOM      3  F   UNL     1      21.383  -0.421  53.798  0.00  0.00    +0.000 F 
ATOM      4  C   UNL     1      23.629   0.203  53.718  0.00  0.00    +0.000 A 
ATOM      5  C   UNL     1      24.686   0.902  53.113  0.00  0.00    +0.000 A 
ATOM      6  C   UNL     1      26.040   0.747  53.703  0.00  0.00    +0.000 A 
ATOM      7  O   UNL     1      26.206  -0.026  54.637  0.00  0.00    +0.000 OA
ATOM      8  C   UNL     1      27.136   1.534  53.106  0.00  0.00    +0.000 A 
ATOM      9  C   UNL     1      26.828   2.290  52.043  0.00  0.00    +0.000 A 
ATOM     10  N   UNL     1      25.593   2.402  51.407  0.00  0.00    +0.000 N 
ATOM     11  C   UNL     1      24.483   1.718  51.981  0.00  0.00    +0.000 A 
ATOM     12  C   UNL     1      23.152   1.780  51.509  0.00  0.00    +0.000 A 
ATOM     13  F   UNL     1      22.843   2.567  50.463  0.00  0.00    +0.000 F 
ENDROOT
BRANCH   1  17
ATOM     14  C   UNL     1      18.567   0.448  51.243  0.00  0.00    +0.000 C 
ATOM     15  C   UNL     1      18.574   1.666  52.169  0.00  0.00    +0.000 C 
ATOM     16  C   UNL     1      19.889   2.353  51.828  0.00  0.00    +0.000 C 
ATOM     17  N   UNL     1      20.795   1.253  51.525  0.00  0.00    +0.000 N 
ATOM     18  C   UNL     1      20.046   0.024  51.220  0.00  0.00    +0.000 C 
BRANCH  14  19
ATOM     19  C   UNL     1      17.649  -0.688  51.705  0.00  0.00    +0.000 C 
BRANCH  19  20
ATOM     20  N   UNL     1      17.601  -0.786  53.167  0.00  0.00    +0.000 N 
ATOM     21  H   UNL     1      18.022   0.051  53.570  0.00  0.00    +0.000 HD
ATOM     22  H   UNL     1      16.625  -0.870  53.452  0.00  0.00    +0.000 HD
BRANCH  20  24
ATOM     23  C   UNL     1      17.441  -3.201  53.562  0.00  0.00    +0.000 C 
ATOM     24  C   UNL     1      18.326  -1.965  53.646  0.00  0.00    +0.000 C 
ENDBRANCH  20  24
ENDBRANCH  19  20
ENDBRANCH  14  19
ENDBRANCH   1  17
BRANCH   8  25
ATOM     25  C   UNL     1      28.535   1.538  53.563  0.00  0.00    +0.000 C 
ATOM     26  O   UNL     1      29.111   2.488  54.074  0.00  0.00    +0.000 OA
ATOM     27  O   UNL     1      29.164   0.366  53.411  0.00  0.00    +0.000 OA
ENDBRANCH   8  25
BRANCH  10  28
ATOM     28  C   UNL     1      25.387   3.286  50.223  0.00  0.00    +0.000 C 
ATOM     29  C   UNL     1      24.951   4.688  50.660  0.00  0.00    +0.000 C 
ATOM     30  C   UNL     1      26.594   3.302  49.277  0.00  0.00    +0.000 C 
ENDBRANCH  10  28
TORSDOF 6
ENDMDL
MODEL 9
REMARK VINA RESULT:    -7.325      3.813      7.510
REMARK INTER + INTRA:         -10.640
REMARK INTER:                  -9.486
REMARK INTRA:                  -1.154
REMARK UNBOUND:                -0.745
REMARK  Name = 
REMARK  9 active torsions:
REMARK  status: ('A' for Active; 'I' for Inactive)
REMARK    1  A    between atoms: C_1  and  C_2
REMARK    2  A    between atoms: C_2  and  N_3
REMARK    3  A    between atoms: N_3  and  C_4
REMARK    4  A    between atoms: C_4  and  C_5
REMARK    5  A    between atoms: N_8  and  C_9
REMARK    6  A    between atoms: C_16  and  C_17
REMARK    7  A    between atoms: N_21  and  C_22
REMARK    8  A    between atoms: C_22  and  C_23
REMARK    9  A    between atoms: C_22  and  C_24
REMARK                            x       y       z     vdW  Elec       q    Type
REMARK                         _______ _______ _______ _____ _____    ______ ____
ROOT
ATOM      1  C   UNL     1      22.492   2.685  51.191  0.00  0.00    +0.000 A 
ATOM      2  C   UNL     1      23.675   3.271  50.719  0.00  0.00    +0.000 A 
ATOM      3  F   UNL     1      23.635   4.323  49.891  0.00  0.00    +0.000 F 
ATOM      4  C   UNL     1      24.924   2.822  51.128  0.00  0.00    +0.000 A 
ATOM      5  C   UNL     1      25.028   1.756  52.036  0.00  0.00    +0.000 A 
ATOM      6  C   UNL     1      26.393   1.325  52.436  0.00  0.00    +0.000 A 
ATOM      7  O   UNL     1      27.365   1.947  52.028  0.00  0.00    +0.000 OA
ATOM      8  C   UNL     1      26.501   0.163  53.338  0.00  0.00    +0.000 A 
ATOM      9  C   UNL     1      25.352  -0.382  53.764  0.00  0.00    +0.000 A 
ATOM     10  N   UNL     1      24.054   0.038  53.480  0.00  0.00    +0.000 N 
ATOM     11  C   UNL     1      23.888   1.114  52.560  0.00  0.00    +0.000 A 
ATOM     12  C   UNL     1      22.646   1.618  52.108  0.00  0.00    +0.000 A 
ATOM     13  F   UNL     1      21.498   1.045  52.512  0.00  0.00    +0.000 F 
ENDROOT
BRANCH   1  17
ATOM     14  C   UNL     1      18.961   2.481  50.301  0.00  0.00    +0.000 C 
ATOM     15  C   UNL     1      19.026   3.111  51.694  0.00  0.00    +0.000 C 
ATOM     16  C   UNL     1      20.334   3.892  51.659  0.00  0.00    +0.000 C 
ATOM     17  N   UNL     1      21.210   3.077  50.827  0.00  0.00    +0.000 N 
ATOM     18  C   UNL     1      20.431   2.133  50.011  0.00  0.00    +0.000 C 
BRANCH  14  19
ATOM     19  C   UNL     1      18.050   1.252  50.210  0.00  0.00    +0.000 C 
BRANCH  19  20
ATOM     20  N   UNL     1      18.673   0.069  50.811  0.00  0.00    +0.000 N 
ATOM     21  H   UNL     1      18.772  -0.653  50.098  0.00  0.00    +0.000 HD
ATOM     22  H   UNL     1      19.585   0.338  51.180  0.00  0.00    +0.000 HD
BRANCH  20  24
ATOM     23  C   UNL     1      18.757  -0.866  53.076  0.00  0.00    +0.000 C 
ATOM     24  C   UNL     1      17.864  -0.455  51.914  0.00  0.00    +0.000 C 
ENDBRANCH  20  24
ENDBRANCH  19  20
ENDBRANCH  14  19
ENDBRANCH   1  17
BRANCH   8  25
ATOM     25  C   UNL     1      27.757  -0.429  53.825  0.00  0.00    +0.000 C 
ATOM     26  O   UNL     1      28.413  -1.281  53.242  0.00  0.00    +0.000 OA
ATOM     27  O   UNL     1      28.184   0.073  54.990  0.00  0.00    +0.000 OA
ENDBRANCH   8  25
BRANCH  10  28
ATOM     28  C   UNL     1      22.856  -0.664  54.024  0.00  0.00    +0.000 C 
ATOM     29  C   UNL     1      22.402  -1.779  53.077  0.00  0.00    +0.000 C 
ATOM     30  C   UNL     1      23.054  -1.146  55.466  0.00  0.00    +0.000 C 
ENDBRANCH  10  28
TORSDOF 6
ENDMDL
