MODEL 1
REMARK VINA RESULT:    -8.550      0.000      0.000
REMARK INTER + INTRA:         -10.780
REMARK INTER:                 -10.299
REMARK INTRA:                  -0.481
REMARK UNBOUND:                -0.481
REMARK  Name = 
REMARK  4 active torsions:
REMARK  status: ('A' for Active; 'I' for Inactive)
REMARK    1  A    between atoms: O_1  and  C_2
REMARK    2  A    between atoms: C_10  and  N_11
REMARK    3  A    between atoms: N_19  and  C_20
REMARK    4  A    between atoms: C_20  and  C_21
REMARK                            x       y       z     vdW  Elec       q    Type
REMARK                         _______ _______ _______ _____ _____    ______ ____
ROOT
ATOM      1  C   UNL     1      21.459   0.889  52.892  0.00  0.00    +0.000 A 
ATOM      2  C   UNL     1      21.588  -0.464  53.244  0.00  0.00    +0.000 A 
ATOM      3  C   UNL     1      22.862  -1.045  53.433  0.00  0.00    +0.000 A 
ATOM      4  C   UNL     1      24.005  -0.275  53.232  0.00  0.00    +0.000 A 
ATOM      5  C   UNL     1      23.797   1.082  53.018  0.00  0.00    +0.000 A 
ATOM      6  C   UNL     1      22.568   1.697  52.894  0.00  0.00    +0.000 A 
ATOM      7  O   UNL     1      22.679   3.011  52.442  0.00  0.00    +0.000 OA
ATOM      8  C   UNL     1      23.898   2.906  51.681  0.00  0.00    +0.000 C 
ATOM      9  C   UNL     1      24.743   4.115  51.282  0.00  0.00    +0.000 C 
ATOM     10  C   UNL     1      25.928   3.607  50.386  0.00  0.00    +0.000 C 
ATOM     11  C   UNL     1      26.242   2.073  50.366  0.00  0.00    +0.000 C 
ATOM     12  C   UNL     1      25.625   1.185  51.459  0.00  0.00    +0.000 C 
ATOM     13  C   UNL     1      26.456   0.182  52.309  0.00  0.00    +0.000 C 
ATOM     14  C   UNL     1      25.377  -0.855  52.900  0.00  0.00    +0.000 C 
ATOM     15  N   UNL     1      27.391   0.869  53.238  0.00  0.00    +0.000 N 
ATOM     16  C   UNL     1      27.110   2.295  53.452  0.00  0.00    +0.000 C 
ATOM     17  C   UNL     1      25.625   2.564  53.658  0.00  0.00    +0.000 C 
ATOM     18  C   UNL     1      24.826   1.987  52.471  0.00  0.00    +0.000 C 
ATOM     19  H   UNL     1      28.256   0.816  52.700  0.00  0.00    +0.000 HD
ENDROOT
BRANCH   9  20
ATOM     20  N   UNL     1      23.943   5.116  50.541  0.00  0.00    +0.000 NA
ATOM     21  C   UNL     1      24.506   6.150  50.394  0.00  0.00    +0.000 C 
ATOM     22  S   UNL     1      25.286   7.517  50.202  0.00  0.00    +0.000 S 
ENDBRANCH   9  20
BRANCH   1  23
ATOM     23  O   UNL     1      20.315   1.287  52.266  0.00  0.00    +0.000 OA
ATOM     24  H   UNL     1      20.319   2.056  51.729  0.00  0.00    +0.000 HD
ENDBRANCH   1  23
BRANCH  15  25
ATOM     25  C   UNL     1      27.710   0.179  54.488  0.00  0.00    +0.000 C 
BRANCH  25  26
ATOM     26  C   UNL     1      29.101  -0.391  54.515  0.00  0.00    +0.000 C 
ATOM     27  C   UNL     1      29.627  -1.513  53.644  0.00  0.00    +0.000 C 
ATOM     28  C   UNL     1      30.019  -0.095  53.349  0.00  0.00    +0.000 C 
ENDBRANCH  25  26
ENDBRANCH  15  25
TORSDOF 4
ENDMDL
MODEL 2
REMARK VINA RESULT:    -8.227      2.819      5.528
REMARK INTER + INTRA:         -10.391
REMARK INTER:                  -9.775
REMARK INTRA:                  -0.617
REMARK UNBOUND:                -0.481
REMARK  Name = 
REMARK  4 active torsions:
REMARK  status: ('A' for Active; 'I' for Inactive)
REMARK    1  A    between atoms: O_1  and  C_2
REMARK    2  A    between atoms: C_10  and  N_11
REMARK    3  A    between atoms: N_19  and  C_20
REMARK    4  A    between atoms: C_20  and  C_21
REMARK                            x       y       z     vdW  Elec       q    Type
REMARK                         _______ _______ _______ _____ _____    ______ ____
ROOT
ATOM      1  C   UNL     1      21.477  -0.964  53.859  0.00  0.00    +0.000 A 
ATOM      2  C   UNL     1      20.235  -0.358  53.611  0.00  0.00    +0.000 A 
ATOM      3  C   UNL     1      20.153   0.864  52.905  0.00  0.00    +0.000 A 
ATOM      4  C   UNL     1      21.322   1.493  52.484  0.00  0.00    +0.000 A 
ATOM      5  C   UNL     1      22.497   0.770  52.647  0.00  0.00    +0.000 A 
ATOM      6  C   UNL     1      22.607  -0.456  53.271  0.00  0.00    +0.000 A 
ATOM      7  O   UNL     1      23.935  -0.814  53.498  0.00  0.00    +0.000 OA
ATOM      8  C   UNL     1      24.526   0.496  53.614  0.00  0.00    +0.000 C 
ATOM      9  C   UNL     1      26.024   0.754  53.465  0.00  0.00    +0.000 C 
ATOM     10  C   UNL     1      26.287   2.275  53.751  0.00  0.00    +0.000 C 
ATOM     11  C   UNL     1      25.063   3.253  53.761  0.00  0.00    +0.000 C 
ATOM     12  C   UNL     1      23.733   2.767  53.164  0.00  0.00    +0.000 C 
ATOM     13  C   UNL     1      22.921   3.585  52.120  0.00  0.00    +0.000 C 
ATOM     14  C   UNL     1      21.428   2.987  52.192  0.00  0.00    +0.000 C 
ATOM     15  N   UNL     1      23.610   3.665  50.805  0.00  0.00    +0.000 N 
ATOM     16  C   UNL     1      24.695   2.693  50.619  0.00  0.00    +0.000 C 
ATOM     17  C   UNL     1      24.308   1.301  51.101  0.00  0.00    +0.000 C 
ATOM     18  C   UNL     1      23.841   1.374  52.570  0.00  0.00    +0.000 C 
ATOM     19  H   UNL     1      24.047   4.584  50.883  0.00  0.00    +0.000 HD
ENDROOT
BRANCH   9  20
ATOM     20  N   UNL     1      26.815  -0.079  54.399  0.00  0.00    +0.000 NA
ATOM     21  C   UNL     1      27.970  -0.119  54.128  0.00  0.00    +0.000 C 
ATOM     22  S   UNL     1      29.509  -0.146  53.750  0.00  0.00    +0.000 S 
ENDBRANCH   9  20
BRANCH   1  23
ATOM     23  O   UNL     1      21.574  -1.832  54.906  0.00  0.00    +0.000 OA
ATOM     24  H   UNL     1      22.415  -2.042  55.264  0.00  0.00    +0.000 HD
ENDBRANCH   1  23
BRANCH  15  25
ATOM     25  C   UNL     1      22.763   3.778  49.618  0.00  0.00    +0.000 C 
BRANCH  25  26
ATOM     26  C   UNL     1      22.867   2.593  48.698  0.00  0.00    +0.000 C 
ATOM     27  C   UNL     1      21.778   1.579  48.415  0.00  0.00    +0.000 C 
ATOM     28  C   UNL     1      22.100   2.630  47.394  0.00  0.00    +0.000 C 
ENDBRANCH  25  26
ENDBRANCH  15  25
TORSDOF 4
ENDMDL
MODEL 3
REMARK VINA RESULT:    -8.121      3.553      5.902
REMARK INTER + INTRA:         -10.264
REMARK INTER:                  -9.728
REMARK INTRA:                  -0.536
REMARK UNBOUND:                -0.481
REMARK  Name = 
REMARK  4 active torsions:
REMARK  status: ('A' for Active; 'I' for Inactive)
REMARK    1  A    between atoms: O_1  and  C_2
REMARK    2  A    between atoms: C_10  and  N_11
REMARK    3  A    between atoms: N_19  and  C_20
REMARK    4  A    between atoms: C_20  and  C_21
REMARK                            x       y       z     vdW  Elec       q    Type
REMARK                         _______ _______ _______ _____ _____    ______ ____
ROOT
ATOM      1  C   UNL     1      22.528  -1.034  54.733  0.00  0.00    +0.000 A 
ATOM      2  C   UNL     1      23.928  -0.931  54.737  0.00  0.00    +0.000 A 
ATOM      3  C   UNL     1      24.588   0.007  53.911  0.00  0.00    +0.000 A 
ATOM      4  C   UNL     1      23.842   0.813  53.055  0.00  0.00    +0.000 A 
ATOM      5  C   UNL     1      22.462   0.749  53.204  0.00  0.00    +0.000 A 
ATOM      6  C   UNL     1      21.784  -0.106  54.048  0.00  0.00    +0.000 A 
ATOM      7  O   UNL     1      20.412  -0.112  53.801  0.00  0.00    +0.000 OA
ATOM      8  C   UNL     1      20.414   0.218  52.398  0.00  0.00    +0.000 C 
ATOM      9  C   UNL     1      19.186   0.752  51.662  0.00  0.00    +0.000 C 
ATOM     10  C   UNL     1      19.555   0.898  50.143  0.00  0.00    +0.000 C 
ATOM     11  C   UNL     1      21.067   0.848  49.735  0.00  0.00    +0.000 C 
ATOM     12  C   UNL     1      22.127   1.005  50.837  0.00  0.00    +0.000 C 
ATOM     13  C   UNL     1      23.313   2.006  50.739  0.00  0.00    +0.000 C 
ATOM     14  C   UNL     1      24.402   1.465  51.794  0.00  0.00    +0.000 C 
ATOM     15  N   UNL     1      22.865   3.421  50.815  0.00  0.00    +0.000 N 
ATOM     16  C   UNL     1      21.500   3.608  51.323  0.00  0.00    +0.000 C 
ATOM     17  C   UNL     1      21.215   2.737  52.540  0.00  0.00    +0.000 C 
ATOM     18  C   UNL     1      21.510   1.262  52.200  0.00  0.00    +0.000 C 
ATOM     19  H   UNL     1      22.847   3.661  49.823  0.00  0.00    +0.000 HD
ENDROOT
BRANCH   9  20
ATOM     20  N   UNL     1      18.025  -0.154  51.814  0.00  0.00    +0.000 NA
ATOM     21  C   UNL     1      16.982   0.412  51.780  0.00  0.00    +0.000 C 
ATOM     22  S   UNL     1      15.603   1.192  51.721  0.00  0.00    +0.000 S 
ENDBRANCH   9  20
BRANCH   1  23
ATOM     23  O   UNL     1      21.965  -2.207  55.139  0.00  0.00    +0.000 OA
ATOM     24  H   UNL     1      22.293  -3.021  54.812  0.00  0.00    +0.000 HD
ENDBRANCH   1  23
BRANCH  15  25
ATOM     25  C   UNL     1      23.803   4.383  51.393  0.00  0.00    +0.000 C 
BRANCH  25  26
ATOM     26  C   UNL     1      24.435   5.286  50.370  0.00  0.00    +0.000 C 
ATOM     27  C   UNL     1      25.628   4.956  49.497  0.00  0.00    +0.000 C 
ATOM     28  C   UNL     1      24.249   4.951  48.906  0.00  0.00    +0.000 C 
ENDBRANCH  25  26
ENDBRANCH  15  25
TORSDOF 4
ENDMDL
MODEL 4
REMARK VINA RESULT:    -8.017      2.773      6.034
REMARK INTER + INTRA:         -10.138
REMARK INTER:                  -9.662
REMARK INTRA:                  -0.476
REMARK UNBOUND:                -0.481
REMARK  Name = 
REMARK  4 active torsions:
REMARK  status: ('A' for Active; 'I' for Inactive)
REMARK    1  A    between atoms: O_1  and  C_2
REMARK    2  A    between atoms: C_10  and  N_11
REMARK    3  A    between atoms: N_19  and  C_20
REMARK    4  A    between atoms: C_20  and  C_21
REMARK                            x       y       z     vdW  Elec       q    Type
REMARK                         _______ _______ _______ _____ _____    ______ ____
ROOT
ATOM      1  C   UNL     1      24.697  -0.762  54.513  0.00  0.00    +0.000 A 
ATOM      2  C   UNL     1      23.727  -1.307  55.370  0.00  0.00    +0.000 A 
ATOM      3  C   UNL     1      22.349  -1.096  55.131  0.00  0.00    +0.000 A 
ATOM      4  C   UNL     1      21.952  -0.307  54.055  0.00  0.00    +0.000 A 
ATOM      5  C   UNL     1      22.957   0.084  53.180  0.00  0.00    +0.000 A 
ATOM      6  C   UNL     1      24.306  -0.161  53.344  0.00  0.00    +0.000 A 
ATOM      7  O   UNL     1      25.086   0.559  52.441  0.00  0.00    +0.000 OA
ATOM      8  C   UNL     1      24.229   1.699  52.231  0.00  0.00    +0.000 C 
ATOM      9  C   UNL     1      24.364   2.638  51.034  0.00  0.00    +0.000 C 
ATOM     10  C   UNL     1      23.324   3.802  51.209  0.00  0.00    +0.000 C 
ATOM     11  C   UNL     1      22.179   3.626  52.263  0.00  0.00    +0.000 C 
ATOM     12  C   UNL     1      21.912   2.220  52.826  0.00  0.00    +0.000 C 
ATOM     13  C   UNL     1      20.497   1.578  52.872  0.00  0.00    +0.000 C 
ATOM     14  C   UNL     1      20.606   0.410  53.974  0.00  0.00    +0.000 C 
ATOM     15  N   UNL     1      19.978   1.255  51.517  0.00  0.00    +0.000 N 
ATOM     16  C   UNL     1      20.993   1.249  50.456  0.00  0.00    +0.000 C 
ATOM     17  C   UNL     1      22.269   0.536  50.884  0.00  0.00    +0.000 C 
ATOM     18  C   UNL     1      22.799   1.165  52.188  0.00  0.00    +0.000 C 
ATOM     19  H   UNL     1      19.382   2.066  51.351  0.00  0.00    +0.000 HD
ENDROOT
BRANCH   9  20
ATOM     20  N   UNL     1      25.732   3.195  50.931  0.00  0.00    +0.000 NA
ATOM     21  C   UNL     1      25.812   4.101  50.168  0.00  0.00    +0.000 C 
ATOM     22  S   UNL     1      25.890   5.314  49.151  0.00  0.00    +0.000 S 
ENDBRANCH   9  20
BRANCH   1  23
ATOM     23  O   UNL     1      25.954  -0.568  55.003  0.00  0.00    +0.000 OA
ATOM     24  H   UNL     1      26.582  -0.086  54.502  0.00  0.00    +0.000 HD
ENDBRANCH   1  23
BRANCH  15  25
ATOM     25  C   UNL     1      19.064   0.118  51.411  0.00  0.00    +0.000 C 
BRANCH  25  26
ATOM     26  C   UNL     1      17.637   0.471  51.725  0.00  0.00    +0.000 C 
ATOM     27  C   UNL     1      16.403  -0.145  51.099  0.00  0.00    +0.000 C 
ATOM     28  C   UNL     1      16.803  -0.533  52.492  0.00  0.00    +0.000 C 
ENDBRANCH  25  26
ENDBRANCH  15  25
TORSDOF 4
ENDMDL
MODEL 5
REMARK VINA RESULT:    -7.930      3.325      6.473
REMARK INTER + INTRA:         -10.033
REMARK INTER:                  -9.694
REMARK INTRA:                  -0.339
REMARK UNBOUND:                -0.481
REMARK  Name = 
REMARK  4 active torsions:
REMARK  status: ('A' for Active; 'I' for Inactive)
REMARK    1  A    between atoms: O_1  and  C_2
REMARK    2  A    between atoms: C_10  and  N_11
REMARK    3  A    between atoms: N_19  and  C_20
REMARK    4  A    between atoms: C_20  and  C_21
REMARK                            x       y       z     vdW  Elec       q    Type
REMARK                         _______ _______ _______ _____ _____    ______ ____
ROOT
ATOM      1  C   UNL     1      25.991  -0.153  53.285  0.00  0.00    +0.000 A 
ATOM      2  C   UNL     1      27.044   0.405  52.544  0.00  0.00    +0.000 A 
ATOM      3  C   UNL     1      26.820   1.497  51.674  0.00  0.00    +0.000 A 
ATOM      4  C   UNL     1      25.530   2.000  51.524  0.00  0.00    +0.000 A 
ATOM      5  C   UNL     1      24.570   1.487  52.386  0.00  0.00    +0.000 A 
ATOM      6  C   UNL     1      24.767   0.468  53.295  0.00  0.00    +0.000 A 
ATOM      7  O   UNL     1      23.569   0.007  53.839  0.00  0.00    +0.000 OA
ATOM      8  C   UNL     1      22.676   0.301  52.747  0.00  0.00    +0.000 C 
ATOM      9  C   UNL     1      21.159   0.391  52.909  0.00  0.00    +0.000 C 
ATOM     10  C   UNL     1      20.532   0.630  51.489  0.00  0.00    +0.000 C 
ATOM     11  C   UNL     1      21.478   1.074  50.322  0.00  0.00    +0.000 C 
ATOM     12  C   UNL     1      22.884   1.586  50.674  0.00  0.00    +0.000 C 
ATOM     13  C   UNL     1      23.464   2.921  50.126  0.00  0.00    +0.000 C 
ATOM     14  C   UNL     1      25.058   2.783  50.301  0.00  0.00    +0.000 C 
ATOM     15  N   UNL     1      22.770   4.110  50.685  0.00  0.00    +0.000 N 
ATOM     16  C   UNL     1      21.957   3.845  51.878  0.00  0.00    +0.000 C 
ATOM     17  C   UNL     1      22.677   2.946  52.876  0.00  0.00    +0.000 C 
ATOM     18  C   UNL     1      23.118   1.645  52.174  0.00  0.00    +0.000 C 
ATOM     19  H   UNL     1      22.121   4.317  49.925  0.00  0.00    +0.000 HD
ENDROOT
BRANCH   9  20
ATOM     20  N   UNL     1      20.602  -0.844  53.505  0.00  0.00    +0.000 NA
ATOM     21  C   UNL     1      19.433  -0.961  53.334  0.00  0.00    +0.000 C 
ATOM     22  S   UNL     1      17.874  -1.096  53.083  0.00  0.00    +0.000 S 
ENDBRANCH   9  20
BRANCH   1  23
ATOM     23  O   UNL     1      26.115  -1.441  53.716  0.00  0.00    +0.000 OA
ATOM     24  H   UNL     1      25.388  -1.871  54.121  0.00  0.00    +0.000 HD
ENDBRANCH   1  23
BRANCH  15  25
ATOM     25  C   UNL     1      23.558   5.336  50.818  0.00  0.00    +0.000 C 
BRANCH  25  26
ATOM     26  C   UNL     1      22.966   6.507  50.086  0.00  0.00    +0.000 C 
ATOM     27  C   UNL     1      21.980   7.510  50.649  0.00  0.00    +0.000 C 
ATOM     28  C   UNL     1      23.419   7.898  50.474  0.00  0.00    +0.000 C 
ENDBRANCH  25  26
ENDBRANCH  15  25
TORSDOF 4
ENDMDL
MODEL 6
REMARK VINA RESULT:    -7.885      2.970      5.462
REMARK INTER + INTRA:          -9.979
REMARK INTER:                  -9.387
REMARK INTRA:                  -0.593
REMARK UNBOUND:                -0.481
REMARK  Name = 
REMARK  4 active torsions:
REMARK  status: ('A' for Active; 'I' for Inactive)
REMARK    1  A    between atoms: O_1  and  C_2
REMARK    2  A    between atoms: C_10  and  N_11
REMARK    3  A    between atoms: N_19  and  C_20
REMARK    4  A    between atoms: C_20  and  C_21
REMARK                            x       y       z     vdW  Elec       q    Type
REMARK                         _______ _______ _______ _____ _____    ______ ____
ROOT
ATOM      1  C   UNL     1      25.022   0.526  53.176  0.00  0.00    +0.000 A 
ATOM      2  C   UNL     1      26.273   0.342  52.566  0.00  0.00    +0.000 A 
ATOM      3  C   UNL     1      26.727   1.227  51.561  0.00  0.00    +0.000 A 
ATOM      4  C   UNL     1      25.907   2.272  51.145  0.00  0.00    +0.000 A 
ATOM      5  C   UNL     1      24.747   2.469  51.884  0.00  0.00    +0.000 A 
ATOM      6  C   UNL     1      24.304   1.666  52.915  0.00  0.00    +0.000 A 
ATOM      7  O   UNL     1      22.998   1.971  53.296  0.00  0.00    +0.000 OA
ATOM      8  C   UNL     1      22.489   2.474  52.046  0.00  0.00    +0.000 C 
ATOM      9  C   UNL     1      21.232   3.337  51.941  0.00  0.00    +0.000 C 
ATOM     10  C   UNL     1      20.950   3.603  50.419  0.00  0.00    +0.000 C 
ATOM     11  C   UNL     1      22.089   3.302  49.387  0.00  0.00    +0.000 C 
ATOM     12  C   UNL     1      23.519   3.095  49.914  0.00  0.00    +0.000 C 
ATOM     13  C   UNL     1      24.754   3.839  49.333  0.00  0.00    +0.000 C 
ATOM     14  C   UNL     1      26.022   2.956  49.786  0.00  0.00    +0.000 C 
ATOM     15  N   UNL     1      24.733   5.294  49.640  0.00  0.00    +0.000 N 
ATOM     16  C   UNL     1      23.798   5.685  50.702  0.00  0.00    +0.000 C 
ATOM     17  C   UNL     1      23.853   4.739  51.894  0.00  0.00    +0.000 C 
ATOM     18  C   UNL     1      23.614   3.292  51.417  0.00  0.00    +0.000 C 
ATOM     19  H   UNL     1      24.357   5.660  48.765  0.00  0.00    +0.000 HD
ENDROOT
BRANCH   9  20
ATOM     20  N   UNL     1      20.064   2.674  52.562  0.00  0.00    +0.000 NA
ATOM     21  C   UNL     1      19.716   1.699  51.982  0.00  0.00    +0.000 C 
ATOM     22  S   UNL     1      19.280   0.394  51.194  0.00  0.00    +0.000 S 
ENDBRANCH   9  20
BRANCH   1  23
ATOM     23  O   UNL     1      24.419  -0.552  53.753  0.00  0.00    +0.000 OA
ATOM     24  H   UNL     1      24.864  -1.033  54.423  0.00  0.00    +0.000 HD
ENDBRANCH   1  23
BRANCH  15  25
ATOM     25  C   UNL     1      26.028   5.962  49.774  0.00  0.00    +0.000 C 
BRANCH  25  26
ATOM     26  C   UNL     1      26.776   6.076  48.475  0.00  0.00    +0.000 C 
ATOM     27  C   UNL     1      27.945   6.996  48.192  0.00  0.00    +0.000 C 
ATOM     28  C   UNL     1      28.186   5.531  48.410  0.00  0.00    +0.000 C 
ENDBRANCH  25  26
ENDBRANCH  15  25
TORSDOF 4
ENDMDL
MODEL 7
REMARK VINA RESULT:    -7.735      2.639      5.662
REMARK INTER + INTRA:          -9.799
REMARK INTER:                  -9.244
REMARK INTRA:                  -0.555
REMARK UNBOUND:                -0.481
REMARK  Name = 
REMARK  4 active torsions:
REMARK  status: ('A' for Active; 'I' for Inactive)
REMARK    1  A    between atoms: O_1  and  C_2
REMARK    2  A    between atoms: C_10  and  N_11
REMARK    3  A    between atoms: N_19  and  C_20
REMARK    4  A    between atoms: C_20  and  C_21
REMARK                            x       y       z     vdW  Elec       q    Type
REMARK                         _______ _______ _______ _____ _____    ______ ____
ROOT
ATOM      1  C   UNL     1      26.872   1.884  52.140  0.00  0.00    +0.000 A 
ATOM      2  C   UNL     1      26.575   0.759  52.924  0.00  0.00    +0.000 A 
ATOM      3  C   UNL     1      25.244   0.305  53.066  0.00  0.00    +0.000 A 
ATOM      4  C   UNL     1      24.211   1.006  52.449  0.00  0.00    +0.000 A 
ATOM      5  C   UNL     1      24.594   2.023  51.585  0.00  0.00    +0.000 A 
ATOM      6  C   UNL     1      25.888   2.451  51.370  0.00  0.00    +0.000 A 
ATOM      7  O   UNL     1      25.936   3.640  50.644  0.00  0.00    +0.000 OA
ATOM      8  C   UNL     1      24.677   4.219  51.037  0.00  0.00    +0.000 C 
ATOM      9  C   UNL     1      23.989   5.336  50.255  0.00  0.00    +0.000 C 
ATOM     10  C   UNL     1      22.699   5.760  51.044  0.00  0.00    +0.000 C 
ATOM     11  C   UNL     1      22.174   4.814  52.177  0.00  0.00    +0.000 C 
ATOM     12  C   UNL     1      22.718   3.378  52.242  0.00  0.00    +0.000 C 
ATOM     13  C   UNL     1      21.802   2.126  52.345  0.00  0.00    +0.000 C 
ATOM     14  C   UNL     1      22.756   0.958  52.908  0.00  0.00    +0.000 C 
ATOM     15  N   UNL     1      21.021   1.893  51.102  0.00  0.00    +0.000 N 
ATOM     16  C   UNL     1      21.508   2.622  49.924  0.00  0.00    +0.000 C 
ATOM     17  C   UNL     1      23.025   2.562  49.797  0.00  0.00    +0.000 C 
ATOM     18  C   UNL     1      23.673   3.070  51.101  0.00  0.00    +0.000 C 
ATOM     19  H   UNL     1      20.130   2.315  51.363  0.00  0.00    +0.000 HD
ENDROOT
BRANCH   9  20
ATOM     20  N   UNL     1      24.880   6.505  50.079  0.00  0.00    +0.000 NA
ATOM     21  C   UNL     1      24.824   6.977  48.992  0.00  0.00    +0.000 C 
ATOM     22  S   UNL     1      24.721   7.595  47.535  0.00  0.00    +0.000 S 
ENDBRANCH   9  20
BRANCH   1  23
ATOM     23  O   UNL     1      28.025   2.564  52.396  0.00  0.00    +0.000 OA
ATOM     24  H   UNL     1      28.262   3.302  51.868  0.00  0.00    +0.000 HD
ENDBRANCH   1  23
BRANCH  15  25
ATOM     25  C   UNL     1      20.675   0.507  50.786  0.00  0.00    +0.000 C 
BRANCH  25  26
ATOM     26  C   UNL     1      19.198   0.236  50.835  0.00  0.00    +0.000 C 
ATOM     27  C   UNL     1      18.426  -0.315  52.016  0.00  0.00    +0.000 C 
ATOM     28  C   UNL     1      18.331   1.144  51.680  0.00  0.00    +0.000 C 
ENDBRANCH  25  26
ENDBRANCH  15  25
TORSDOF 4
ENDMDL
MODEL 8
REMARK VINA RESULT:    -7.691      3.051      5.253
REMARK INTER + INTRA:          -9.746
REMARK INTER:                  -9.159
REMARK INTRA:                  -0.586
REMARK UNBOUND:                -0.481
REMARK  Name = 
REMARK  4 active torsions:
REMARK  status: ('A' for Active; 'I' for Inactive)
REMARK    1  A    between atoms: O_1  and  C_2
REMARK    2  A    between atoms: C_10  and  N_11
REMARK    3  A    between atoms: N_19  and  C_20
REMARK    4  A    between atoms: C_20  and  C_21
REMARK                            x       y       z     vdW  Elec       q    Type
REMARK                         _______ _______ _______ _____ _____    ______ ____
ROOT
ATOM      1  C   UNL     1      25.969   3.795  49.545  0.00  0.00    +0.000 A 
ATOM      2  C   UNL     1      26.843   3.181  50.455  0.00  0.00    +0.000 A 
ATOM      3  C   UNL     1      26.356   2.301  51.449  0.00  0.00    +0.000 A 
ATOM      4  C   UNL     1      24.986   2.071  51.549  0.00  0.00    +0.000 A 
ATOM      5  C   UNL     1      24.201   2.605  50.535  0.00  0.00    +0.000 A 
ATOM      6  C   UNL     1      24.651   3.413  49.511  0.00  0.00    +0.000 A 
ATOM      7  O   UNL     1      23.603   3.991  48.796  0.00  0.00    +0.000 OA
ATOM      8  C   UNL     1      22.600   4.042  49.830  0.00  0.00    +0.000 C 
ATOM      9  C   UNL     1      21.109   4.205  49.541  0.00  0.00    +0.000 C 
ATOM     10  C   UNL     1      20.356   4.314  50.915  0.00  0.00    +0.000 C 
ATOM     11  C   UNL     1      21.120   3.897  52.218  0.00  0.00    +0.000 C 
ATOM     12  C   UNL     1      22.420   3.088  52.077  0.00  0.00    +0.000 C 
ATOM     13  C   UNL     1      22.695   1.776  52.865  0.00  0.00    +0.000 C 
ATOM     14  C   UNL     1      24.293   1.592  52.822  0.00  0.00    +0.000 C 
ATOM     15  N   UNL     1      21.821   0.658  52.421  0.00  0.00    +0.000 N 
ATOM     16  C   UNL     1      21.154   0.873  51.131  0.00  0.00    +0.000 C 
ATOM     17  C   UNL     1      22.097   1.456  50.086  0.00  0.00    +0.000 C 
ATOM     18  C   UNL     1      22.736   2.750  50.631  0.00  0.00    +0.000 C 
ATOM     19  H   UNL     1      21.096   0.696  53.138  0.00  0.00    +0.000 HD
ENDROOT
BRANCH   9  20
ATOM     20  N   UNL     1      20.841   5.409  48.723  0.00  0.00    +0.000 NA
ATOM     21  C   UNL     1      21.143   6.421  49.266  0.00  0.00    +0.000 C 
ATOM     22  S   UNL     1      21.565   7.755  50.010  0.00  0.00    +0.000 S 
ENDBRANCH   9  20
BRANCH   1  23
ATOM     23  O   UNL     1      26.367   4.953  48.947  0.00  0.00    +0.000 OA
ATOM     24  H   UNL     1      26.929   5.548  49.405  0.00  0.00    +0.000 HD
ENDBRANCH   1  23
BRANCH  15  25
ATOM     25  C   UNL     1      22.363  -0.695  52.541  0.00  0.00    +0.000 C 
BRANCH  25  26
ATOM     26  C   UNL     1      21.969  -1.384  53.818  0.00  0.00    +0.000 C 
ATOM     27  C   UNL     1      22.670  -1.262  55.155  0.00  0.00    +0.000 C 
ATOM     28  C   UNL     1      21.371  -0.547  54.927  0.00  0.00    +0.000 C 
ENDBRANCH  25  26
ENDBRANCH  15  25
TORSDOF 4
ENDMDL
MODEL 9
REMARK VINA RESULT:    -7.472      3.423      6.245
REMARK INTER + INTRA:          -9.482
REMARK INTER:                  -8.935
REMARK INTRA:                  -0.547
REMARK UNBOUND:                -0.481
REMARK  Name = 
REMARK  4 active torsions:
REMARK  status: ('A' for Active; 'I' for Inactive)
REMARK    1  A    between atoms: O_1  and  C_2
REMARK    2  A    between atoms: C_10  and  N_11
REMARK    3  A    between atoms: N_19  and  C_20
REMARK    4  A    between atoms: C_20  and  C_21
REMARK                            x       y       z     vdW  Elec       q    Type
REMARK                         _______ _______ _______ _____ _____    ______ ____
ROOT
ATOM      1  C   UNL     1      21.118   2.482  48.097  0.00  0.00    +0.000 A 
ATOM      2  C   UNL     1      21.035   3.609  47.264  0.00  0.00    +0.000 A 
ATOM      3  C   UNL     1      22.013   4.628  47.323  0.00  0.00    +0.000 A 
ATOM      4  C   UNL     1      23.052   4.530  48.245  0.00  0.00    +0.000 A 
ATOM      5  C   UNL     1      23.142   3.330  48.938  0.00  0.00    +0.000 A 
ATOM      6  C   UNL     1      22.244   2.285  48.857  0.00  0.00    +0.000 A 
ATOM      7  O   UNL     1      22.462   1.324  49.843  0.00  0.00    +0.000 OA
ATOM      8  C   UNL     1      23.038   2.154  50.870  0.00  0.00    +0.000 C 
ATOM      9  C   UNL     1      23.853   1.598  52.037  0.00  0.00    +0.000 C 
ATOM     10  C   UNL     1      24.223   2.793  52.986  0.00  0.00    +0.000 C 
ATOM     11  C   UNL     1      24.051   4.254  52.447  0.00  0.00    +0.000 C 
ATOM     12  C   UNL     1      23.865   4.458  50.934  0.00  0.00    +0.000 C 
ATOM     13  C   UNL     1      24.703   5.471  50.104  0.00  0.00    +0.000 C 
ATOM     14  C   UNL     1      23.843   5.726  48.768  0.00  0.00    +0.000 C 
ATOM     15  N   UNL     1      26.127   5.061  49.986  0.00  0.00    +0.000 N 
ATOM     16  C   UNL     1      26.396   3.660  50.331  0.00  0.00    +0.000 C 
ATOM     17  C   UNL     1      25.364   2.712  49.733  0.00  0.00    +0.000 C 
ATOM     18  C   UNL     1      23.949   3.154  50.161  0.00  0.00    +0.000 C 
ATOM     19  H   UNL     1      26.544   5.632  50.722  0.00  0.00    +0.000 HD
ENDROOT
BRANCH   9  20
ATOM     20  N   UNL     1      23.094   0.573  52.789  0.00  0.00    +0.000 NA
ATOM     21  C   UNL     1      23.766  -0.042  53.551  0.00  0.00    +0.000 C 
ATOM     22  S   UNL     1      24.684  -0.839  54.568  0.00  0.00    +0.000 S 
ENDBRANCH   9  20
BRANCH   1  23
ATOM     23  O   UNL     1      19.975   1.791  48.365  0.00  0.00    +0.000 OA
ATOM     24  H   UNL     1      19.489   1.973  49.145  0.00  0.00    +0.000 HD
ENDBRANCH   1  23
BRANCH  15  25
ATOM     25  C   UNL     1      26.838   5.475  48.775  0.00  0.00    +0.000 C 
BRANCH  25  26
ATOM     26  C   UNL     1      27.181   6.939  48.757  0.00  0.00    +0.000 C 
ATOM     27  C   UNL     1      28.205   7.608  47.866  0.00  0.00    +0.000 C 
ATOM     28  C   UNL     1      26.743   7.762  47.565  0.00  0.00    +0.000 C 
ENDBRANCH  25  26
ENDBRANCH  15  25
TORSDOF 4
ENDMDL
